REMARK  Name = ZINC14980973
REMARK  7 active torsions:
REMARK  status: ('A' for Active; 'I' for Inactive)
REMARK    1  A    between atoms: C_1  and  C_2
REMARK    2  A    between atoms: C_2  and  C_3
REMARK    3  A    between atoms: N_5  and  C_6
REMARK    4  A    between atoms: N_5  and  C_25
REMARK    5  A    between atoms: C_6  and  C_7
REMARK    6  A    between atoms: C_15  and  N_16
REMARK    7  A    between atoms: C_25  and  C_26
REMARK                            x       y       z     vdW  Elec       q    Type
REMARK                         _______ _______ _______ _____ _____    ______ ____
ROOT
ATOM      1  C   UNL     1       0.713  -1.137  -3.424  0.00  0.00    +0.008 A 
ATOM      2  C   UNL     1       0.958  -2.171  -2.571  0.00  0.00    +0.018 A 
ATOM      3  C   UNL     1       0.500  -3.456  -2.930  0.00  0.00    -0.001 A 
ATOM      4  C   UNL     1       0.713  -4.564  -2.099  0.00  0.00    +0.014 A 
ATOM      5  C   UNL     1       0.261  -5.796  -2.475  0.00  0.00    -0.043 A 
ATOM      6  C   UNL     1      -0.414  -5.967  -3.683  0.00  0.00    -0.042 A 
ATOM      7  C   UNL     1      -0.635  -4.907  -4.514  0.00  0.00    +0.030 A 
ATOM      8  C   UNL     1      -0.183  -3.626  -4.158  0.00  0.00    +0.048 A 
ATOM      9  C   UNL     1       0.032  -1.371  -4.628  0.00  0.00    +0.104 A 
ATOM     10  C   UNL     1      -0.801  -7.423  -3.846  0.00  0.00    +0.036 C 
ATOM     11  C   UNL     1      -0.688  -8.033  -2.433  0.00  0.00    +0.009 C 
ATOM     12  C   UNL     1       0.365  -7.128  -1.760  0.00  0.00    +0.036 C 
ATOM     13  N   UNL     1      -0.426  -2.584  -5.026  0.00  0.00    -0.343 N 
ATOM     14  H   UNL     1      -0.921  -2.717  -5.915  0.00  0.00    +0.167 HD
ENDROOT
BRANCH   9  15
ATOM     15  N   UNL     1      -0.204  -0.310  -5.489  0.00  0.00    -0.312 N 
ATOM     16  C   UNL     1      -1.536  -0.415  -6.103  0.00  0.00    +0.134 C 
ATOM     17  C   UNL     1      -1.778   0.803  -6.997  0.00  0.00    +0.178 C 
ATOM     18  O   UNL     1      -0.736   0.885  -7.974  0.00  0.00    -0.377 OA
ATOM     19  C   UNL     1       0.574   0.990  -7.411  0.00  0.00    +0.178 C 
ATOM     20  C   UNL     1       0.840  -0.227  -6.521  0.00  0.00    +0.134 C 
ENDBRANCH   9  15
BRANCH   1  21
ATOM     21  C   UNL     1       1.179   0.253  -3.078  0.00  0.00    +0.146 C 
BRANCH  21  24
ATOM     22  C   UNL     1      -0.170   1.002  -1.192  0.00  0.00    +0.216 C 
ATOM     23  O   UNL     1      -1.096   1.634  -0.729  0.00  0.00    -0.276 OA
ATOM     24  N   UNL     1       0.061   1.018  -2.519  0.00  0.00    -0.295 N 
BRANCH  22  26
ATOM     25  C   UNL     1       0.245   0.349   1.164  0.00  0.00    +0.013 C 
ATOM     26  C   UNL     1       0.722   0.197  -0.281  0.00  0.00    +0.092 C 
ENDBRANCH  22  26
BRANCH  24  27
ATOM     27  C   UNL     1      -0.807   1.800  -3.404  0.00  0.00    +0.139 C 
BRANCH  27  28
ATOM     28  C   UNL     1      -0.312   3.247  -3.454  0.00  0.00    +0.136 C 
ATOM     29  C   UNL     1      -1.282   4.118  -4.284  0.00  0.00    +0.035 C 
ATOM     30  C   UNL     1      -0.355   5.096  -5.039  0.00  0.00    +0.031 C 
ATOM     31  C   UNL     1       1.065   4.701  -4.576  0.00  0.00    +0.160 C 
ATOM     32  O   UNL     1       0.947   3.324  -4.158  0.00  0.00    -0.375 OA
ENDBRANCH  27  28
ENDBRANCH  24  27
ENDBRANCH  21  24
ENDBRANCH   1  21
TORSDOF 6
