REMARK  Name = ZINC16456552
REMARK  6 active torsions:
REMARK  status: ('A' for Active; 'I' for Inactive)
REMARK    1  A    between atoms: C_7  and  N_20
REMARK    2  A    between atoms: N_9  and  C_12
REMARK    3  A    between atoms: C_12  and  C_13
REMARK    4  A    between atoms: N_20  and  C_21
REMARK    5  A    between atoms: C_24  and  C_27
REMARK    6  A    between atoms: N_29  and  C_30
REMARK                            x       y       z     vdW  Elec       q    Type
REMARK                         _______ _______ _______ _____ _____    ______ ____
ROOT
ATOM      1  C   UNL     1      -9.594   6.049  -8.098  0.00  0.00    +0.000 A 
ATOM      2  C   UNL     1      -9.625   6.275  -9.463  0.00  0.00    +0.001 A 
ATOM      3  C   UNL     1      -8.624   5.781 -10.273  0.00  0.00    +0.013 A 
ATOM      4  C   UNL     1      -7.575   5.049  -9.713  0.00  0.00    +0.043 A 
ATOM      5  C   UNL     1      -7.555   4.826  -8.335  0.00  0.00    +0.003 A 
ATOM      6  C   UNL     1      -8.558   5.324  -7.535  0.00  0.00    +0.008 A 
ATOM      7  C   UNL     1      -6.313   4.018  -8.052  0.00  0.00    +0.194 C 
ATOM      8  N   UNL     1      -5.655   3.808  -9.347  0.00  0.00    -0.271 N 
ATOM      9  C   UNL     1      -6.387   4.405 -10.304  0.00  0.00    +0.249 C 
ATOM     10  O   UNL     1      -6.108   4.413 -11.487  0.00  0.00    -0.270 OA
ENDROOT
BRANCH   7  11
ATOM     11  N   UNL     1      -6.677   2.729  -7.458  0.00  0.00    -0.322 N 
ATOM     12  H   UNL     1      -7.422   2.222  -7.817  0.00  0.00    +0.148 HD
BRANCH  11  13
ATOM     13  C   UNL     1      -5.954   2.232  -6.379  0.00  0.00    +0.029 A 
ATOM     14  C   UNL     1      -6.389   1.085  -5.720  0.00  0.00    +0.024 A 
ATOM     15  C   UNL     1      -5.676   0.592  -4.652  0.00  0.00    +0.015 A 
ATOM     16  C   UNL     1      -4.513   1.242  -4.229  0.00  0.00    +0.037 A 
ATOM     17  C   UNL     1      -4.081   2.395  -4.890  0.00  0.00    +0.015 A 
ATOM     18  C   UNL     1      -4.795   2.881  -5.961  0.00  0.00    +0.024 A 
BRANCH  16  19
ATOM     19  C   UNL     1      -3.746   0.715  -3.084  0.00  0.00    +0.244 C 
ATOM     20  O   UNL     1      -4.126  -0.285  -2.506  0.00  0.00    -0.270 OA
ATOM     21  N   UNL     1      -2.625   1.343  -2.678  0.00  0.00    -0.308 N 
ATOM     22  H   UNL     1      -2.322   2.141  -3.138  0.00  0.00    +0.149 HD
BRANCH  21  23
ATOM     23  C   UNL     1      -1.864   0.820  -1.540  0.00  0.00    +0.073 C 
ATOM     24  C   UNL     1      -0.405   1.266  -1.655  0.00  0.00    +0.022 C 
ATOM     25  C   UNL     1       0.390   0.720  -0.467  0.00  0.00    +0.002 C 
ATOM     26  C   UNL     1      -0.206   1.256   0.836  0.00  0.00    +0.000 C 
ATOM     27  C   UNL     1      -1.665   0.810   0.950  0.00  0.00    +0.002 C 
ATOM     28  C   UNL     1      -2.460   1.356  -0.237  0.00  0.00    +0.022 C 
ENDBRANCH  21  23
ENDBRANCH  16  19
ENDBRANCH  11  13
ENDBRANCH   7  11
BRANCH   8  29
ATOM     29  C   UNL     1      -4.408   3.071  -9.561  0.00  0.00    +0.145 C 
BRANCH  29  30
ATOM     30  C   UNL     1      -4.721   1.619  -9.816  0.00  0.00    -0.030 A 
ATOM     31  C   UNL     1      -4.788   0.730  -8.760  0.00  0.00    +0.008 A 
ATOM     32  C   UNL     1      -5.079  -0.601  -8.992  0.00  0.00    +0.038 A 
ATOM     33  C   UNL     1      -5.293  -1.046 -10.286  0.00  0.00    +0.123 A 
ATOM     34  C   UNL     1      -5.220  -0.156 -11.344  0.00  0.00    +0.038 A 
ATOM     35  C   UNL     1      -4.934   1.176 -11.108  0.00  0.00    +0.008 A 
ATOM     36  F   UNL     1      -5.573  -2.347 -10.515  0.00  0.00    -0.205 F 
ENDBRANCH  29  30
ENDBRANCH   8  29
TORSDOF 6
