REMARK  Name = ZINC63513866
REMARK  8 active torsions:
REMARK  status: ('A' for Active; 'I' for Inactive)
REMARK    1  A    between atoms: C_4  and  C_7
REMARK    2  A    between atoms: N_9  and  C_10
REMARK    3  A    between atoms: C_10  and  C_11
REMARK    4  A    between atoms: C_10  and  C_15
REMARK    5  A    between atoms: C_10  and  N_19
REMARK    6  A    between atoms: N_19  and  C_20
REMARK    7  A    between atoms: C_20  and  C_21
REMARK    8  A    between atoms: C_21  and  C_22
REMARK                            x       y       z     vdW  Elec       q    Type
REMARK                         _______ _______ _______ _____ _____    ______ ____
ROOT
ATOM      1  C   UNL     1       4.963  -2.813  -0.015  0.00  0.00    +0.279 C 
ENDROOT
BRANCH   1   4
ATOM      2  C   UNL     1       2.958  -1.563  -0.613  0.00  0.00    +0.246 C 
ATOM      3  O   UNL     1       2.628  -2.489  -1.328  0.00  0.00    -0.270 OA
ATOM      4  N   UNL     1       4.128  -1.611   0.055  0.00  0.00    -0.279 N 
ATOM      5  H   UNL     1       4.417  -0.849   0.582  0.00  0.00    +0.151 HD
BRANCH   2   9
ATOM      6  C   UNL     1       0.424   1.823  -0.219  0.00  0.00    +0.000 A 
ATOM      7  C   UNL     1       0.046   0.771  -1.034  0.00  0.00    +0.001 A 
ATOM      8  C   UNL     1       0.864  -0.331  -1.167  0.00  0.00    +0.013 A 
ATOM      9  C   UNL     1       2.076  -0.384  -0.476  0.00  0.00    +0.037 A 
ATOM     10  C   UNL     1       2.452   0.681   0.344  0.00  0.00    +0.013 A 
ATOM     11  C   UNL     1       1.624   1.777   0.468  0.00  0.00    +0.001 A 
ENDBRANCH   2   9
ENDBRANCH   1   4
BRANCH   1  12
ATOM     12  C   UNL     1       5.609  -2.905  -1.399  0.00  0.00    +0.433 C 
ATOM     13  F   UNL     1       6.274  -1.708  -1.684  0.00  0.00    -0.167 F 
ATOM     14  F   UNL     1       6.525  -3.963  -1.416  0.00  0.00    -0.167 F 
ATOM     15  F   UNL     1       4.619  -3.130  -2.361  0.00  0.00    -0.167 F 
ENDBRANCH   1  12
BRANCH   1  16
ATOM     16  C   UNL     1       6.054  -2.738   1.054  0.00  0.00    +0.433 C 
ATOM     17  F   UNL     1       5.471  -2.813   2.323  0.00  0.00    -0.167 F 
ATOM     18  F   UNL     1       6.945  -3.804   0.886  0.00  0.00    -0.167 F 
ATOM     19  F   UNL     1       6.746  -1.528   0.930  0.00  0.00    -0.167 F 
ENDBRANCH   1  16
BRANCH   1  20
ATOM     20  N   UNL     1       4.130  -4.001   0.217  0.00  0.00    -0.281 NA
ATOM     21  H   UNL     1       3.535  -3.874   1.022  0.00  0.00    +0.124 HD
BRANCH  20  22
ATOM     22  C   UNL     1       4.960  -5.205   0.361  0.00  0.00    +0.088 C 
BRANCH  22  23
ATOM     23  C   UNL     1       4.059  -6.438   0.443  0.00  0.00    +0.048 C 
BRANCH  23  24
ATOM     24  C   UNL     1       4.910  -7.673   0.590  0.00  0.00    -0.040 C 
ATOM     25  C   UNL     1       5.247  -8.296   1.742  0.00  0.00    -0.001 A 
ATOM     26  C   UNL     1       4.935  -8.020   3.150  0.00  0.00    +0.010 A 
ATOM     27  C   UNL     1       5.428  -8.841   4.104  0.00  0.00    +0.001 A 
ATOM     28  C   UNL     1       6.229  -9.946   3.784  0.00  0.00    +0.002 A 
ATOM     29  C   UNL     1       6.558 -10.264   2.514  0.00  0.00    +0.026 A 
ATOM     30  C   UNL     1       6.093  -9.469   1.430  0.00  0.00    +0.043 A 
ATOM     31  N   UNL     1       6.273  -9.568   0.136  0.00  0.00    -0.380 N 
ATOM     32  C   UNL     1       5.554  -8.471  -0.522  0.00  0.00    +0.144 C 
ATOM     33  H   UNL     1       6.791 -10.255  -0.313  0.00  0.00    +0.160 HD
ENDBRANCH  23  24
ENDBRANCH  22  23
ENDBRANCH  20  22
ENDBRANCH   1  20
TORSDOF 8
