REMARK  Name = ZINC11765007
REMARK  5 active torsions:
REMARK  status: ('A' for Active; 'I' for Inactive)
REMARK    1  A    between atoms: C_4  and  C_7
REMARK    2  A    between atoms: C_7  and  N_54
REMARK    3  A    between atoms: C_16  and  C_18
REMARK    4  A    between atoms: C_18  and  C_19
REMARK    5  A    between atoms: C_25  and  C_27
REMARK                            x       y       z     vdW  Elec       q    Type
REMARK                         _______ _______ _______ _____ _____    ______ ____
ROOT
ATOM      1  C   UNL     1       3.982   5.141  -1.440  0.00  0.00    -0.072 C 
ATOM      2  C   UNL     1       4.635   5.116  -2.825  0.00  0.00    +0.038 C 
ATOM      3  C   UNL     1       3.542   5.313  -3.870  0.00  0.00    +0.050 A 
ATOM      4  C   UNL     1       2.243   5.107  -3.523  0.00  0.00    -0.002 A 
ATOM      5  S   UNL     1       1.379   5.454  -5.029  0.00  0.00    -0.059 S 
ATOM      6  C   UNL     1       2.776   5.838  -5.991  0.00  0.00    +0.165 A 
ATOM      7  N   UNL     1       3.759   5.681  -5.127  0.00  0.00    -0.229 NA
ATOM      8  N   UNL     1       2.839   6.216  -7.327  0.00  0.00    -0.264 N 
ATOM      9  C   UNL     1       4.032   6.474  -7.899  0.00  0.00    +0.224 C 
ATOM     10  O   UNL     1       5.051   6.378  -7.247  0.00  0.00    -0.275 OA
ATOM     11  C   UNL     1       1.722   4.690  -2.190  0.00  0.00    -0.033 C 
ATOM     12  H   UNL     1       2.025   6.293  -7.849  0.00  0.00    +0.157 HD
ATOM     13  N   UNL     1       2.867   4.172  -1.400  0.00  0.00    +0.386 N 
ATOM     14  H   UNL     1       3.181   3.284  -1.809  0.00  0.00    -0.081 HD
ENDROOT
BRANCH  13  15
ATOM     15  C   UNL     1       2.451   3.937  -0.001  0.00  0.00    -0.043 C 
BRANCH  15  19
ATOM     16  C   UNL     1      -1.219   1.751   0.017  0.00  0.00    +0.000 A 
ATOM     17  C   UNL     1      -0.013   1.076   0.008  0.00  0.00    +0.000 A 
ATOM     18  C   UNL     1       1.175   1.783   0.000  0.00  0.00    +0.002 A 
ATOM     19  C   UNL     1       1.156   3.165   0.008  0.00  0.00    -0.064 A 
ATOM     20  C   UNL     1      -0.050   3.840   0.023  0.00  0.00    +0.002 A 
ATOM     21  C   UNL     1      -1.238   3.133   0.030  0.00  0.00    +0.000 A 
ENDBRANCH  15  19
ENDBRANCH  13  15
BRANCH   9  22
ATOM     22  C   UNL     1       4.101   6.883  -9.347  0.00  0.00    +0.152 C 
BRANCH  22  23
ATOM     23  C   UNL     1       5.539   7.112  -9.737  0.00  0.00    +0.059 A 
ATOM     24  C   UNL     1       6.084   6.458 -10.792  0.00  0.00    +0.072 A 
ATOM     25  S   UNL     1       7.746   7.112 -10.765  0.00  0.00    -0.060 S 
ATOM     26  C   UNL     1       7.555   8.160  -9.394  0.00  0.00    +0.165 A 
ATOM     27  N   UNL     1       6.294   7.958  -9.064  0.00  0.00    -0.229 NA
ATOM     28  N   UNL     1       8.488   9.001  -8.801  0.00  0.00    -0.258 N 
ATOM     29  C   UNL     1       9.740   9.073  -9.295  0.00  0.00    +0.285 C 
ATOM     30  O   UNL     1      10.052   8.402 -10.261  0.00  0.00    -0.266 OA
ATOM     31  H   UNL     1       8.239   9.536  -8.031  0.00  0.00    +0.157 HD
BRANCH  29  32
ATOM     32  C   UNL     1      10.725   9.960  -8.669  0.00  0.00    +0.189 A 
ATOM     33  C   UNL     1      12.021  10.127  -9.066  0.00  0.00    +0.054 A 
ATOM     34  C   UNL     1      12.594  11.062  -8.190  0.00  0.00    +0.042 A 
ATOM     35  C   UNL     1      11.635  11.420  -7.307  0.00  0.00    +0.196 A 
ATOM     36  O   UNL     1      10.509  10.758  -7.603  0.00  0.00    -0.458 OA
ENDBRANCH  29  32
ENDBRANCH  22  23
ENDBRANCH   9  22
TORSDOF 5
