REMARK  Name = ZINC67292311
REMARK  6 active torsions:
REMARK  status: ('A' for Active; 'I' for Inactive)
REMARK    1  A    between atoms: C_1  and  S_2
REMARK    2  A    between atoms: S_2  and  C_3
REMARK    3  A    between atoms: C_7  and  N_9
REMARK    4  A    between atoms: C_11  and  C_21
REMARK    5  A    between atoms: N_23  and  C_24
REMARK    6  A    between atoms: C_24  and  C_25
REMARK                            x       y       z     vdW  Elec       q    Type
REMARK                         _______ _______ _______ _____ _____    ______ ____
ROOT
ATOM      1  N   UNL     1       2.005  -3.403   3.271  0.00  0.00    -0.325 N 
ATOM      2  C   UNL     1       3.192  -3.787   3.686  0.00  0.00    +0.212 A 
ATOM      3  C   UNL     1       3.428  -5.172   4.141  0.00  0.00    +0.097 A 
ATOM      4  C   UNL     1       4.719  -5.667   4.019  0.00  0.00    +0.030 A 
ATOM      5  C   UNL     1       5.731  -4.773   3.450  0.00  0.00    +0.019 A 
ATOM      6  C   UNL     1       6.978  -5.267   3.047  0.00  0.00    +0.026 A 
ATOM      7  C   UNL     1       7.910  -4.406   2.513  0.00  0.00    +0.019 A 
ATOM      8  C   UNL     1       7.620  -3.055   2.373  0.00  0.00    +0.019 A 
ATOM      9  C   UNL     1       6.396  -2.554   2.768  0.00  0.00    +0.048 A 
ATOM     10  C   UNL     1       5.442  -3.403   3.310  0.00  0.00    +0.137 A 
ATOM     11  O   UNL     1       4.240  -2.925   3.703  0.00  0.00    -0.439 OA
ATOM     12 BR   UNL     1       9.596  -5.067   1.966  0.00  0.00    -0.050 Br
ATOM     13  H   UNL     1       1.289  -4.051   3.181  0.00  0.00    +0.169 HD
ENDROOT
BRANCH   1  18
ATOM     14  C   UNL     1       0.866  -0.414   1.499  0.00  0.00    +0.010 A 
ATOM     15  C   UNL     1       1.328   0.580   2.356  0.00  0.00    +0.015 A 
ATOM     16  C   UNL     1       2.010   0.243   3.509  0.00  0.00    +0.003 A 
ATOM     17  C   UNL     1       2.239  -1.082   3.820  0.00  0.00    +0.026 A 
ATOM     18  C   UNL     1       1.779  -2.089   2.966  0.00  0.00    +0.043 A 
ATOM     19  C   UNL     1       1.085  -1.749   1.804  0.00  0.00    +0.040 A 
BRANCH  14  21
ATOM     20  C   UNL     1      -0.039   1.836   0.064  0.00  0.00    +0.090 C 
ATOM     21  S   UNL     1      -0.003   0.023   0.030  0.00  0.00    -0.129 S 
ENDBRANCH  14  21
ENDBRANCH   1  18
BRANCH   3  22
ATOM     22  C   UNL     1       2.340  -5.993   4.700  0.00  0.00    +0.249 C 
ATOM     23  O   UNL     1       1.201  -5.565   4.714  0.00  0.00    -0.270 OA
ATOM     24  N   UNL     1       2.606  -7.217   5.196  0.00  0.00    -0.309 N 
ATOM     25  H   UNL     1       3.523  -7.529   5.253  0.00  0.00    +0.149 HD
BRANCH  24  26
ATOM     26  C   UNL     1       1.511  -8.078   5.649  0.00  0.00    +0.136 C 
BRANCH  26  27
ATOM     27  C   UNL     1       2.081  -9.402   6.162  0.00  0.00    +0.135 C 
ATOM     28  C   UNL     1       0.929 -10.362   6.529  0.00  0.00    +0.035 C 
ATOM     29  C   UNL     1       1.464 -11.040   7.819  0.00  0.00    +0.031 C 
ATOM     30  C   UNL     1       2.260  -9.874   8.456  0.00  0.00    +0.160 C 
ATOM     31  O   UNL     1       2.850  -9.172   7.348  0.00  0.00    -0.375 OA
ENDBRANCH  26  27
ENDBRANCH  24  26
ENDBRANCH   3  22
TORSDOF 5
