REMARK  Name = ZINC38702491
REMARK  1 active torsions:
REMARK  status: ('A' for Active; 'I' for Inactive)
REMARK    1  A    between atoms: C_6  and  C_7
REMARK                            x       y       z     vdW  Elec       q    Type
REMARK                         _______ _______ _______ _____ _____    ______ ____
ROOT
ATOM      1  C   UNL     1      -1.293  -0.775   0.011  0.00  0.00    +0.141 C 
ATOM      2  C   UNL     1      -1.612  -1.262  -1.365  0.00  0.00    +0.072 A 
ATOM      3  C   UNL     1      -1.864  -0.535  -2.613  0.00  0.00    +0.199 A 
ATOM      4  O   UNL     1      -1.672   0.662  -2.739  0.00  0.00    -0.287 OA
ATOM      5  C   UNL     1      -2.374  -1.396  -3.710  0.00  0.00    +0.066 A 
ATOM      6  C   UNL     1      -2.849  -0.827  -4.891  0.00  0.00    +0.035 A 
ATOM      7  C   UNL     1      -3.324  -1.641  -5.896  0.00  0.00    +0.042 A 
ATOM      8  C   UNL     1      -3.329  -3.020  -5.731  0.00  0.00    +0.023 A 
ATOM      9  C   UNL     1      -2.861  -3.592  -4.569  0.00  0.00    +0.048 A 
ATOM     10  C   UNL     1      -2.373  -2.790  -3.538  0.00  0.00    +0.140 A 
ATOM     11  O   UNL     1      -1.911  -3.379  -2.412  0.00  0.00    -0.450 OA
ATOM     12  C   UNL     1      -1.652  -2.627  -1.324  0.00  0.00    +0.199 A 
ATOM     13  C   UNL     1      -1.372  -3.057   0.057  0.00  0.00    +0.281 C 
ATOM     14  O   UNL     1      -1.337  -4.211   0.433  0.00  0.00    -0.267 OA
ATOM     15  N   UNL     1      -1.161  -1.980   0.845  0.00  0.00    -0.298 N 
ATOM     16 CL   UNL     1      -3.916  -0.942  -7.371  0.00  0.00    -0.084 Cl
ATOM     17  H   UNL     1      -0.957  -1.998   1.793  0.00  0.00    +0.150 HD
ENDROOT
BRANCH   1  23
ATOM     18  C   UNL     1      -0.017   1.378   0.010  0.00  0.00    +0.007 A 
ATOM     19  C   UNL     1       1.171   2.086   0.002  0.00  0.00    +0.022 A 
ATOM     20  C   UNL     1       2.378   1.412  -0.013  0.00  0.00    +0.059 A 
ATOM     21  C   UNL     1       2.397   0.027  -0.021  0.00  0.00    +0.060 A 
ATOM     22  C   UNL     1       1.208  -0.680  -0.013  0.00  0.00    +0.027 A 
ATOM     23  C   UNL     1       0.002  -0.004   0.002  0.00  0.00    -0.021 A 
ATOM     24 CL   UNL     1       3.912  -0.821  -0.040  0.00  0.00    -0.082 Cl
ATOM     25 CL   UNL     1       3.869   2.301  -0.023  0.00  0.00    -0.082 Cl
ENDBRANCH   1  23
TORSDOF 1
