REMARK  Name = ZINC23858256
REMARK  10 active torsions:
REMARK  status: ('A' for Active; 'I' for Inactive)
REMARK    1  A    between atoms: C_1  and  C_2
REMARK    2  A    between atoms: C_4  and  C_11
REMARK    3  A    between atoms: C_7  and  N_8
REMARK    4  A    between atoms: N_13  and  C_14
REMARK    5  A    between atoms: C_14  and  C_15
REMARK    6  A    between atoms: C_15  and  C_17
REMARK    7  A    between atoms: C_15  and  N_28
REMARK    8  A    between atoms: N_26  and  C_27
REMARK    9  A    between atoms: N_28  and  C_29
REMARK   10  A    between atoms: N_28  and  C_30
REMARK                            x       y       z     vdW  Elec       q    Type
REMARK                         _______ _______ _______ _____ _____    ______ ____
ROOT
ATOM      1  C   UNL     1       4.036  -0.654   3.950  0.00  0.00    -0.021 C 
ENDROOT
BRANCH   1   2
ATOM      2  C   UNL     1       3.273   0.159   2.936  0.00  0.00    -0.059 A 
ATOM      3  C   UNL     1       1.921  -0.062   2.748  0.00  0.00    +0.004 A 
ATOM      4  C   UNL     1       1.225   0.679   1.817  0.00  0.00    +0.023 A 
ATOM      5  C   UNL     1       1.877   1.655   1.061  0.00  0.00    +0.033 A 
ATOM      6  C   UNL     1       3.229   1.876   1.258  0.00  0.00    -0.026 A 
ATOM      7  C   UNL     1       3.922   1.124   2.193  0.00  0.00    +0.007 A 
ATOM      8  C   UNL     1       3.989   2.926   0.486  0.00  0.00    +0.038 C 
ATOM      9  C   UNL     1       3.170   3.363  -0.731  0.00  0.00    +0.024 C 
ATOM     10  C   UNL     1       1.735   3.636  -0.262  0.00  0.00    +0.105 C 
ATOM     11  N   UNL     1       1.121   2.366   0.131  0.00  0.00    -0.333 N 
ATOM     12  C   UNL     1      -0.251   2.573   0.616  0.00  0.00    +0.129 C 
ENDBRANCH   1   2
BRANCH   1  13
ATOM     13  N   UNL     1       4.307  -1.990   3.404  0.00  0.00    +0.382 N 
ATOM     14  C   UNL     1       3.074  -2.618   2.913  0.00  0.00    -0.096 C 
ATOM     15  C   UNL     1       5.324  -1.929   2.345  0.00  0.00    -0.096 C 
ATOM     16  H   UNL     1       4.704  -2.614   4.218  0.00  0.00    -0.082 HD
ENDBRANCH   1  13
BRANCH   1  17
ATOM     17  C   UNL     1       3.205  -0.785   5.229  0.00  0.00    +0.094 C 
BRANCH  17  20
ATOM     18  C   UNL     1       3.343  -1.937   7.371  0.00  0.00    +0.244 C 
ATOM     19  O   UNL     1       2.277  -1.439   7.675  0.00  0.00    -0.270 OA
ATOM     20  N   UNL     1       3.893  -1.672   6.169  0.00  0.00    -0.313 N 
ATOM     21  H   UNL     1       4.858  -2.123   5.895  0.00  0.00    +0.149 HD
BRANCH  18  25
ATOM     22  C   UNL     1       3.514  -4.244  11.793  0.00  0.00    +0.046 C 
ATOM     23  C   UNL     1       4.124  -3.945  10.447  0.00  0.00    -0.020 A 
ATOM     24  C   UNL     1       3.471  -3.108   9.566  0.00  0.00    +0.018 A 
ATOM     25  C   UNL     1       4.037  -2.832   8.321  0.00  0.00    +0.037 A 
ATOM     26  C   UNL     1       5.260  -3.410   7.973  0.00  0.00    +0.015 A 
ATOM     27  C   UNL     1       5.905  -4.241   8.866  0.00  0.00    +0.034 A 
ATOM     28  C   UNL     1       5.337  -4.511  10.099  0.00  0.00    +0.129 A 
BRANCH  28  29
ATOM     29  N   UNL     1       6.032  -5.407  11.050  0.00  0.00    +0.057 N 
ATOM     30  O   UNL     1       7.249  -5.411  11.105  0.00  0.00    -0.126 OA
ATOM     31  O   UNL     1       5.388  -6.142  11.776  0.00  0.00    -0.126 OA
ENDBRANCH  28  29
ENDBRANCH  18  25
ENDBRANCH  17  20
ENDBRANCH   1  17
TORSDOF 6
