REMARK  Name = ZINC31818160
REMARK  8 active torsions:
REMARK  status: ('A' for Active; 'I' for Inactive)
REMARK    1  A    between atoms: C_1  and  C_2
REMARK    2  A    between atoms: C_2  and  C_3
REMARK    3  A    between atoms: C_2  and  C_4
REMARK    4  A    between atoms: C_5  and  C_19
REMARK    5  A    between atoms: C_12  and  C_15
REMARK    6  A    between atoms: N_21  and  N_22
REMARK    7  A    between atoms: C_23  and  C_25
REMARK    8  A    between atoms: C_25  and  C_26
REMARK                            x       y       z     vdW  Elec       q    Type
REMARK                         _______ _______ _______ _____ _____    ______ ____
ROOT
ATOM      1  C   UNL     1       6.083   1.234  -0.615  0.00  0.00    +0.263 C 
ATOM      2  O   UNL     1       6.358   2.236  -1.247  0.00  0.00    -0.269 OA
ATOM      3  N   UNL     1       7.058   0.375  -0.257  0.00  0.00    -0.230 N 
ATOM      4  H   UNL     1       6.810  -0.532   0.314  0.00  0.00    +0.173 HD
ENDROOT
BRANCH   1   6
ATOM      5  C   UNL     1       3.604   1.794  -0.439  0.00  0.00    +0.061 A 
ATOM      6  C   UNL     1       4.684   0.958  -0.242  0.00  0.00    +0.079 A 
ATOM      7  C   UNL     1       4.199  -0.211   0.387  0.00  0.00    +0.148 A 
ATOM      8  N   UNL     1       2.912  -0.075   0.556  0.00  0.00    -0.172 NA
ATOM      9  N   UNL     1       2.516   1.165   0.044  0.00  0.00    -0.218 N 
ATOM     10  C   UNL     1       1.212   1.669   0.040  0.00  0.00    +0.154 A 
ATOM     11  C   UNL     1       0.135   0.792   0.068  0.00  0.00    +0.049 A 
ATOM     12  C   UNL     1      -1.151   1.303   0.058  0.00  0.00    +0.017 A 
ATOM     13  C   UNL     1      -1.315   2.681   0.033  0.00  0.00    +0.073 A 
ATOM     14  C   UNL     1      -0.199   3.494   0.006  0.00  0.00    +0.125 A 
ATOM     15  N   UNL     1       1.015   2.977   0.011  0.00  0.00    -0.236 NA
BRANCH  13  16
ATOM     16  C   UNL     1      -2.696   3.284   0.027  0.00  0.00    +0.419 C 
ATOM     17  F   UNL     1      -2.596   4.679  -0.006  0.00  0.00    -0.166 F 
ATOM     18  F   UNL     1      -3.395   2.839  -1.101  0.00  0.00    -0.166 F 
ATOM     19  F   UNL     1      -3.380   2.893   1.183  0.00  0.00    -0.166 F 
ENDBRANCH  13  16
BRANCH   5  21
ATOM     20  C   UNL     1       4.584   4.067  -0.292  0.00  0.00    +0.014 C 
ATOM     21  C   UNL     1       3.636   3.159  -1.078  0.00  0.00    +0.032 C 
ATOM     22  C   UNL     1       4.128   3.035  -2.521  0.00  0.00    +0.014 C 
ENDBRANCH   5  21
ENDBRANCH   1   6
BRANCH   3  23
ATOM     23  N   UNL     1       8.388   0.637  -0.613  0.00  0.00    -0.234 N 
ATOM     24  C   UNL     1       9.363  -0.222  -0.254  0.00  0.00    +0.233 C 
ATOM     25  O   UNL     1       9.089  -1.222   0.375  0.00  0.00    -0.274 OA
ATOM     26  H   UNL     1       8.636   1.544  -1.184  0.00  0.00    +0.173 HD
BRANCH  24  27
ATOM     27  C   UNL     1      10.793   0.060  -0.636  0.00  0.00    +0.134 C 
BRANCH  27  28
ATOM     28  C   UNL     1      11.678  -1.045  -0.120  0.00  0.00    -0.014 A 
ATOM     29  C   UNL     1      12.366  -1.044   1.033  0.00  0.00    +0.087 A 
ATOM     30  N   UNL     1      13.055  -2.219   1.166  0.00  0.00    -0.360 N 
ATOM     31  H   UNL     1      13.672  -2.397   2.059  0.00  0.00    +0.165 HD
ATOM     32  C   UNL     1      12.829  -3.021   0.070  0.00  0.00    +0.047 A 
ATOM     33  C   UNL     1      11.956  -2.321  -0.784  0.00  0.00    +0.003 A 
ATOM     34  C   UNL     1      11.547  -2.898  -1.987  0.00  0.00    +0.010 A 
ATOM     35  C   UNL     1      11.997  -4.142  -2.331  0.00  0.00    +0.001 A 
ATOM     36  C   UNL     1      12.858  -4.836  -1.492  0.00  0.00    +0.002 A 
ATOM     37  C   UNL     1      13.274  -4.286  -0.300  0.00  0.00    +0.026 A 
ENDBRANCH  27  28
ENDBRANCH  24  27
ENDBRANCH   3  23
TORSDOF 6
