REMARK  Name = ZINC00956399
REMARK  6 active torsions:
REMARK  status: ('A' for Active; 'I' for Inactive)
REMARK    1  A    between atoms: C_4  and  C_7
REMARK    2  A    between atoms: C_7  and  C_8
REMARK    3  A    between atoms: C_8  and  C_10
REMARK    4  A    between atoms: C_8  and  N_25
REMARK    5  A    between atoms: N_12  and  C_13
REMARK    6  A    between atoms: C_14  and  C_22
REMARK                            x       y       z     vdW  Elec       q    Type
REMARK                         _______ _______ _______ _____ _____    ______ ____
ROOT
ATOM      1  C   UNL     1      -2.945   0.711   1.462  0.00  0.00    +0.175 C 
ENDROOT
BRANCH   1   2
ATOM      2  N   UNL     1      -1.968  -0.170   2.108  0.00  0.00    -0.222 N 
ATOM      3  C   UNL     1      -1.667  -1.411   1.686  0.00  0.00    +0.255 C 
ATOM      4  O   UNL     1      -2.155  -1.971   0.725  0.00  0.00    -0.270 OA
ATOM      5  C   UNL     1      -0.643  -1.980   2.588  0.00  0.00    +0.049 A 
ATOM      6  C   UNL     1       0.032  -3.188   2.646  0.00  0.00    +0.014 A 
ATOM      7  C   UNL     1       0.957  -3.411   3.654  0.00  0.00    +0.001 A 
ATOM      8  C   UNL     1       1.209  -2.437   4.601  0.00  0.00    +0.001 A 
ATOM      9  C   UNL     1       0.542  -1.223   4.556  0.00  0.00    +0.014 A 
ATOM     10  C   UNL     1      -0.385  -0.986   3.554  0.00  0.00    +0.049 A 
ATOM     11  C   UNL     1      -1.259   0.154   3.204  0.00  0.00    +0.255 C 
ATOM     12  O   UNL     1      -1.325   1.207   3.805  0.00  0.00    -0.270 OA
ENDBRANCH   1   2
BRANCH   1  13
ATOM     13  C   UNL     1      -4.299   0.049   1.467  0.00  0.00    +0.239 C 
ATOM     14  O   UNL     1      -4.434  -1.051   1.961  0.00  0.00    -0.273 OA
ATOM     15  N   UNL     1      -5.359   0.678   0.922  0.00  0.00    -0.278 N 
ATOM     16  H   UNL     1      -5.250   1.557   0.527  0.00  0.00    +0.155 HD
BRANCH  15  17
ATOM     17  C   UNL     1      -6.604   0.069   0.927  0.00  0.00    +0.084 A 
ATOM     18  C   UNL     1      -7.803   0.554   0.425  0.00  0.00    +0.068 A 
ATOM     19  C   UNL     1      -8.977  -0.293   0.552  0.00  0.00    -0.023 A 
ATOM     20  C   UNL     1      -8.768  -1.477   1.167  0.00  0.00    -0.004 A 
ATOM     21  S   UNL     1      -7.043  -1.481   1.567  0.00  0.00    -0.077 S 
ATOM     22  C   UNL     1      -9.782  -2.543   1.444  0.00  0.00    +0.043 C 
ATOM     23  C   UNL     1     -11.182  -1.938   1.260  0.00  0.00    +0.005 C 
ATOM     24  C   UNL     1     -11.217  -1.168  -0.063  0.00  0.00    +0.005 C 
ATOM     25  C   UNL     1     -10.361   0.095   0.047  0.00  0.00    +0.037 C 
BRANCH  18  26
ATOM     26  C   UNL     1      -7.882   1.872  -0.214  0.00  0.00    +0.244 C 
ATOM     27  O   UNL     1      -7.703   1.978  -1.413  0.00  0.00    -0.270 OA
ATOM     28  N   UNL     1      -8.153   2.965   0.526  0.00  0.00    -0.325 N 
ATOM     29  H   UNL     1      -8.296   2.880   1.482  0.00  0.00    +0.145 HD
ATOM     30  H   UNL     1      -8.206   3.836   0.103  0.00  0.00    +0.145 HD
ENDBRANCH  18  26
ENDBRANCH  15  17
ENDBRANCH   1  13
BRANCH   1  31
ATOM     31  C   UNL     1      -2.514   0.980   0.019  0.00  0.00    +0.067 C 
BRANCH  31  35
ATOM     32  C   UNL     1       1.156   3.165   0.008  0.00  0.00    +0.000 A 
ATOM     33  C   UNL     1       1.175   1.783   0.000  0.00  0.00    +0.000 A 
ATOM     34  C   UNL     1      -0.013   1.076   0.008  0.00  0.00    +0.004 A 
ATOM     35  C   UNL     1      -1.219   1.751   0.017  0.00  0.00    -0.045 A 
ATOM     36  C   UNL     1      -1.238   3.133   0.030  0.00  0.00    +0.004 A 
ATOM     37  C   UNL     1      -0.050   3.840   0.022  0.00  0.00    +0.000 A 
ENDBRANCH  31  35
ENDBRANCH   1  31
TORSDOF 6
