REMARK  Name = ZINC09485283
REMARK  11 active torsions:
REMARK  status: ('A' for Active; 'I' for Inactive)
REMARK    1  A    between atoms: C_1  and  C_2
REMARK    2  A    between atoms: C_2  and  O_3
REMARK    3  A    between atoms: O_3  and  C_4
REMARK    4  A    between atoms: C_4  and  C_6
REMARK    5  A    between atoms: C_7  and  C_22
REMARK    6  A    between atoms: C_12  and  C_14
REMARK    7  A    between atoms: C_17  and  O_20
REMARK    8  A    between atoms: O_20  and  C_21
REMARK    9  A    between atoms: C_22  and  O_23
REMARK   10  A    between atoms: O_23  and  C_24
REMARK   11  A    between atoms: C_24  and  C_26
REMARK                            x       y       z     vdW  Elec       q    Type
REMARK                         _______ _______ _______ _____ _____    ______ ____
ROOT
ATOM      1  C   UNL     1      -0.756   1.492   1.335  0.00  0.00    +0.081 C 
ATOM      2  C   UNL     1      -1.893   2.203   1.183  0.00  0.00    +0.061 C 
ATOM      3  N   UNL     1      -2.305   2.617  -0.051  0.00  0.00    -0.269 N 
ATOM      4  C   UNL     1      -1.636   2.362  -1.182  0.00  0.00    +0.304 C 
ATOM      5  O   UNL     1      -2.082   2.773  -2.235  0.00  0.00    -0.252 OA
ATOM      6  N   UNL     1      -0.483   1.664  -1.191  0.00  0.00    -0.288 N 
ATOM      7  C   UNL     1       0.048   1.171   0.091  0.00  0.00    +0.144 C 
ATOM      8  H   UNL     1      -3.130   3.125  -0.112  0.00  0.00    +0.156 HD
ATOM      9  H   UNL     1      -0.014   1.490  -2.022  0.00  0.00    +0.151 HD
ENDROOT
BRANCH   7  10
ATOM     10  C   UNL     1       1.431   1.742   0.272  0.00  0.00    -0.022 A 
ATOM     11  C   UNL     1       1.673   3.071  -0.025  0.00  0.00    +0.009 A 
ATOM     12  C   UNL     1       2.939   3.598   0.145  0.00  0.00    +0.046 A 
ATOM     13  C   UNL     1       3.969   2.790   0.604  0.00  0.00    +0.120 A 
ATOM     14  C   UNL     1       3.725   1.456   0.896  0.00  0.00    +0.046 A 
ATOM     15  C   UNL     1       2.456   0.935   0.730  0.00  0.00    +0.009 A 
BRANCH  13  16
ATOM     16  O   UNL     1       5.217   3.305   0.766  0.00  0.00    -0.495 OA
ATOM     17  C   UNL     1       5.395   4.686   0.446  0.00  0.00    +0.277 C 
ENDBRANCH  13  16
ENDBRANCH   7  10
BRANCH   1  18
ATOM     18  C   UNL     1      -0.329   1.061   2.613  0.00  0.00    +0.339 C 
ATOM     19  O   UNL     1      -0.513  -0.091   2.959  0.00  0.00    -0.245 OA
BRANCH  18  20
ATOM     20  O   UNL     1       0.281   1.927   3.448  0.00  0.00    -0.462 OA
BRANCH  20  22
ATOM     21  C   UNL     1       1.354   2.542   5.524  0.00  0.00    +0.048 C 
ATOM     22  C   UNL     1       0.685   1.424   4.723  0.00  0.00    +0.229 C 
ENDBRANCH  20  22
ENDBRANCH  18  20
ENDBRANCH   1  18
BRANCH   2  23
ATOM     23  C   UNL     1      -2.722   2.544   2.395  0.00  0.00    +0.283 C 
BRANCH  23  24
ATOM     24  O   UNL     1      -2.727   3.961   2.584  0.00  0.00    -0.455 OA
BRANCH  24  25
ATOM     25  C   UNL     1      -3.429   4.435   3.634  0.00  0.00    +0.346 C 
ATOM     26  O   UNL     1      -4.020   3.666   4.368  0.00  0.00    -0.244 OA
BRANCH  25  27
ATOM     27  C   UNL     1      -3.478   5.875   3.890  0.00  0.00    +0.098 A 
ATOM     28  C   UNL     1      -4.139   6.561   4.899  0.00  0.00    +0.024 A 
ATOM     29  C   UNL     1      -4.014   7.927   4.910  0.00  0.00    +0.028 A 
ATOM     30  C   UNL     1      -3.273   8.534   3.943  0.00  0.00    +0.079 A 
ATOM     31  S   UNL     1      -2.712   7.205   2.982  0.00  0.00    -0.070 S 
ATOM     32 CL   UNL     1      -2.963  10.228   3.727  0.00  0.00    -0.076 Cl
ENDBRANCH  25  27
ENDBRANCH  24  25
ENDBRANCH  23  24
ENDBRANCH   2  23
TORSDOF 9
