REMARK  Name = ZINC49508689
REMARK  7 active torsions:
REMARK  status: ('A' for Active; 'I' for Inactive)
REMARK    1  A    between atoms: C_1  and  N_2
REMARK    2  A    between atoms: C_10  and  C_12
REMARK    3  A    between atoms: C_12  and  C_14
REMARK    4  A    between atoms: C_12  and  N_35
REMARK    5  A    between atoms: C_14  and  N_15
REMARK    6  A    between atoms: C_16  and  C_18
REMARK    7  A    between atoms: N_20  and  C_21
REMARK                            x       y       z     vdW  Elec       q    Type
REMARK                         _______ _______ _______ _____ _____    ______ ____
ROOT
ATOM      1  N   UNL     1       4.223  -3.757  -2.436  0.00  0.00    -0.309 N 
ATOM      2  C   UNL     1       4.330  -3.977  -3.761  0.00  0.00    +0.299 C 
ATOM      3  O   UNL     1       5.236  -3.471  -4.390  0.00  0.00    -0.265 OA
ATOM      4  H   UNL     1       3.499  -4.161  -1.934  0.00  0.00    +0.149 HD
ENDROOT
BRANCH   2   5
ATOM      5  C   UNL     1       3.332  -4.844  -4.457  0.00  0.00    +0.303 C 
ATOM      6  O   UNL     1       2.425  -5.350  -3.828  0.00  0.00    -0.265 OA
ATOM      7  N   UNL     1       3.438  -5.064  -5.782  0.00  0.00    -0.278 N 
ATOM      8  H   UNL     1       4.207  -4.729  -6.269  0.00  0.00    +0.155 HD
BRANCH   7   9
ATOM      9  C   UNL     1       2.441  -5.776  -6.455  0.00  0.00    +0.034 A 
ATOM     10  C   UNL     1       1.114  -5.648  -6.068  0.00  0.00    +0.028 A 
ATOM     11  C   UNL     1       0.122  -6.344  -6.736  0.00  0.00    -0.024 A 
ATOM     12  C   UNL     1       0.457  -7.169  -7.801  0.00  0.00    +0.043 A 
ATOM     13  C   UNL     1       1.787  -7.312  -8.177  0.00  0.00    -0.023 A 
ATOM     14  C   UNL     1       2.774  -6.609  -7.515  0.00  0.00    +0.028 A 
ATOM     15  C   UNL     1       2.167  -8.246  -9.296  0.00  0.00    +0.046 C 
ATOM     16  C   UNL     1       1.060  -8.277 -10.348  0.00  0.00    +0.101 C 
ATOM     17  C   UNL     1      -0.275  -8.457  -9.677  0.00  0.00    +0.220 C 
ATOM     18  O   UNL     1      -1.126  -9.138 -10.209  0.00  0.00    -0.275 OA
ATOM     19  N   UNL     1      -0.536  -7.872  -8.496  0.00  0.00    -0.271 N 
ATOM     20  C   UNL     1      -1.884  -7.968  -7.918  0.00  0.00    +0.114 C 
ATOM     21  C   UNL     1      -2.270  -6.577  -7.399  0.00  0.00    +0.024 C 
ATOM     22  C   UNL     1      -1.305  -6.183  -6.282  0.00  0.00    +0.038 C 
ENDBRANCH   7   9
ENDBRANCH   2   5
BRANCH   1  23
ATOM     23  C   UNL     1       5.202  -2.907  -1.754  0.00  0.00    +0.094 C 
BRANCH  23  24
ATOM     24  C   UNL     1       4.785  -2.720  -0.294  0.00  0.00    -0.020 C 
BRANCH  24  34
ATOM     25  C   UNL     1      -0.339   1.308   0.040  0.00  0.00    +0.129 C 
ATOM     26  N   UNL     1      -0.268  -0.151  -0.080  0.00  0.00    -0.333 N 
ATOM     27  C   UNL     1      -1.495  -0.955  -0.153  0.00  0.00    +0.105 C 
ATOM     28  C   UNL     1      -1.321  -2.161   0.779  0.00  0.00    +0.024 C 
ATOM     29  C   UNL     1      -0.167  -3.020   0.264  0.00  0.00    +0.038 C 
ATOM     30  C   UNL     1       1.059  -2.175   0.037  0.00  0.00    -0.026 A 
ATOM     31  C   UNL     1       0.971  -0.800  -0.133  0.00  0.00    +0.033 A 
ATOM     32  C   UNL     1       2.120  -0.050  -0.352  0.00  0.00    +0.023 A 
ATOM     33  C   UNL     1       3.352  -0.671  -0.404  0.00  0.00    +0.004 A 
ATOM     34  C   UNL     1       3.441  -2.041  -0.238  0.00  0.00    -0.059 A 
ATOM     35  C   UNL     1       2.298  -2.790  -0.010  0.00  0.00    +0.007 A 
ENDBRANCH  24  34
BRANCH  24  36
ATOM     36  N   UNL     1       5.781  -1.890   0.398  0.00  0.00    +0.385 N 
ATOM     37  C   UNL     1       7.110  -2.494   0.244  0.00  0.00    -0.078 C 
ATOM     38  C   UNL     1       8.162  -1.592   0.893  0.00  0.00    -0.019 C 
ATOM     39  C   UNL     1       7.841  -1.431   2.382  0.00  0.00    -0.004 C 
ATOM     40  C   UNL     1       6.424  -0.870   2.531  0.00  0.00    -0.019 C 
ATOM     41  C   UNL     1       5.436  -1.798   1.821  0.00  0.00    -0.078 C 
ATOM     42  H   UNL     1       5.786  -0.965  -0.006  0.00  0.00    -0.081 HD
ENDBRANCH  24  36
ENDBRANCH  23  24
ENDBRANCH   1  23
TORSDOF 6
