REMARK  Name = ZINC14475823
REMARK  5 active torsions:
REMARK  status: ('A' for Active; 'I' for Inactive)
REMARK    1  A    between atoms: C_3  and  O_36
REMARK    2  A    between atoms: C_4  and  C_10
REMARK    3  A    between atoms: C_6  and  N_7
REMARK    4  A    between atoms: C_21  and  S_26
REMARK    5  A    between atoms: S_26  and  N_29
REMARK                            x       y       z     vdW  Elec       q    Type
REMARK                         _______ _______ _______ _____ _____    ______ ____
ROOT
ATOM      1  C   UNL     1       2.729  -3.251  -3.174  0.00  0.00    +0.108 C 
ATOM      2  C   UNL     1       2.716  -2.703  -4.604  0.00  0.00    +0.029 C 
ATOM      3  C   UNL     1       4.147  -2.171  -4.909  0.00  0.00    +0.033 C 
ATOM      4  C   UNL     1       4.149  -0.788  -4.287  0.00  0.00    -0.030 C 
ATOM      5  C   UNL     1       2.923  -0.347  -4.146  0.00  0.00    -0.023 C 
ATOM      6  C   UNL     1       1.937  -1.374  -4.649  0.00  0.00    +0.049 C 
ATOM      7  C   UNL     1       0.696  -1.395  -3.814  0.00  0.00    -0.018 A 
ATOM      8  C   UNL     1      -0.226  -0.369  -3.964  0.00  0.00    +0.034 A 
ATOM      9  C   UNL     1      -1.382  -0.349  -3.211  0.00  0.00    +0.106 A 
ATOM     10  C   UNL     1      -1.640  -1.359  -2.302  0.00  0.00    +0.030 A 
ATOM     11  C   UNL     1      -0.732  -2.388  -2.147  0.00  0.00    +0.025 A 
ATOM     12  C   UNL     1       0.434  -2.405  -2.901  0.00  0.00    +0.031 A 
ATOM     13  N   UNL     1       1.346  -3.453  -2.730  0.00  0.00    -0.336 N 
ATOM     14  H   UNL     1       1.048  -4.409  -2.275  0.00  0.00    +0.147 HD
ENDROOT
BRANCH   1  18
ATOM     15  C   UNL     1       4.672  -0.456  -0.587  0.00  0.00    +0.036 A 
ATOM     16  C   UNL     1       3.316  -0.687  -0.454  0.00  0.00    +0.048 A 
ATOM     17  C   UNL     1       2.683  -1.594  -1.292  0.00  0.00    +0.122 A 
ATOM     18  C   UNL     1       3.414  -2.266  -2.262  0.00  0.00    +0.017 A 
ATOM     19  C   UNL     1       4.770  -2.035  -2.386  0.00  0.00    +0.041 A 
ATOM     20  C   UNL     1       5.397  -1.126  -1.554  0.00  0.00    +0.127 A 
BRANCH  20  21
ATOM     21  N   UNL     1       6.849  -0.876  -1.694  0.00  0.00    +0.056 N 
ATOM     22  O   UNL     1       7.422  -0.151  -0.900  0.00  0.00    -0.126 OA
ATOM     23  O   UNL     1       7.472  -1.395  -2.603  0.00  0.00    -0.126 OA
ENDBRANCH  20  21
BRANCH  17  24
ATOM     24  O   UNL     1       1.350  -1.823  -1.163  0.00  0.00    -0.506 OA
ATOM     25  H   UNL     1       0.849  -2.542  -1.828  0.00  0.00    +0.292 HD
ENDBRANCH  17  24
ENDBRANCH   1  18
BRANCH   9  26
ATOM     26  S   UNL     1      -2.538   0.966  -3.412  0.00  0.00    +0.061 S 
ATOM     27  O   UNL     1      -3.774   0.504  -2.886  0.00  0.00    -0.153 OA
ATOM     28  O   UNL     1      -2.402   1.424  -4.750  0.00  0.00    -0.153 OA
BRANCH  26  29
ATOM     29  N   UNL     1      -2.042   2.208  -2.434  0.00  0.00    -0.177 NA
ATOM     30  C   UNL     1      -1.065   3.152  -2.894  0.00  0.00    +0.109 C 
ATOM     31  C   UNL     1       0.416   2.778  -2.639  0.00  0.00    +0.017 C 
ATOM     32  C   UNL     1       0.576   2.168  -1.225  0.00  0.00    +0.001 C 
ATOM     33  C   UNL     1      -0.295   2.885  -0.234  0.00  0.00    +0.001 C 
ATOM     34  C   UNL     1      -1.549   2.028  -0.102  0.00  0.00    +0.017 C 
ATOM     35  C   UNL     1      -2.608   2.363  -1.052  0.00  0.00    +0.109 C 
ENDBRANCH  26  29
ENDBRANCH   9  26
TORSDOF 5
