REMARK  Name = ZINC39420607
REMARK  7 active torsions:
REMARK  status: ('A' for Active; 'I' for Inactive)
REMARK    1  A    between atoms: C_1  and  C_2
REMARK    2  A    between atoms: C_2  and  C_3
REMARK    3  A    between atoms: C_4  and  C_25
REMARK    4  A    between atoms: C_5  and  C_9
REMARK    5  A    between atoms: C_9  and  N_10
REMARK    6  A    between atoms: N_13  and  C_16
REMARK    7  A    between atoms: C_22  and  O_24
REMARK                            x       y       z     vdW  Elec       q    Type
REMARK                         _______ _______ _______ _____ _____    ______ ____
ROOT
ATOM      1  N   UNL     1      -5.839  -0.825  -0.446  0.00  0.00    +0.383 N 
ATOM      2  C   UNL     1      -6.190  -2.196  -0.837  0.00  0.00    -0.063 C 
ATOM      3  C   UNL     1      -7.503  -2.598  -0.162  0.00  0.00    +0.066 C 
ATOM      4  N   UNL     1      -8.565  -1.667  -0.569  0.00  0.00    -0.300 NA
ATOM      5  C   UNL     1      -8.216  -0.286  -0.206  0.00  0.00    +0.066 C 
ATOM      6  C   UNL     1      -6.897   0.097  -0.881  0.00  0.00    -0.063 C 
ATOM      7  H   UNL     1      -5.742  -0.775   0.557  0.00  0.00    -0.082 HD
ENDROOT
BRANCH   4   8
ATOM      8  C   UNL     1      -9.857  -2.054   0.015  0.00  0.00    +0.085 C 
ATOM      9  C   UNL     1      -9.830  -1.802   1.524  0.00  0.00    +0.021 C 
ATOM     10  C   UNL     1     -11.175  -2.205   2.131  0.00  0.00    +0.002 C 
ATOM     11  C   UNL     1     -12.292  -1.374   1.496  0.00  0.00    +0.003 C 
ATOM     12  C   UNL     1     -12.318  -1.625  -0.013  0.00  0.00    +0.033 C 
ATOM     13  C   UNL     1     -10.973  -1.222  -0.621  0.00  0.00    +0.132 C 
BRANCH  13  14
ATOM     14  O   UNL     1     -10.998  -1.457  -2.030  0.00  0.00    -0.390 OA
ATOM     15  H   UNL     1     -11.683  -0.961  -2.500  0.00  0.00    +0.210 HD
ENDBRANCH  13  14
ENDBRANCH   4   8
BRANCH   1  16
ATOM     16  C   UNL     1      -4.569  -0.445  -1.080  0.00  0.00    -0.045 C 
BRANCH  16  19
ATOM     17  C   UNL     1      -1.412  -0.526   0.013  0.00  0.00    +0.064 C 
ATOM     18  C   UNL     1      -2.098  -0.877  -1.077  0.00  0.00    -0.026 C 
ATOM     19  C   UNL     1      -3.443  -1.325  -0.533  0.00  0.00    +0.139 C 
ATOM     20  N   UNL     1      -3.291  -1.139   0.920  0.00  0.00    -0.181 NA
ATOM     21  N   UNL     1      -2.154  -0.707   1.127  0.00  0.00    -0.159 NA
ATOM     22  C   UNL     1      -1.644  -0.837  -2.513  0.00  0.00    +0.043 C 
BRANCH  17  24
ATOM     23  C   UNL     1      -0.019   1.526   0.010  0.00  0.00    +0.010 C 
ATOM     24  C   UNL     1       0.002  -0.004   0.002  0.00  0.00    +0.054 C 
ENDBRANCH  17  24
ENDBRANCH  16  19
ENDBRANCH   1  16
TORSDOF 5
