REMARK  Name = ZINC63557439
REMARK  12 active torsions:
REMARK  status: ('A' for Active; 'I' for Inactive)
REMARK    1  A    between atoms: C_1  and  C_2
REMARK    2  A    between atoms: C_8  and  C_11
REMARK    3  A    between atoms: C_11  and  C_12
REMARK    4  A    between atoms: C_12  and  N_13
REMARK    5  A    between atoms: C_15  and  C_20
REMARK    6  A    between atoms: N_22  and  C_23
REMARK    7  A    between atoms: C_25  and  O_33
REMARK    8  A    between atoms: C_26  and  O_31
REMARK    9  A    between atoms: C_27  and  O_29
REMARK   10  A    between atoms: O_29  and  C_30
REMARK   11  A    between atoms: O_31  and  C_32
REMARK   12  A    between atoms: O_33  and  C_34
REMARK                            x       y       z     vdW  Elec       q    Type
REMARK                         _______ _______ _______ _____ _____    ______ ____
ROOT
ATOM      1  N   UNL     1      -1.366  -2.596   5.613  0.00  0.00    -0.300 N 
ATOM      2  C   UNL     1      -1.246  -3.641   6.637  0.00  0.00    +0.121 C 
ATOM      3  C   UNL     1      -1.723  -2.986   7.952  0.00  0.00    +0.101 C 
ATOM      4  C   UNL     1      -1.445  -1.490   7.678  0.00  0.00    +0.110 C 
ATOM      5  C   UNL     1      -1.468  -1.377   6.170  0.00  0.00    +0.216 C 
ATOM      6  O   UNL     1      -1.566  -0.338   5.552  0.00  0.00    -0.276 OA
ENDROOT
BRANCH   3   7
ATOM      7  C   UNL     1      -0.915  -3.480   9.124  0.00  0.00    +0.222 C 
ATOM      8  O   UNL     1      -0.027  -4.288   8.951  0.00  0.00    -0.275 OA
ATOM      9  N   UNL     1      -1.180  -3.025  10.365  0.00  0.00    -0.285 N 
ATOM     10  H   UNL     1      -1.844  -2.330  10.495  0.00  0.00    +0.155 HD
BRANCH   9  11
ATOM     11  C   UNL     1      -0.495  -3.554  11.466  0.00  0.00    +0.041 A 
ATOM     12  C   UNL     1      -1.148  -3.705  12.682  0.00  0.00    +0.073 A 
ATOM     13  C   UNL     1      -0.472  -4.229  13.772  0.00  0.00    +0.167 A 
ATOM     14  C   UNL     1       0.861  -4.603  13.648  0.00  0.00    +0.204 A 
ATOM     15  C   UNL     1       1.514  -4.452  12.431  0.00  0.00    +0.167 A 
ATOM     16  C   UNL     1       0.834  -3.933  11.340  0.00  0.00    +0.073 A 
BRANCH  15  17
ATOM     17  O   UNL     1       2.818  -4.817  12.309  0.00  0.00    -0.491 OA
ATOM     18  C   UNL     1       3.426  -4.634  11.029  0.00  0.00    +0.277 C 
ENDBRANCH  15  17
BRANCH  14  19
ATOM     19  O   UNL     1       1.526  -5.117  14.719  0.00  0.00    -0.488 OA
ATOM     20  C   UNL     1       1.482  -6.535  14.890  0.00  0.00    +0.277 C 
ENDBRANCH  14  19
BRANCH  13  21
ATOM     21  O   UNL     1      -1.112  -4.376  14.963  0.00  0.00    -0.491 OA
ATOM     22  C   UNL     1      -2.481  -3.970  15.018  0.00  0.00    +0.277 C 
ENDBRANCH  13  21
ENDBRANCH   9  11
ENDBRANCH   3   7
BRANCH   1  23
ATOM     23  C   UNL     1      -1.368  -2.849   4.170  0.00  0.00    +0.112 C 
BRANCH  23  24
ATOM     24  C   UNL     1       0.068  -2.806   3.643  0.00  0.00    +0.052 C 
BRANCH  24  32
ATOM     25  C   UNL     1       0.033   1.499   0.014  0.00  0.00    +0.044 C 
ATOM     26  C   UNL     1       0.042  -0.008   0.005  0.00  0.00    -0.050 A 
ATOM     27  C   UNL     1       0.042  -0.683  -1.223  0.00  0.00    +0.005 A 
ATOM     28  C   UNL     1       0.050  -2.030  -1.315  0.00  0.00    +0.026 A 
ATOM     29  C   UNL     1       0.058  -2.831  -0.139  0.00  0.00    +0.043 A 
ATOM     30  N   UNL     1       0.065  -4.130   0.032  0.00  0.00    -0.380 N 
ATOM     31  C   UNL     1       0.071  -4.413   1.471  0.00  0.00    +0.144 C 
ATOM     32  C   UNL     1       0.066  -3.066   2.158  0.00  0.00    -0.040 C 
ATOM     33  C   UNL     1       0.058  -2.142   1.171  0.00  0.00    -0.001 A 
ATOM     34  C   UNL     1       0.055  -0.674   1.183  0.00  0.00    +0.013 A 
ATOM     35  H   UNL     1       0.067  -4.794  -0.676  0.00  0.00    +0.160 HD
ENDBRANCH  24  32
ENDBRANCH  23  24
ENDBRANCH   1  23
TORSDOF 8
