REMARK  Name = ZINC15988690
REMARK  8 active torsions:
REMARK  status: ('A' for Active; 'I' for Inactive)
REMARK    1  A    between atoms: C_4  and  S_7
REMARK    2  A    between atoms: S_7  and  C_10
REMARK    3  A    between atoms: C_10  and  C_11
REMARK    4  A    between atoms: C_14  and  C_16
REMARK    5  A    between atoms: N_18  and  C_19
REMARK    6  A    between atoms: C_19  and  C_20
REMARK    7  A    between atoms: C_20  and  C_22
REMARK    8  A    between atoms: C_20  and  N_57
REMARK                            x       y       z     vdW  Elec       q    Type
REMARK                         _______ _______ _______ _____ _____    ______ ____
ROOT
ATOM      1  C   UNL     1       1.753   4.618  -0.861  0.00  0.00    +0.279 C 
ATOM      2  O   UNL     1       2.940   4.707  -1.112  0.00  0.00    -0.267 OA
ATOM      3  N   UNL     1       1.057   5.712  -0.493  0.00  0.00    -0.310 N 
ATOM      4  H   UNL     1       0.111   5.640  -0.293  0.00  0.00    +0.149 HD
ENDROOT
BRANCH   1   8
ATOM      5  C   UNL     1      -0.486   1.782  -0.904  0.00  0.00    +0.127 A 
ATOM      6  C   UNL     1       0.655   1.161  -1.276  0.00  0.00    +0.047 A 
ATOM      7  C   UNL     1       1.663   2.137  -1.316  0.00  0.00    +0.055 A 
ATOM      8  C   UNL     1       1.079   3.318  -0.957  0.00  0.00    +0.189 A 
ATOM      9  O   UNL     1      -0.225   3.081  -0.708  0.00  0.00    -0.453 OA
BRANCH   5  10
ATOM     10  C   UNL     1      -1.830   1.122  -0.735  0.00  0.00    +0.245 C 
BRANCH  10  11
ATOM     11  S   UNL     1      -2.007   0.541   0.974  0.00  0.00    +0.004 S 
ATOM     12  O   UNL     1      -1.101  -0.524   1.225  0.00  0.00    -0.169 OA
ATOM     13  O   UNL     1      -2.088   1.648   1.862  0.00  0.00    -0.169 OA
BRANCH  11  17
ATOM     14  C   UNL     1      -6.108  -1.369   1.134  0.00  0.00    +0.000 A 
ATOM     15  C   UNL     1      -5.004  -2.131   0.801  0.00  0.00    +0.002 A 
ATOM     16  C   UNL     1      -3.752  -1.547   0.752  0.00  0.00    +0.027 A 
ATOM     17  C   UNL     1      -3.604  -0.203   1.036  0.00  0.00    +0.089 A 
ATOM     18  C   UNL     1      -4.708   0.558   1.375  0.00  0.00    +0.027 A 
ATOM     19  C   UNL     1      -5.961  -0.024   1.419  0.00  0.00    +0.002 A 
ENDBRANCH  11  17
ENDBRANCH  10  11
ENDBRANCH   5  10
ENDBRANCH   1   8
BRANCH   3  20
ATOM     20  C   UNL     1       1.730   7.010  -0.397  0.00  0.00    +0.097 C 
BRANCH  20  21
ATOM     21  C   UNL     1       0.722   8.076   0.036  0.00  0.00    +0.016 C 
BRANCH  21  27
ATOM     22  C   UNL     1       0.025   8.290  -2.272  0.00  0.00    -0.078 C 
ATOM     23  C   UNL     1      -1.166   8.139  -3.221  0.00  0.00    -0.019 C 
ATOM     24  C   UNL     1      -2.244   9.160  -2.847  0.00  0.00    -0.004 C 
ATOM     25  C   UNL     1      -2.654   8.945  -1.387  0.00  0.00    -0.019 C 
ATOM     26  C   UNL     1      -1.420   9.073  -0.491  0.00  0.00    -0.078 C 
ATOM     27  N   UNL     1      -0.431   8.048  -0.887  0.00  0.00    +0.387 N 
ATOM     28  H   UNL     1      -0.874   7.123  -0.839  0.00  0.00    -0.081 HD
ENDBRANCH  21  27
BRANCH  21  29
ATOM     29  C   UNL     1       1.383   9.430   0.017  0.00  0.00    +0.093 A 
ATOM     30  C   UNL     1       1.733  10.150   1.098  0.00  0.00    +0.043 A 
ATOM     31  C   UNL     1       2.321  11.345   0.622  0.00  0.00    +0.041 A 
ATOM     32  C   UNL     1       2.287  11.287  -0.722  0.00  0.00    +0.195 A 
ATOM     33  O   UNL     1       1.718  10.125  -1.083  0.00  0.00    -0.469 OA
ENDBRANCH  21  29
ENDBRANCH  20  21
ENDBRANCH   3  20
TORSDOF 8
