REMARK  Name = ZINC32593966
REMARK  7 active torsions:
REMARK  status: ('A' for Active; 'I' for Inactive)
REMARK    1  A    between atoms: C_1  and  C_2
REMARK    2  A    between atoms: C_5  and  C_8
REMARK    3  A    between atoms: C_8  and  C_10
REMARK    4  A    between atoms: C_8  and  N_29
REMARK    5  A    between atoms: C_10  and  N_11
REMARK    6  A    between atoms: C_12  and  C_14
REMARK    7  A    between atoms: C_16  and  C_19
REMARK                            x       y       z     vdW  Elec       q    Type
REMARK                         _______ _______ _______ _____ _____    ______ ____
ROOT
ATOM      1  N   UNL     1      -7.940  -2.569  -0.040  0.00  0.00    -0.311 N 
ATOM      2  C   UNL     1      -7.284  -1.392  -0.088  0.00  0.00    +0.266 C 
ATOM      3  O   UNL     1      -7.907  -0.350  -0.121  0.00  0.00    -0.268 OA
ATOM      4  H   UNL     1      -7.376  -3.512  -0.011  0.00  0.00    +0.149 HD
ENDROOT
BRANCH   2   5
ATOM      5  C   UNL     1      -5.801  -1.371  -0.100  0.00  0.00    +0.168 A 
ATOM      6  C   UNL     1      -4.967  -0.223  -0.143  0.00  0.00    +0.086 A 
ATOM      7  C   UNL     1      -3.700  -0.739  -0.140  0.00  0.00    +0.168 A 
ATOM      8  O   UNL     1      -3.836  -2.076  -0.090  0.00  0.00    -0.354 OA
ATOM      9  N   UNL     1      -4.999  -2.407  -0.069  0.00  0.00    -0.073 NA
BRANCH   7  10
ATOM     10  C   UNL     1      -2.434   0.021  -0.177  0.00  0.00    +0.024 A 
ATOM     11  C   UNL     1      -2.456   1.416  -0.228  0.00  0.00    +0.015 A 
ATOM     12  C   UNL     1      -1.274   2.123  -0.268  0.00  0.00    +0.050 A 
ATOM     13  C   UNL     1      -0.057   1.453  -0.251  0.00  0.00    +0.162 A 
ATOM     14  C   UNL     1      -0.028   0.062  -0.198  0.00  0.00    +0.163 A 
ATOM     15  C   UNL     1      -1.212  -0.653  -0.162  0.00  0.00    +0.061 A 
ATOM     16  O   UNL     1       1.156  -0.610  -0.179  0.00  0.00    -0.485 OA
ATOM     17  C   UNL     1       2.316   0.120  -0.594  0.00  0.00    +0.270 C 
ATOM     18  C   UNL     1       2.295   1.489   0.099  0.00  0.00    +0.270 C 
ATOM     19  O   UNL     1       1.098   2.171  -0.292  0.00  0.00    -0.485 OA
ENDBRANCH   7  10
ENDBRANCH   2   5
BRANCH   1  20
ATOM     20  C   UNL     1      -9.405  -2.590  -0.028  0.00  0.00    +0.094 C 
BRANCH  20  21
ATOM     21  C   UNL     1      -9.893  -4.039   0.028  0.00  0.00    -0.020 C 
BRANCH  21  26
ATOM     22  C   UNL     1     -15.648  -4.114   0.551  0.00  0.00    +0.044 C 
ATOM     23  C   UNL     1     -14.147  -4.094   0.414  0.00  0.00    -0.050 A 
ATOM     24  C   UNL     1     -13.406  -3.130   1.072  0.00  0.00    +0.003 A 
ATOM     25  C   UNL     1     -12.029  -3.112   0.947  0.00  0.00    +0.002 A 
ATOM     26  C   UNL     1     -11.394  -4.059   0.165  0.00  0.00    -0.059 A 
ATOM     27  C   UNL     1     -12.135  -5.019  -0.497  0.00  0.00    +0.002 A 
ATOM     28  C   UNL     1     -13.512  -5.040  -0.368  0.00  0.00    +0.003 A 
ENDBRANCH  21  26
BRANCH  21  29
ATOM     29  N   UNL     1      -9.288  -4.715   1.183  0.00  0.00    +0.385 N 
ATOM     30  C   UNL     1      -9.801  -4.153   2.458  0.00  0.00    -0.078 C 
ATOM     31  C   UNL     1      -9.499  -5.272   3.486  0.00  0.00    -0.020 C 
ATOM     32  C   UNL     1      -9.772  -6.564   2.681  0.00  0.00    -0.020 C 
ATOM     33  C   UNL     1      -9.643  -6.151   1.203  0.00  0.00    -0.078 C 
ATOM     34  H   UNL     1      -8.202  -4.571   1.080  0.00  0.00    -0.081 HD
ENDBRANCH  21  29
ENDBRANCH  20  21
ENDBRANCH   1  20
TORSDOF 6
