REMARK  Name = ZINC05379301
REMARK  8 active torsions:
REMARK  status: ('A' for Active; 'I' for Inactive)
REMARK    1  A    between atoms: C_1  and  C_2
REMARK    2  A    between atoms: C_4  and  C_9
REMARK    3  A    between atoms: C_7  and  N_8
REMARK    4  A    between atoms: C_9  and  C_11
REMARK    5  A    between atoms: C_9  and  N_25
REMARK    6  A    between atoms: C_11  and  C_12
REMARK    7  A    between atoms: C_11  and  C_18
REMARK    8  A    between atoms: C_11  and  O_24
REMARK                            x       y       z     vdW  Elec       q    Type
REMARK                         _______ _______ _______ _____ _____    ______ ____
ROOT
ATOM      1  C   UNL     1       0.029  -2.884  -2.433  0.00  0.00    +0.181 C 
ENDROOT
BRANCH   1   2
ATOM      2  N   UNL     1       1.236  -3.712  -2.488  0.00  0.00    -0.233 N 
ATOM      3  C   UNL     1       2.224  -3.666  -3.444  0.00  0.00    +0.090 A 
ATOM      4  C   UNL     1       2.425  -2.902  -4.588  0.00  0.00    +0.029 A 
ATOM      5  C   UNL     1       3.541  -3.102  -5.351  0.00  0.00    +0.002 A 
ATOM      6  C   UNL     1       4.478  -4.064  -4.994  0.00  0.00    +0.002 A 
ATOM      7  C   UNL     1       4.304  -4.825  -3.876  0.00  0.00    +0.032 A 
ATOM      8  C   UNL     1       3.168  -4.639  -3.076  0.00  0.00    +0.113 A 
ATOM      9  N   UNL     1       2.732  -5.225  -1.943  0.00  0.00    -0.129 NA
ATOM     10  N   UNL     1       1.616  -4.705  -1.572  0.00  0.00    -0.064 NA
ENDBRANCH   1   2
BRANCH   1  14
ATOM     11  C   UNL     1      -0.018   1.503   0.010  0.00  0.00    +0.047 C 
ATOM     12  C   UNL     1       0.002  -0.004   0.002  0.00  0.00    -0.012 A 
ATOM     13  C   UNL     1       0.006  -0.699  -1.194  0.00  0.00    +0.014 A 
ATOM     14  C   UNL     1       0.025  -2.086  -1.155  0.00  0.00    -0.003 A 
ATOM     15  C   UNL     1       0.039  -2.728   0.068  0.00  0.00    +0.090 A 
ATOM     16  N   UNL     1       0.035  -2.040   1.193  0.00  0.00    -0.349 N 
ATOM     17  C   UNL     1       0.023  -0.715   1.197  0.00  0.00    +0.096 A 
ATOM     18  H   UNL     1       0.045  -2.515   2.038  0.00  0.00    +0.167 HD
BRANCH  17  19
ATOM     19  N   UNL     1       0.025  -0.030   2.407  0.00  0.00    -0.344 N 
ATOM     20  H   UNL     1       0.012   0.940   2.415  0.00  0.00    +0.144 HD
ATOM     21  H   UNL     1       0.040  -0.522   3.243  0.00  0.00    +0.144 HD
ENDBRANCH  17  19
ENDBRANCH   1  14
BRANCH   1  22
ATOM     22  C   UNL     1      -1.208  -3.783  -2.478  0.00  0.00    +0.142 C 
BRANCH  22  23
ATOM     23  C   UNL     1      -2.450  -2.931  -2.422  0.00  0.00    -0.009 A 
ATOM     24  C   UNL     1      -2.437  -1.655  -2.953  0.00  0.00    +0.007 A 
ATOM     25  C   UNL     1      -3.576  -0.873  -2.901  0.00  0.00    +0.000 A 
ATOM     26  C   UNL     1      -4.728  -1.368  -2.319  0.00  0.00    +0.000 A 
ATOM     27  C   UNL     1      -4.741  -2.645  -1.789  0.00  0.00    +0.000 A 
ATOM     28  C   UNL     1      -3.603  -3.428  -1.844  0.00  0.00    +0.007 A 
ENDBRANCH  22  23
BRANCH  22  29
ATOM     29  C   UNL     1      -1.204  -4.581  -3.756  0.00  0.00    -0.009 A 
ATOM     30  C   UNL     1      -0.613  -4.061  -4.893  0.00  0.00    +0.007 A 
ATOM     31  C   UNL     1      -0.609  -4.793  -6.066  0.00  0.00    +0.000 A 
ATOM     32  C   UNL     1      -1.195  -6.045  -6.102  0.00  0.00    +0.000 A 
ATOM     33  C   UNL     1      -1.785  -6.564  -4.965  0.00  0.00    +0.000 A 
ATOM     34  C   UNL     1      -1.786  -5.834  -3.791  0.00  0.00    +0.007 A 
ENDBRANCH  22  29
BRANCH  22  35
ATOM     35  O   UNL     1      -1.190  -4.673  -1.361  0.00  0.00    -0.377 OA
ATOM     36  H   UNL     1      -1.947  -5.274  -1.325  0.00  0.00    +0.211 HD
ENDBRANCH  22  35
ENDBRANCH   1  22
TORSDOF 7
