REMARK  Name = ZINC39669611
REMARK  7 active torsions:
REMARK  status: ('A' for Active; 'I' for Inactive)
REMARK    1  A    between atoms: C_1  and  C_2
REMARK    2  A    between atoms: C_2  and  C_3
REMARK    3  A    between atoms: C_2  and  C_4
REMARK    4  A    between atoms: C_2  and  N_29
REMARK    5  A    between atoms: C_4  and  N_5
REMARK    6  A    between atoms: C_6  and  C_8
REMARK    7  A    between atoms: C_19  and  C_21
REMARK                            x       y       z     vdW  Elec       q    Type
REMARK                         _______ _______ _______ _____ _____    ______ ____
ROOT
ATOM      1  C   UNL     1      -3.380  -4.125  -0.099  0.00  0.00    +0.100 C 
ATOM      2  C   UNL     1      -2.837  -4.773   1.195  0.00  0.00    +0.121 C 
ATOM      3  N   UNL     1      -4.018  -4.876   2.085  0.00  0.00    -0.296 N 
ATOM      4  C   UNL     1      -5.128  -5.265   1.183  0.00  0.00    +0.115 C 
ATOM      5  C   UNL     1      -4.882  -4.454  -0.105  0.00  0.00    -0.004 C 
ATOM      6  C   UNL     1      -5.235  -5.291  -1.332  0.00  0.00    -0.010 C 
ATOM      7  C   UNL     1      -6.743  -5.555  -1.347  0.00  0.00    -0.082 C 
ATOM      8  N   UNL     1      -7.466  -4.278  -1.376  0.00  0.00    +0.379 N 
ATOM      9  C   UNL     1      -7.194  -3.520  -0.149  0.00  0.00    -0.082 C 
ATOM     10  C   UNL     1      -5.705  -3.169  -0.083  0.00  0.00    -0.010 C 
ATOM     11  C   UNL     1      -4.070  -4.664   3.415  0.00  0.00    +0.252 C 
ATOM     12  O   UNL     1      -5.123  -4.790   4.010  0.00  0.00    -0.270 OA
ATOM     13  H   UNL     1      -7.165  -3.741  -2.176  0.00  0.00    -0.086 HD
ATOM     14  H   UNL     1      -8.457  -4.455  -1.448  0.00  0.00    -0.086 HD
ENDROOT
BRANCH  11  15
ATOM     15  C   UNL     1      -2.850  -4.279   4.149  0.00  0.00    +0.107 A 
ATOM     16  C   UNL     1      -2.521  -2.928   4.309  0.00  0.00    +0.138 A 
ATOM     17  C   UNL     1      -1.377  -2.576   4.998  0.00  0.00    +0.039 A 
ATOM     18  C   UNL     1      -0.556  -3.555   5.530  0.00  0.00    +0.006 A 
ATOM     19  C   UNL     1      -0.874  -4.892   5.377  0.00  0.00    +0.039 A 
ATOM     20  C   UNL     1      -2.018  -5.262   4.696  0.00  0.00    +0.138 A 
ATOM     21  F   UNL     1      -2.329  -6.569   4.552  0.00  0.00    -0.205 F 
ATOM     22  F   UNL     1      -3.321  -1.971   3.789  0.00  0.00    -0.205 F 
ENDBRANCH  11  15
BRANCH   1  24
ATOM     23  N   UNL     1      -2.990  -1.954  -1.218  0.00  0.00    -0.313 N 
ATOM     24  C   UNL     1      -3.170  -2.634  -0.068  0.00  0.00    +0.218 C 
ATOM     25  O   UNL     1      -3.162  -2.044   0.992  0.00  0.00    -0.275 OA
ATOM     26  H   UNL     1      -2.996  -2.425  -2.066  0.00  0.00    +0.149 HD
BRANCH  23  27
ATOM     27  C   UNL     1      -2.785  -0.504  -1.187  0.00  0.00    +0.126 C 
BRANCH  27  29
ATOM     28  C   UNL     1      -2.661   1.562  -2.588  0.00  0.00    +0.029 C 
ATOM     29  C   UNL     1      -2.727   0.033  -2.619  0.00  0.00    +0.032 C 
ATOM     30  C   UNL     1      -1.482  -0.516  -3.319  0.00  0.00    +0.029 C 
BRANCH  29  31
ATOM     31  N   UNL     1      -3.928  -0.391  -3.350  0.00  0.00    -0.291 NA
ATOM     32  C   UNL     1      -3.838  -0.020  -4.770  0.00  0.00    +0.113 C 
ATOM     33  C   UNL     1      -5.080  -0.532  -5.505  0.00  0.00    +0.175 C 
ATOM     34  O   UNL     1      -6.251  -0.000  -4.880  0.00  0.00    -0.377 OA
ATOM     35  C   UNL     1      -6.370  -0.342  -3.496  0.00  0.00    +0.175 C 
ATOM     36  C   UNL     1      -5.142   0.172  -2.741  0.00  0.00    +0.113 C 
ENDBRANCH  29  31
ENDBRANCH  27  29
ENDBRANCH  23  27
ENDBRANCH   1  24
TORSDOF 5
