REMARK  Name = ZINC41127242
REMARK  3 active torsions:
REMARK  status: ('A' for Active; 'I' for Inactive)
REMARK    1  A    between atoms: C_3  and  C_19
REMARK    2  A    between atoms: C_6  and  C_7
REMARK    3  A    between atoms: C_19  and  C_20
REMARK                            x       y       z     vdW  Elec       q    Type
REMARK                         _______ _______ _______ _____ _____    ______ ____
ROOT
ATOM      1  C   UNL     1      -0.017   1.391   0.010  0.00  0.00    +0.013 A 
ATOM      2  C   UNL     1       1.170   2.095   0.002  0.00  0.00    +0.006 A 
ATOM      3  C   UNL     1       2.378   1.421  -0.013  0.00  0.00    -0.020 A 
ATOM      4  C   UNL     1       2.404   0.036  -0.021  0.00  0.00    +0.045 A 
ATOM      5  C   UNL     1       1.223  -0.680  -0.014  0.00  0.00    +0.033 A 
ATOM      6  C   UNL     1       0.002  -0.004   0.002  0.00  0.00    +0.038 A 
ATOM      7 CL   UNL     1       3.925  -0.801  -0.041  0.00  0.00    -0.083 Cl
ENDROOT
BRANCH   6   8
ATOM      8  C   UNL     1      -1.266  -0.764   0.011  0.00  0.00    +0.229 A 
ATOM      9  N   UNL     1      -2.461  -0.229   0.020  0.00  0.00    -0.209 NA
ATOM     10  C   UNL     1      -3.384  -1.224   0.025  0.00  0.00    +0.113 A 
ATOM     11  C   UNL     1      -4.782  -1.243   0.035  0.00  0.00    +0.051 A 
ATOM     12  C   UNL     1      -5.449  -2.449   0.039  0.00  0.00    +0.045 A 
ATOM     13  C   UNL     1      -4.742  -3.643   0.032  0.00  0.00    +0.043 A 
ATOM     14  C   UNL     1      -3.361  -3.639   0.022  0.00  0.00    +0.087 A 
ATOM     15  C   UNL     1      -2.673  -2.435   0.018  0.00  0.00    +0.174 A 
ATOM     16  O   UNL     1      -1.362  -2.107   0.004  0.00  0.00    -0.434 OA
ATOM     17 CL   UNL     1      -2.488  -5.140   0.015  0.00  0.00    -0.080 Cl
ATOM     18 CL   UNL     1      -7.184  -2.474   0.051  0.00  0.00    -0.083 Cl
ENDBRANCH   6   8
BRANCH   3  19
ATOM     19  C   UNL     1       3.670   2.196  -0.023  0.00  0.00    +0.132 C 
BRANCH  19  20
ATOM     20  C   UNL     1       4.242   2.236   1.371  0.00  0.00    +0.215 C 
ATOM     21  O   UNL     1       3.657   1.688   2.282  0.00  0.00    -0.276 OA
ATOM     22  N   UNL     1       5.402   2.879   1.605  0.00  0.00    -0.329 N 
ATOM     23  H   UNL     1       5.870   3.317   0.876  0.00  0.00    +0.145 HD
ATOM     24  H   UNL     1       5.771   2.905   2.502  0.00  0.00    +0.145 HD
ENDBRANCH  19  20
ENDBRANCH   3  19
TORSDOF 3
