REMARK  Name = ZINC40902292
REMARK  14 active torsions:
REMARK  status: ('A' for Active; 'I' for Inactive)
REMARK    1  A    between atoms: C_1  and  C_2
REMARK    2  A    between atoms: C_2  and  O_3
REMARK    3  A    between atoms: O_3  and  C_4
REMARK    4  A    between atoms: C_4  and  C_6
REMARK    5  A    between atoms: C_7  and  C_22
REMARK    6  A    between atoms: C_10  and  N_11
REMARK    7  A    between atoms: N_11  and  C_12
REMARK    8  A    between atoms: C_12  and  N_14
REMARK    9  A    between atoms: C_15  and  C_17
REMARK   10  A    between atoms: C_17  and  C_18
REMARK   11  A    between atoms: C_18  and  C_19
REMARK   12  A    between atoms: C_18  and  C_20
REMARK   13  A    between atoms: C_18  and  C_21
REMARK   14  A    between atoms: C_26  and  N_28
REMARK                            x       y       z     vdW  Elec       q    Type
REMARK                         _______ _______ _______ _____ _____    ______ ____
ROOT
ATOM      1  C   UNL     1       1.448  -2.344  -2.515  0.00  0.00    +0.095 A 
ATOM      2  C   UNL     1       2.874  -2.622  -2.522  0.00  0.00    +0.005 A 
ATOM      3  C   UNL     1       3.364  -3.124  -3.684  0.00  0.00    +0.056 A 
ATOM      4  S   UNL     1       1.927  -3.214  -4.730  0.00  0.00    -0.080 S 
ATOM      5  C   UNL     1       0.756  -2.626  -3.683  0.00  0.00    +0.086 A 
ENDROOT
BRANCH   2   6
ATOM      6  C   UNL     1       3.735  -2.373  -1.341  0.00  0.00    -0.014 A 
ATOM      7  C   UNL     1       3.687  -1.142  -0.687  0.00  0.00    +0.009 A 
ATOM      8  C   UNL     1       4.491  -0.917   0.412  0.00  0.00    +0.003 A 
ATOM      9  C   UNL     1       5.343  -1.908   0.864  0.00  0.00    +0.033 A 
ATOM     10  C   UNL     1       5.395  -3.131   0.219  0.00  0.00    +0.127 A 
ATOM     11  C   UNL     1       4.591  -3.370  -0.877  0.00  0.00    +0.041 A 
BRANCH  10  12
ATOM     12  N   UNL     1       6.309  -4.186   0.709  0.00  0.00    +0.056 N 
ATOM     13  O   UNL     1       7.011  -3.979   1.672  0.00  0.00    -0.126 OA
ATOM     14  O   UNL     1       6.355  -5.255   0.146  0.00  0.00    -0.126 OA
ENDBRANCH  10  12
ENDBRANCH   2   6
BRANCH   1  15
ATOM     15  C   UNL     1       0.776  -1.800  -1.335  0.00  0.00    +0.342 C 
ATOM     16  O   UNL     1       0.312  -2.552  -0.499  0.00  0.00    -0.245 OA
BRANCH  15  17
ATOM     17  O   UNL     1       0.671  -0.465  -1.174  0.00  0.00    -0.461 OA
BRANCH  17  19
ATOM     18  C   UNL     1      -0.019   1.526   0.010  0.00  0.00    +0.048 C 
ATOM     19  C   UNL     1       0.002  -0.004   0.002  0.00  0.00    +0.229 C 
ENDBRANCH  17  19
ENDBRANCH  15  17
ENDBRANCH   1  15
BRANCH   5  20
ATOM     20  N   UNL     1      -0.596  -2.458  -3.930  0.00  0.00    -0.290 N 
ATOM     21  H   UNL     1      -1.175  -2.104  -3.237  0.00  0.00    +0.154 HD
BRANCH  20  22
ATOM     22  C   UNL     1      -1.107  -2.787  -5.133  0.00  0.00    +0.141 C 
ATOM     23  S   UNL     1      -0.084  -3.412  -6.355  0.00  0.00    -0.018 S 
BRANCH  22  24
ATOM     24  N   UNL     1      -2.423  -2.623  -5.373  0.00  0.00    -0.268 N 
ATOM     25  C   UNL     1      -2.934  -2.952  -6.576  0.00  0.00    +0.219 C 
ATOM     26  O   UNL     1      -2.210  -3.395  -7.442  0.00  0.00    -0.275 OA
ATOM     27  H   UNL     1      -3.002  -2.269  -4.681  0.00  0.00    +0.156 HD
BRANCH  25  28
ATOM     28  C   UNL     1      -4.405  -2.769  -6.845  0.00  0.00    +0.102 C 
BRANCH  28  29
ATOM     29  C   UNL     1      -4.722  -3.215  -8.274  0.00  0.00    -0.029 C 
ATOM     30  C   UNL     1      -4.352  -4.690  -8.443  0.00  0.00    +0.011 C 
ATOM     31  C   UNL     1      -6.216  -3.029  -8.547  0.00  0.00    +0.011 C 
ATOM     32  C   UNL     1      -3.914  -2.370  -9.262  0.00  0.00    +0.011 C 
ENDBRANCH  28  29
ENDBRANCH  25  28
ENDBRANCH  22  24
ENDBRANCH  20  22
ENDBRANCH   5  20
TORSDOF 10
