REMARK  Name = ZINC12775683
REMARK  9 active torsions:
REMARK  status: ('A' for Active; 'I' for Inactive)
REMARK    1  A    between atoms: C_1  and  C_2
REMARK    2  A    between atoms: C_2  and  C_3
REMARK    3  A    between atoms: C_3  and  O_4
REMARK    4  A    between atoms: O_4  and  C_5
REMARK    5  A    between atoms: C_14  and  C_15
REMARK    6  A    between atoms: C_15  and  N_58
REMARK    7  A    between atoms: C_16  and  N_58
REMARK    8  A    between atoms: C_17  and  C_18
REMARK    9  A    between atoms: C_17  and  N_58
REMARK                            x       y       z     vdW  Elec       q    Type
REMARK                         _______ _______ _______ _____ _____    ______ ____
ROOT
ATOM      1  C   UNL     1      -0.908   7.145   2.115  0.00  0.00    -0.095 C 
ATOM      2  N   UNL     1      -1.835   6.204   1.451  0.00  0.00    +0.385 N 
ATOM      3  H   UNL     1      -1.808   5.304   1.944  0.00  0.00    -0.081 HD
ENDROOT
BRANCH   2   4
ATOM      4  C   UNL     1      -1.423   5.995   0.047  0.00  0.00    -0.039 C 
BRANCH   4  14
ATOM      5  C   UNL     1       1.067   5.942   0.023  0.00  0.00    +0.122 A 
ATOM      6  C   UNL     1       2.292   5.268   0.007  0.00  0.00    +0.046 A 
ATOM      7  C   UNL     1       2.342   3.909   0.000  0.00  0.00    +0.012 A 
ATOM      8  C   UNL     1       1.148   3.167   0.008  0.00  0.00    -0.017 A 
ATOM      9  C   UNL     1       1.163   1.762   0.000  0.00  0.00    +0.008 A 
ATOM     10  C   UNL     1      -0.013   1.076   0.008  0.00  0.00    +0.001 A 
ATOM     11  C   UNL     1      -1.235   1.746   0.018  0.00  0.00    +0.001 A 
ATOM     12  C   UNL     1      -1.288   3.105   0.031  0.00  0.00    +0.009 A 
ATOM     13  C   UNL     1      -0.095   3.849   0.024  0.00  0.00    -0.013 A 
ATOM     14  C   UNL     1      -0.112   5.253   0.031  0.00  0.00    -0.015 A 
BRANCH   5  15
ATOM     15  O   UNL     1       1.050   7.301   0.029  0.00  0.00    -0.492 OA
BRANCH  15  16
ATOM     16  C   UNL     1       2.315   7.966   0.020  0.00  0.00    +0.229 C 
BRANCH  16  18
ATOM     17  C   UNL     1       3.449  10.192   0.020  0.00  0.00    +0.007 C 
ATOM     18  C   UNL     1       2.095   9.480   0.029  0.00  0.00    +0.038 C 
ENDBRANCH  16  18
ENDBRANCH  15  16
ENDBRANCH   5  15
ENDBRANCH   4  14
ENDBRANCH   2   4
BRANCH   2  19
ATOM     19  C   UNL     1      -3.214   6.736   1.498  0.00  0.00    -0.003 C 
BRANCH  19  20
ATOM     20  C   UNL     1      -3.687   6.731   2.929  0.00  0.00    +0.094 A 
ATOM     21  N   UNL     1      -4.940   7.168   3.218  0.00  0.00    -0.312 N 
ATOM     22  H   UNL     1      -5.513   7.476   2.498  0.00  0.00    +0.170 HD
ATOM     23  C   UNL     1      -5.405   7.177   4.482  0.00  0.00    +0.260 A 
ATOM     24  O   UNL     1      -6.533   7.567   4.726  0.00  0.00    -0.267 OA
ATOM     25  C   UNL     1      -4.546   6.723   5.535  0.00  0.00    +0.075 A 
ATOM     26  C   UNL     1      -4.837   6.652   6.975  0.00  0.00    -0.023 A 
ATOM     27  C   UNL     1      -3.859   6.184   7.769  0.00  0.00    -0.004 A 
ATOM     28  S   UNL     1      -2.510   5.817   6.670  0.00  0.00    -0.073 S 
ATOM     29  C   UNL     1      -3.271   6.296   5.142  0.00  0.00    +0.116 A 
ATOM     30  N   UNL     1      -2.882   6.312   3.869  0.00  0.00    -0.229 NA
ATOM     31  C   UNL     1      -4.270   6.151   9.217  0.00  0.00    +0.043 C 
ATOM     32  C   UNL     1      -5.811   6.261   9.184  0.00  0.00    +0.010 C 
ATOM     33  C   UNL     1      -6.045   6.996   7.850  0.00  0.00    +0.037 C 
ENDBRANCH  19  20
ENDBRANCH   2  19
TORSDOF 7
