REMARK  Name = ZINC58481907
REMARK  3 active torsions:
REMARK  status: ('A' for Active; 'I' for Inactive)
REMARK    1  A    between atoms: C_4  and  N_7
REMARK    2  A    between atoms: C_8  and  C_17
REMARK    3  A    between atoms: C_10  and  C_12
REMARK                            x       y       z     vdW  Elec       q    Type
REMARK                         _______ _______ _______ _____ _____    ______ ____
ROOT
ATOM      1  N   UNL     1       3.628  -0.640  -0.023  0.00  0.00    -0.227 N 
ATOM      2  C   UNL     1       3.918  -1.792   0.661  0.00  0.00    +0.130 A 
ATOM      3  C   UNL     1       5.213  -2.140   0.347  0.00  0.00    +0.066 A 
ATOM      4  C   UNL     1       5.709  -1.174  -0.545  0.00  0.00    +0.129 A 
ATOM      5  N   UNL     1       4.759  -0.285  -0.768  0.00  0.00    -0.163 NA
ENDROOT
BRANCH   2   6
ATOM      6  C   UNL     1       3.013  -2.521   1.563  0.00  0.00    +0.268 C 
ATOM      7  O   UNL     1       1.853  -2.171   1.675  0.00  0.00    -0.268 OA
ATOM      8  N   UNL     1       3.470  -3.576   2.267  0.00  0.00    -0.259 N 
ATOM      9  C   UNL     1       2.593  -4.328   3.038  0.00  0.00    +0.165 A 
ATOM     10  N   UNL     1       1.302  -4.167   3.196  0.00  0.00    -0.229 NA
ATOM     11  C   UNL     1       0.575  -4.976   3.978  0.00  0.00    +0.054 A 
ATOM     12  C   UNL     1       1.278  -5.961   4.584  0.00  0.00    +0.014 A 
ATOM     13  S   UNL     1       2.928  -5.675   3.991  0.00  0.00    -0.057 S 
ATOM     14  C   UNL     1       0.411  -6.826   5.447  0.00  0.00    +0.045 C 
ATOM     15  C   UNL     1      -0.883  -6.005   5.649  0.00  0.00    +0.011 C 
ATOM     16  C   UNL     1      -0.888  -5.109   4.393  0.00  0.00    +0.056 C 
ATOM     17  H   UNL     1       4.411  -3.810   2.235  0.00  0.00    +0.157 HD
ENDBRANCH   2   6
BRANCH   1  21
ATOM     18  C   UNL     1       0.014   1.430   0.081  0.00  0.00    +0.000 A 
ATOM     19  C   UNL     1       0.584   0.977   1.257  0.00  0.00    +0.002 A 
ATOM     20  C   UNL     1       1.781   0.290   1.226  0.00  0.00    +0.028 A 
ATOM     21  C   UNL     1       2.414   0.054   0.012  0.00  0.00    +0.066 A 
ATOM     22  C   UNL     1       1.839   0.510  -1.168  0.00  0.00    +0.028 A 
ATOM     23  C   UNL     1       0.641   1.196  -1.130  0.00  0.00    +0.002 A 
ENDBRANCH   1  21
BRANCH   4  24
ATOM     24  C   UNL     1       7.063  -1.159  -1.138  0.00  0.00    +0.155 A 
ATOM     25  C   UNL     1       7.547  -0.224  -1.997  0.00  0.00    +0.051 A 
ATOM     26  C   UNL     1       8.871  -0.601  -2.304  0.00  0.00    +0.042 A 
ATOM     27  C   UNL     1       9.125  -1.736  -1.624  0.00  0.00    +0.196 A 
ATOM     28  O   UNL     1       8.033  -2.067  -0.916  0.00  0.00    -0.461 OA
ENDBRANCH   4  24
TORSDOF 3
