REMARK  Name = ZINC35673658
REMARK  17 active torsions:
REMARK  status: ('A' for Active; 'I' for Inactive)
REMARK    1  A    between atoms: C_1  and  C_2
REMARK    2  A    between atoms: C_2  and  C_3
REMARK    3  A    between atoms: C_2  and  C_4
REMARK    4  A    between atoms: C_4  and  C_5
REMARK    5  A    between atoms: N_7  and  C_8
REMARK    6  A    between atoms: N_7  and  C_13
REMARK    7  A    between atoms: C_8  and  C_9
REMARK    8  A    between atoms: C_9  and  N_10
REMARK    9  A    between atoms: N_10  and  C_11
REMARK   10  A    between atoms: N_10  and  C_12
REMARK   11  A    between atoms: C_13  and  C_14
REMARK   12  A    between atoms: C_14  and  N_16
REMARK   13  A    between atoms: C_19  and  C_31
REMARK   14  A    between atoms: N_21  and  C_22
REMARK   15  A    between atoms: C_25  and  C_28
REMARK   16  A    between atoms: C_28  and  C_29
REMARK   17  A    between atoms: C_28  and  C_30
REMARK                            x       y       z     vdW  Elec       q    Type
REMARK                         _______ _______ _______ _____ _____    ______ ____
ROOT
ATOM      1  N   UNL     1      -2.471  -6.128   1.236  0.00  0.00    -0.145 NA
ATOM      2  C   UNL     1      -2.416  -6.680   2.448  0.00  0.00    +0.205 A 
ATOM      3  N   UNL     1      -2.386  -6.011   3.629  0.00  0.00    -0.326 N 
ATOM      4  C   UNL     1      -2.330  -6.951   4.651  0.00  0.00    +0.066 A 
ATOM      5  C   UNL     1      -2.326  -8.173   4.088  0.00  0.00    +0.120 A 
ATOM      6  N   UNL     1      -2.385  -8.013   2.718  0.00  0.00    -0.287 N 
ATOM      7  H   UNL     1      -2.401  -5.047   3.740  0.00  0.00    +0.169 HD
ENDROOT
BRANCH   6   8
ATOM      8  C   UNL     1      -2.407  -9.045   1.771  0.00  0.00    +0.049 A 
ATOM      9  C   UNL     1      -2.459  -8.744   0.416  0.00  0.00    +0.026 A 
ATOM     10  C   UNL     1      -2.480  -9.764  -0.515  0.00  0.00    +0.006 A 
ATOM     11  C   UNL     1      -2.450 -11.082  -0.100  0.00  0.00    -0.045 A 
ATOM     12  C   UNL     1      -2.399 -11.385   1.248  0.00  0.00    +0.006 A 
ATOM     13  C   UNL     1      -2.371 -10.370   2.184  0.00  0.00    +0.026 A 
BRANCH  11  14
ATOM     14  C   UNL     1      -2.474 -12.192  -1.119  0.00  0.00    +0.013 C 
ATOM     15  C   UNL     1      -1.209 -13.041  -0.978  0.00  0.00    +0.012 C 
ATOM     16  C   UNL     1      -3.705 -13.070  -0.889  0.00  0.00    +0.012 C 
ENDBRANCH  11  14
ENDBRANCH   6   8
BRANCH   4  17
ATOM     17  C   UNL     1      -2.283  -6.660   6.100  0.00  0.00    -0.000 A 
ATOM     18  C   UNL     1      -2.222  -7.705   7.023  0.00  0.00    +0.010 A 
ATOM     19  C   UNL     1      -2.178  -7.428   8.374  0.00  0.00    +0.001 A 
ATOM     20  C   UNL     1      -2.194  -6.116   8.814  0.00  0.00    +0.000 A 
ATOM     21  C   UNL     1      -2.254  -5.075   7.904  0.00  0.00    +0.001 A 
ATOM     22  C   UNL     1      -2.292  -5.340   6.551  0.00  0.00    +0.010 A 
ENDBRANCH   4  17
BRANCH   1  23
ATOM     23  C   UNL     1      -2.495  -4.807   1.109  0.00  0.00    +0.256 C 
ATOM     24  O   UNL     1      -2.468  -4.100   2.098  0.00  0.00    -0.272 OA
BRANCH  23  25
ATOM     25  C   UNL     1      -2.558  -4.183  -0.262  0.00  0.00    +0.205 C 
BRANCH  25  28
ATOM     26  C   UNL     1      -1.416  -2.035  -0.119  0.00  0.00    +0.216 C 
ATOM     27  O   UNL     1      -0.359  -2.623  -0.213  0.00  0.00    -0.276 OA
ATOM     28  N   UNL     1      -2.574  -2.724  -0.133  0.00  0.00    -0.294 N 
BRANCH  26  29
ATOM     29  C   UNL     1      -1.433  -0.534   0.013  0.00  0.00    +0.099 C 
BRANCH  29  31
ATOM     30  C   UNL     1      -0.019   1.526   0.010  0.00  0.00    +0.008 C 
ATOM     31  C   UNL     1       0.002  -0.004   0.002  0.00  0.00    -0.008 C 
ATOM     32  C   UNL     1       0.742  -0.511   1.242  0.00  0.00    +0.008 C 
ENDBRANCH  29  31
ENDBRANCH  26  29
BRANCH  28  33
ATOM     33  C   UNL     1      -3.850  -2.013  -0.020  0.00  0.00    +0.090 C 
BRANCH  33  34
ATOM     34  C   UNL     1      -4.352  -1.640  -1.417  0.00  0.00    -0.060 C 
BRANCH  34  35
ATOM     35  N   UNL     1      -5.631  -0.927  -1.303  0.00  0.00    +0.377 N 
ATOM     36  C   UNL     1      -5.420   0.352  -0.612  0.00  0.00    -0.097 C 
ATOM     37  C   UNL     1      -6.172  -0.674  -2.646  0.00  0.00    -0.097 C 
ATOM     38  H   UNL     1      -6.284  -1.490  -0.778  0.00  0.00    -0.083 HD
ENDBRANCH  34  35
ENDBRANCH  33  34
ENDBRANCH  28  33
ENDBRANCH  25  28
ENDBRANCH  23  25
ENDBRANCH   1  23
TORSDOF 11
