REMARK  Name = ZINC01434717
REMARK  11 active torsions:
REMARK  status: ('A' for Active; 'I' for Inactive)
REMARK    1  A    between atoms: C_1  and  O_2
REMARK    2  A    between atoms: O_2  and  C_3
REMARK    3  A    between atoms: C_5  and  C_13
REMARK    4  A    between atoms: C_7  and  O_11
REMARK    5  A    between atoms: C_8  and  O_9
REMARK    6  A    between atoms: O_9  and  C_10
REMARK    7  A    between atoms: O_11  and  C_12
REMARK    8  A    between atoms: C_18  and  C_28
REMARK    9  A    between atoms: C_31  and  C_34
REMARK   10  A    between atoms: C_34  and  O_36
REMARK   11  A    between atoms: O_36  and  C_37
REMARK                            x       y       z     vdW  Elec       q    Type
REMARK                         _______ _______ _______ _____ _____    ______ ____
ROOT
ATOM      1  C   UNL     1      -2.765  -6.993   3.495  0.00  0.00    +0.032 C 
ATOM      2  C   UNL     1      -2.560  -7.975   2.343  0.00  0.00    +0.059 C 
ATOM      3  C   UNL     1      -1.403  -7.518   1.470  0.00  0.00    +0.017 C 
ATOM      4  C   UNL     1      -0.363  -6.855   2.008  0.00  0.00    +0.036 C 
ATOM      5  C   UNL     1       0.850  -6.357   1.261  0.00  0.00    +0.136 C 
ATOM      6  N   UNL     1       0.977  -6.865  -0.089  0.00  0.00    -0.331 N 
ATOM      7  C   UNL     1       0.038  -6.542  -1.067  0.00  0.00    +0.049 A 
ATOM      8  C   UNL     1       0.380  -5.788  -2.179  0.00  0.00    +0.025 A 
ATOM      9  C   UNL     1      -0.597  -5.452  -3.099  0.00  0.00    +0.002 A 
ATOM     10  C   UNL     1      -1.905  -5.860  -2.912  0.00  0.00    +0.002 A 
ATOM     11  C   UNL     1      -2.247  -6.629  -1.812  0.00  0.00    +0.025 A 
ATOM     12  C   UNL     1      -1.265  -6.985  -0.903  0.00  0.00    +0.052 A 
ATOM     13  N   UNL     1      -1.514  -7.847   0.158  0.00  0.00    -0.316 N 
ATOM     14  C   UNL     1      -0.344  -6.563   3.392  0.00  0.00    +0.163 C 
ATOM     15  O   UNL     1       0.617  -5.979   3.854  0.00  0.00    -0.292 OA
ATOM     16  C   UNL     1      -1.466  -6.948   4.308  0.00  0.00    +0.088 C 
ATOM     17  H   UNL     1       1.726  -7.438  -0.316  0.00  0.00    +0.147 HD
ATOM     18  H   UNL     1      -1.787  -8.753  -0.055  0.00  0.00    +0.152 HD
ENDROOT
BRANCH   1  21
ATOM     19  C   UNL     1      -6.041  -7.073   5.378  0.00  0.00    +0.165 A 
ATOM     20  C   UNL     1      -4.996  -6.645   4.574  0.00  0.00    +0.053 A 
ATOM     21  C   UNL     1      -3.899  -7.462   4.370  0.00  0.00    -0.036 A 
ATOM     22  C   UNL     1      -3.843  -8.710   4.962  0.00  0.00    +0.053 A 
ATOM     23  C   UNL     1      -4.881  -9.143   5.772  0.00  0.00    +0.165 A 
ATOM     24  C   UNL     1      -5.986  -8.325   5.979  0.00  0.00    +0.204 A 
BRANCH  19  26
ATOM     25  C   UNL     1      -7.109  -4.996   4.930  0.00  0.00    +0.277 C 
ATOM     26  O   UNL     1      -7.120  -6.269   5.578  0.00  0.00    -0.491 OA
ENDBRANCH  19  26
BRANCH  24  27
ATOM     27  O   UNL     1      -7.010  -8.749   6.769  0.00  0.00    -0.488 OA
ATOM     28  C   UNL     1      -8.069  -9.464   6.130  0.00  0.00    +0.277 C 
ENDBRANCH  24  27
BRANCH  23  29
ATOM     29  O   UNL     1      -4.822 -10.369   6.358  0.00  0.00    -0.491 OA
ATOM     30  C   UNL     1      -3.657 -11.155   6.101  0.00  0.00    +0.277 C 
ENDBRANCH  23  29
ENDBRANCH   1  21
BRANCH   5  31
ATOM     31  C   UNL     1       0.790  -4.853   1.201  0.00  0.00    -0.023 A 
ATOM     32  C   UNL     1       1.760  -4.099   1.838  0.00  0.00    +0.006 A 
ATOM     33  C   UNL     1       1.711  -2.721   1.787  0.00  0.00    +0.015 A 
ATOM     34  C   UNL     1       0.680  -2.088   1.091  0.00  0.00    +0.059 A 
ATOM     35  C   UNL     1      -0.299  -2.855   0.455  0.00  0.00    +0.015 A 
ATOM     36  C   UNL     1      -0.234  -4.232   0.509  0.00  0.00    +0.006 A 
BRANCH  34  37
ATOM     37  C   UNL     1       0.621  -0.613   1.033  0.00  0.00    +0.339 C 
ATOM     38  O   UNL     1       1.470   0.051   1.591  0.00  0.00    -0.245 OA
BRANCH  37  39
ATOM     39  O   UNL     1      -0.376  -0.005   0.360  0.00  0.00    -0.464 OA
ATOM     40  C   UNL     1      -0.371   1.447   0.345  0.00  0.00    +0.280 C 
ENDBRANCH  37  39
ENDBRANCH  34  37
ENDBRANCH   5  31
TORSDOF 7
