REMARK  Name = ZINC39687293
REMARK  11 active torsions:
REMARK  status: ('A' for Active; 'I' for Inactive)
REMARK    1  A    between atoms: C_1  and  C_2
REMARK    2  A    between atoms: C_2  and  C_3
REMARK    3  A    between atoms: C_3  and  C_4
REMARK    4  A    between atoms: C_4  and  C_5
REMARK    5  A    between atoms: C_5  and  C_7
REMARK    6  A    between atoms: C_5  and  C_8
REMARK    7  A    between atoms: C_12  and  C_21
REMARK    8  A    between atoms: N_23  and  C_24
REMARK    9  A    between atoms: C_24  and  C_26
REMARK   10  A    between atoms: C_24  and  C_33
REMARK   11  A    between atoms: C_26  and  C_27
REMARK                            x       y       z     vdW  Elec       q    Type
REMARK                         _______ _______ _______ _____ _____    ______ ____
ROOT
ATOM      1  C   UNL     1       1.129  -3.870   2.671  0.00  0.00    +0.218 C 
ATOM      2  O   UNL     1       0.616  -4.476   1.753  0.00  0.00    -0.275 OA
ATOM      3  N   UNL     1       1.815  -4.538   3.619  0.00  0.00    -0.300 N 
ATOM      4  C   UNL     1       2.499  -3.979   4.809  0.00  0.00    +0.121 C 
ATOM      5  C   UNL     1       2.216  -4.997   5.936  0.00  0.00    +0.100 C 
ATOM      6  C   UNL     1       1.929  -6.320   5.207  0.00  0.00    -0.004 C 
ATOM      7  C   UNL     1       2.052  -5.999   3.711  0.00  0.00    +0.115 C 
ATOM      8  C   UNL     1       0.516  -6.801   5.523  0.00  0.00    -0.010 C 
ATOM      9  C   UNL     1       0.274  -8.146   4.833  0.00  0.00    -0.082 C 
ATOM     10  N   UNL     1       1.262  -9.125   5.303  0.00  0.00    +0.379 N 
ATOM     11  C   UNL     1       2.612  -8.700   4.914  0.00  0.00    -0.082 C 
ATOM     12  C   UNL     1       2.953  -7.378   5.608  0.00  0.00    -0.010 C 
ATOM     13  H   UNL     1       1.210  -9.196   6.309  0.00  0.00    -0.086 HD
ATOM     14  H   UNL     1       1.063 -10.025   4.894  0.00  0.00    -0.086 HD
ENDROOT
BRANCH   5  15
ATOM     15  C   UNL     1       3.421  -5.138   6.830  0.00  0.00    +0.219 C 
ATOM     16  O   UNL     1       4.537  -5.040   6.364  0.00  0.00    -0.275 OA
ATOM     17  N   UNL     1       3.259  -5.374   8.147  0.00  0.00    -0.303 N 
ATOM     18  H   UNL     1       2.367  -5.452   8.520  0.00  0.00    +0.149 HD
BRANCH  17  19
ATOM     19  C   UNL     1       4.431  -5.511   9.016  0.00  0.00    +0.163 C 
BRANCH  19  20
ATOM     20  C   UNL     1       4.068  -6.340  10.222  0.00  0.00    +0.236 C 
ATOM     21  O   UNL     1       2.902  -6.503  10.516  0.00  0.00    -0.274 OA
ATOM     22  N   UNL     1       5.037  -6.899  10.972  0.00  0.00    -0.300 N 
ATOM     23  C   UNL     1       6.447  -6.803  10.567  0.00  0.00    +0.108 C 
ATOM     24  C   UNL     1       7.256  -6.225  11.732  0.00  0.00    +0.019 C 
ATOM     25  C   UNL     1       7.019  -7.073  12.983  0.00  0.00    +0.003 C 
ATOM     26  C   UNL     1       5.535  -7.029  13.357  0.00  0.00    +0.019 C 
ATOM     27  C   UNL     1       4.706  -7.611  12.214  0.00  0.00    +0.108 C 
ENDBRANCH  19  20
BRANCH  19  28
ATOM     28  C   UNL     1       4.894  -4.126   9.470  0.00  0.00    +0.067 C 
BRANCH  28  29
ATOM     29  C   UNL     1       5.401  -3.351   8.281  0.00  0.00    -0.045 A 
ATOM     30  C   UNL     1       6.734  -3.431   7.922  0.00  0.00    +0.004 A 
ATOM     31  C   UNL     1       7.199  -2.720   6.831  0.00  0.00    +0.000 A 
ATOM     32  C   UNL     1       6.332  -1.930   6.100  0.00  0.00    +0.000 A 
ATOM     33  C   UNL     1       4.999  -1.851   6.459  0.00  0.00    +0.000 A 
ATOM     34  C   UNL     1       4.533  -2.565   7.547  0.00  0.00    +0.004 A 
ENDBRANCH  28  29
ENDBRANCH  19  28
ENDBRANCH  17  19
ENDBRANCH   5  15
BRANCH   1  35
ATOM     35  C   UNL     1       0.997  -2.371   2.751  0.00  0.00    +0.072 C 
ATOM     36  C   UNL     1       2.388  -1.735   2.717  0.00  0.00    +0.017 C 
BRANCH  35  37
ATOM     37  C   UNL     1       0.176  -1.867   1.562  0.00  0.00    +0.012 C 
BRANCH  37  38
ATOM     38  C   UNL     1      -0.063  -0.363   1.709  0.00  0.00    +0.000 C 
BRANCH  38  40
ATOM     39  C   UNL     1      -1.123   1.645   0.666  0.00  0.00    +0.004 C 
ATOM     40  C   UNL     1      -0.884   0.141   0.520  0.00  0.00    -0.003 C 
ENDBRANCH  38  40
ENDBRANCH  37  38
ENDBRANCH  35  37
ENDBRANCH   1  35
TORSDOF 9
