REMARK  Name = ZINC40361509
REMARK  19 active torsions:
REMARK  status: ('A' for Active; 'I' for Inactive)
REMARK    1  A    between atoms: C_1  and  C_2
REMARK    2  A    between atoms: C_2  and  C_3
REMARK    3  A    between atoms: C_3  and  C_4
REMARK    4  A    between atoms: C_4  and  O_5
REMARK    5  A    between atoms: O_5  and  C_6
REMARK    6  A    between atoms: C_9  and  C_12
REMARK    7  A    between atoms: N_14  and  C_15
REMARK    8  A    between atoms: N_14  and  C_19
REMARK    9  A    between atoms: C_15  and  C_16
REMARK   10  A    between atoms: C_16  and  C_17
REMARK   11  A    between atoms: C_16  and  C_18
REMARK   12  A    between atoms: C_19  and  C_20
REMARK   13  A    between atoms: N_22  and  C_23
REMARK   14  A    between atoms: C_25  and  C_35
REMARK   15  A    between atoms: N_27  and  C_28
REMARK   16  A    between atoms: C_31  and  C_34
REMARK   17  A    between atoms: C_35  and  C_36
REMARK   18  A    between atoms: C_35  and  C_37
REMARK   19  A    between atoms: C_35  and  C_38
REMARK                            x       y       z     vdW  Elec       q    Type
REMARK                         _______ _______ _______ _____ _____    ______ ____
ROOT
ATOM      1  C   UNL     1       4.020 -10.530   3.830  0.00  0.00    +0.236 C 
ATOM      2  O   UNL     1       4.700  -9.735   3.217  0.00  0.00    -0.274 OA
ATOM      3  N   UNL     1       4.424 -11.810   3.951  0.00  0.00    -0.269 N 
ATOM      4  H   UNL     1       3.880 -12.446   4.441  0.00  0.00    +0.156 HD
ENDROOT
BRANCH   3   5
ATOM      5  C   UNL     1       5.625 -12.220   3.371  0.00  0.00    +0.129 A 
ATOM      6  C   UNL     1       6.486 -11.438   2.665  0.00  0.00    +0.069 A 
ATOM      7  C   UNL     1       7.560 -12.237   2.263  0.00  0.00    +0.071 A 
ATOM      8  N   UNL     1       7.361 -13.453   2.706  0.00  0.00    -0.169 NA
ATOM      9  N   UNL     1       6.152 -13.474   3.413  0.00  0.00    -0.218 N 
BRANCH   9  10
ATOM     10  C   UNL     1       5.586 -14.587   4.049  0.00  0.00    +0.067 A 
ATOM     11  C   UNL     1       4.873 -14.427   5.229  0.00  0.00    +0.028 A 
ATOM     12  C   UNL     1       4.316 -15.526   5.853  0.00  0.00    +0.005 A 
ATOM     13  C   UNL     1       4.469 -16.786   5.303  0.00  0.00    -0.050 A 
ATOM     14  C   UNL     1       5.179 -16.949   4.128  0.00  0.00    +0.005 A 
ATOM     15  C   UNL     1       5.733 -15.852   3.496  0.00  0.00    +0.028 A 
ATOM     16  C   UNL     1       3.860 -17.983   5.986  0.00  0.00    +0.044 C 
ENDBRANCH   9  10
BRANCH   7  17
ATOM     17  C   UNL     1       8.747 -11.777   1.456  0.00  0.00    +0.006 C 
ATOM     18  C   UNL     1       9.683 -10.958   2.347  0.00  0.00    +0.017 C 
ATOM     19  C   UNL     1       9.496 -12.995   0.912  0.00  0.00    +0.017 C 
ATOM     20  C   UNL     1       8.265 -10.911   0.290  0.00  0.00    +0.017 C 
ENDBRANCH   7  17
ENDBRANCH   3   5
BRANCH   1  21
ATOM     21  C   UNL     1       2.723 -10.087   4.456  0.00  0.00    +0.204 C 
BRANCH  21  24
ATOM     22  C   UNL     1       1.699  -8.283   3.178  0.00  0.00    +0.247 C 
ATOM     23  O   UNL     1       1.613  -7.108   2.878  0.00  0.00    -0.270 OA
ATOM     24  N   UNL     1       2.511  -8.663   4.185  0.00  0.00    -0.288 N 
BRANCH  22  28
ATOM     25  C   UNL     1      -0.555 -11.188   1.054  0.00  0.00    +0.121 A 
ATOM     26  C   UNL     1      -1.041  -9.892   1.183  0.00  0.00    +0.046 A 
ATOM     27  C   UNL     1      -0.313  -8.947   1.871  0.00  0.00    +0.016 A 
ATOM     28  C   UNL     1       0.916  -9.293   2.440  0.00  0.00    +0.037 A 
ATOM     29  C   UNL     1       1.401 -10.596   2.308  0.00  0.00    +0.016 A 
ATOM     30  C   UNL     1       0.664 -11.537   1.623  0.00  0.00    +0.046 A 
BRANCH  25  31
ATOM     31  O   UNL     1      -1.275 -12.116   0.374  0.00  0.00    -0.492 OA
BRANCH  31  32
ATOM     32  C   UNL     1      -2.519 -11.690  -0.185  0.00  0.00    +0.229 C 
BRANCH  32  33
ATOM     33  C   UNL     1      -3.182 -12.864  -0.907  0.00  0.00    +0.041 C 
BRANCH  33  35
ATOM     34  C   UNL     1      -5.178 -13.583  -2.228  0.00  0.00    +0.004 C 
ATOM     35  C   UNL     1      -4.514 -12.408  -1.506  0.00  0.00    -0.000 C 
ENDBRANCH  33  35
ENDBRANCH  32  33
ENDBRANCH  31  32
ENDBRANCH  25  31
ENDBRANCH  22  28
BRANCH  24  36
ATOM     36  C   UNL     1       3.180  -7.653   5.008  0.00  0.00    +0.111 C 
BRANCH  36  37
ATOM     37  C   UNL     1       2.360  -7.400   6.274  0.00  0.00    +0.000 C 
ATOM     38  C   UNL     1       3.125  -6.450   7.197  0.00  0.00    +0.009 C 
ATOM     39  C   UNL     1       1.017  -6.772   5.895  0.00  0.00    +0.009 C 
ENDBRANCH  36  37
ENDBRANCH  24  36
ENDBRANCH  21  24
ENDBRANCH   1  21
TORSDOF 12
