REMARK  Name = ZINC40372230
REMARK  8 active torsions:
REMARK  status: ('A' for Active; 'I' for Inactive)
REMARK    1  A    between atoms: C_1  and  C_2
REMARK    2  A    between atoms: C_2  and  C_3
REMARK    3  A    between atoms: C_2  and  C_4
REMARK    4  A    between atoms: C_2  and  C_5
REMARK    5  A    between atoms: C_5  and  C_6
REMARK    6  A    between atoms: N_8  and  C_9
REMARK    7  A    between atoms: C_9  and  C_14
REMARK    8  A    between atoms: N_15  and  O_16
REMARK                            x       y       z     vdW  Elec       q    Type
REMARK                         _______ _______ _______ _____ _____    ______ ____
ROOT
ATOM      1  C   UNL     1       4.327   0.222  -2.188  0.00  0.00    +0.093 C 
ATOM      2  C   UNL     1       4.205   1.765  -2.143  0.00  0.00    +0.033 C 
ATOM      3  C   UNL     1       4.103   2.144  -3.641  0.00  0.00    +0.003 C 
ATOM      4  C   UNL     1       5.070   1.170  -4.345  0.00  0.00    +0.003 C 
ATOM      5  C   UNL     1       5.213  -0.052  -3.421  0.00  0.00    +0.033 C 
ENDROOT
BRANCH   1   6
ATOM      6  C   UNL     1       4.990  -0.295  -0.937  0.00  0.00    +0.155 C 
ATOM      7  N   UNL     1       6.164  -0.829  -1.002  0.00  0.00    -0.075 NA
ATOM      8  N   UNL     1       4.343  -0.198   0.275  0.00  0.00    -0.342 N 
ATOM      9  H   UNL     1       3.494   0.268   0.336  0.00  0.00    +0.144 HD
ATOM     10  H   UNL     1       4.737  -0.596   1.068  0.00  0.00    +0.144 HD
BRANCH   7  11
ATOM     11  O   UNL     1       6.787  -1.314   0.174  0.00  0.00    -0.408 OA
ATOM     12  H   UNL     1       7.663  -1.696   0.026  0.00  0.00    +0.328 HD
ENDBRANCH   7  11
ENDBRANCH   1   6
BRANCH   1  15
ATOM     13  C   UNL     1       2.890  -1.733  -2.421  0.00  0.00    +0.214 C 
ATOM     14  O   UNL     1       3.884  -2.428  -2.428  0.00  0.00    -0.276 OA
ATOM     15  N   UNL     1       3.007  -0.392  -2.358  0.00  0.00    -0.303 N 
ATOM     16  H   UNL     1       2.218   0.168  -2.425  0.00  0.00    +0.150 HD
BRANCH  13  17
ATOM     17  C   UNL     1       1.525  -2.368  -2.482  0.00  0.00    +0.102 C 
BRANCH  17  19
ATOM     18  C   UNL     1       2.411  -4.384  -1.300  0.00  0.00    +0.011 C 
ATOM     19  C   UNL     1       1.673  -3.890  -2.547  0.00  0.00    -0.029 C 
ATOM     20  C   UNL     1       2.470  -4.272  -3.795  0.00  0.00    +0.011 C 
ATOM     21  C   UNL     1       0.288  -4.535  -2.609  0.00  0.00    +0.011 C 
ENDBRANCH  17  19
ENDBRANCH  13  17
ENDBRANCH   1  15
TORSDOF 5
