REMARK  Name = ZINC40386742
REMARK  8 active torsions:
REMARK  status: ('A' for Active; 'I' for Inactive)
REMARK    1  A    between atoms: C_1  and  C_2
REMARK    2  A    between atoms: C_2  and  C_3
REMARK    3  A    between atoms: C_2  and  C_4
REMARK    4  A    between atoms: C_4  and  N_5
REMARK    5  A    between atoms: C_8  and  C_23
REMARK    6  A    between atoms: C_10  and  N_22
REMARK    7  A    between atoms: N_11  and  C_15
REMARK    8  A    between atoms: C_15  and  C_16
REMARK                            x       y       z     vdW  Elec       q    Type
REMARK                         _______ _______ _______ _____ _____    ______ ____
ROOT
ATOM      1  N   UNL     1      -2.734   0.790  -0.579  0.00  0.00    -0.313 N 
ATOM      2  C   UNL     1      -3.854   0.100  -1.005  0.00  0.00    +0.218 A 
ATOM      3  N   UNL     1      -4.488   0.538  -2.089  0.00  0.00    -0.214 NA
ATOM      4  C   UNL     1      -5.569  -0.064  -2.567  0.00  0.00    +0.089 A 
ATOM      5  C   UNL     1      -6.052  -1.207  -1.891  0.00  0.00    +0.086 A 
ATOM      6  C   UNL     1      -7.112  -2.090  -2.059  0.00  0.00    +0.126 A 
ATOM      7  N   UNL     1      -7.045  -2.997  -1.069  0.00  0.00    -0.244 N 
ATOM      8  N   UNL     1      -5.949  -2.722  -0.244  0.00  0.00    -0.149 NA
ATOM      9  C   UNL     1      -5.321  -1.659  -0.693  0.00  0.00    +0.188 A 
ATOM     10  N   UNL     1      -4.233  -0.958  -0.318  0.00  0.00    -0.193 NA
ATOM     11  H   UNL     1      -2.432   1.573  -1.066  0.00  0.00    +0.149 HD
ENDROOT
BRANCH   4  12
ATOM     12  C   UNL     1      -6.252   0.448  -3.776  0.00  0.00    +0.001 A 
ATOM     13  C   UNL     1      -7.642   0.571  -3.796  0.00  0.00    +0.010 A 
ATOM     14  C   UNL     1      -8.273   1.050  -4.926  0.00  0.00    +0.001 A 
ATOM     15  C   UNL     1      -7.530   1.407  -6.038  0.00  0.00    +0.000 A 
ATOM     16  C   UNL     1      -6.152   1.287  -6.024  0.00  0.00    +0.001 A 
ATOM     17  C   UNL     1      -5.509   0.815  -4.898  0.00  0.00    +0.010 A 
ENDBRANCH   4  12
BRANCH   6  18
ATOM     18  N   UNL     1      -8.062  -2.045  -3.063  0.00  0.00    -0.343 N 
ATOM     19  H   UNL     1      -7.889  -1.538  -3.872  0.00  0.00    +0.144 HD
ATOM     20  H   UNL     1      -8.901  -2.519  -2.958  0.00  0.00    +0.144 HD
ENDBRANCH   6  18
BRANCH   1  21
ATOM     21  C   UNL     1      -2.003   0.339   0.608  0.00  0.00    +0.107 C 
BRANCH  21  23
ATOM     22  C   UNL     1      -1.327   2.668   1.208  0.00  0.00    +0.009 C 
ATOM     23  C   UNL     1      -0.815   1.269   0.859  0.00  0.00    -0.000 C 
ATOM     24  C   UNL     1       0.020   0.728   2.022  0.00  0.00    +0.009 C 
ENDBRANCH  21  23
ENDBRANCH   1  21
BRANCH   7  25
ATOM     25  C   UNL     1      -7.981  -4.108  -0.882  0.00  0.00    +0.180 C 
BRANCH  25  26
ATOM     26  C   UNL     1      -7.482  -5.317  -1.631  0.00  0.00    -0.026 A 
ATOM     27  C   UNL     1      -7.858  -5.519  -2.946  0.00  0.00    +0.005 A 
ATOM     28  C   UNL     1      -7.400  -6.628  -3.633  0.00  0.00    +0.000 A 
ATOM     29  C   UNL     1      -6.567  -7.534  -3.005  0.00  0.00    +0.000 A 
ATOM     30  C   UNL     1      -6.191  -7.332  -1.690  0.00  0.00    +0.000 A 
ATOM     31  C   UNL     1      -6.645  -6.221  -1.005  0.00  0.00    +0.005 A 
ENDBRANCH  25  26
ENDBRANCH   7  25
TORSDOF 6
