REMARK  Name = ZINC36640813
REMARK  13 active torsions:
REMARK  status: ('A' for Active; 'I' for Inactive)
REMARK    1  A    between atoms: C_1  and  C_2
REMARK    2  A    between atoms: C_2  and  N_3
REMARK    3  A    between atoms: N_3  and  C_4
REMARK    4  A    between atoms: N_3  and  C_6
REMARK    5  A    between atoms: C_4  and  C_5
REMARK    6  A    between atoms: C_6  and  C_7
REMARK    7  A    between atoms: C_7  and  N_8
REMARK    8  A    between atoms: C_12  and  O_20
REMARK    9  A    between atoms: C_15  and  O_18
REMARK   10  A    between atoms: O_18  and  C_19
REMARK   11  A    between atoms: O_20  and  C_21
REMARK   12  A    between atoms: C_22  and  C_24
REMARK   13  A    between atoms: C_25  and  C_26
REMARK                            x       y       z     vdW  Elec       q    Type
REMARK                         _______ _______ _______ _____ _____    ______ ____
ROOT
ATOM      1  N   UNL     1      -1.382  -3.580  -1.830  0.00  0.00    -0.249 N 
ATOM      2  C   UNL     1      -1.542  -4.435  -0.752  0.00  0.00    +0.169 A 
ATOM      3  N   UNL     1      -1.529  -4.155   0.530  0.00  0.00    -0.221 NA
ATOM      4  C   UNL     1      -1.700  -5.100   1.481  0.00  0.00    +0.125 A 
ATOM      5  C   UNL     1      -1.707  -4.932   2.890  0.00  0.00    +0.147 A 
ATOM      6  C   UNL     1      -1.896  -6.007   3.724  0.00  0.00    +0.051 A 
ATOM      7  C   UNL     1      -2.086  -7.288   3.224  0.00  0.00    +0.050 A 
ATOM      8  C   UNL     1      -2.085  -7.487   1.853  0.00  0.00    +0.136 A 
ATOM      9  C   UNL     1      -1.897  -6.415   1.009  0.00  0.00    +0.086 A 
ATOM     10  S   UNL     1      -1.829  -6.199  -0.753  0.00  0.00    -0.048 S 
ATOM     11  C   UNL     1      -1.435  -4.063  -3.087  0.00  0.00    +0.245 C 
ATOM     12  O   UNL     1      -1.624  -5.251  -3.275  0.00  0.00    -0.270 OA
ENDROOT
BRANCH   8  13
ATOM     13  O   UNL     1      -2.270  -8.735   1.343  0.00  0.00    -0.494 OA
ATOM     14  C   UNL     1      -2.459  -9.798   2.279  0.00  0.00    +0.277 C 
ENDBRANCH   8  13
BRANCH   5  15
ATOM     15  O   UNL     1      -1.524  -3.693   3.421  0.00  0.00    -0.493 OA
ATOM     16  C   UNL     1      -1.541  -3.588   4.846  0.00  0.00    +0.277 C 
ENDBRANCH   5  15
BRANCH  11  17
ATOM     17  C   UNL     1      -1.265  -3.161  -4.224  0.00  0.00    +0.068 C 
ATOM     18  C   UNL     1      -1.318  -3.645  -5.484  0.00  0.00    +0.013 C 
BRANCH  18  19
ATOM     19  C   UNL     1      -1.148  -2.738  -6.628  0.00  0.00    -0.021 A 
ATOM     20  C   UNL     1      -0.925  -1.373  -6.414  0.00  0.00    +0.012 A 
ATOM     21  C   UNL     1      -0.766  -0.525  -7.488  0.00  0.00    +0.050 A 
ATOM     22  C   UNL     1      -0.826  -1.020  -8.784  0.00  0.00    +0.166 A 
ATOM     23  C   UNL     1      -1.048  -2.380  -9.005  0.00  0.00    +0.167 A 
ATOM     24  C   UNL     1      -1.203  -3.237  -7.934  0.00  0.00    +0.057 A 
ATOM     25  O   UNL     1      -1.062  -2.606 -10.352  0.00  0.00    -0.453 OA
ATOM     26  C   UNL     1      -1.255  -1.313 -10.955  0.00  0.00    +0.466 C 
ATOM     27  O   UNL     1      -0.701  -0.398  -9.992  0.00  0.00    -0.453 OA
ENDBRANCH  18  19
ENDBRANCH  11  17
BRANCH   1  28
ATOM     28  C   UNL     1      -1.155  -2.151  -1.603  0.00  0.00    +0.097 C 
BRANCH  28  29
ATOM     29  C   UNL     1       0.348  -1.884  -1.496  0.00  0.00    -0.059 C 
BRANCH  29  30
ATOM     30  N   UNL     1       0.576  -0.451  -1.269  0.00  0.00    +0.380 N 
ATOM     31  H   UNL     1       0.124   0.081  -1.998  0.00  0.00    -0.082 HD
BRANCH  30  33
ATOM     32  C   UNL     1       0.128   1.449   0.210  0.00  0.00    -0.017 C 
ATOM     33  C   UNL     1       0.019  -0.067   0.035  0.00  0.00    -0.082 C 
ENDBRANCH  30  33
BRANCH  30  34
ATOM     34  C   UNL     1       2.019  -0.176  -1.285  0.00  0.00    -0.082 C 
ATOM     35  C   UNL     1       2.573  -0.440  -2.687  0.00  0.00    -0.017 C 
ENDBRANCH  30  34
ENDBRANCH  29  30
ENDBRANCH  28  29
ENDBRANCH   1  28
TORSDOF 9
