REMARK  Name = ZINC09173954
REMARK  10 active torsions:
REMARK  status: ('A' for Active; 'I' for Inactive)
REMARK    1  A    between atoms: C_1  and  C_2
REMARK    2  A    between atoms: C_2  and  C_29
REMARK    3  A    between atoms: C_8  and  N_14
REMARK    4  A    between atoms: N_14  and  S_15
REMARK    5  A    between atoms: S_15  and  C_18
REMARK    6  A    between atoms: C_18  and  C_19
REMARK    7  A    between atoms: C_21  and  O_27
REMARK    8  A    between atoms: C_23  and  O_25
REMARK    9  A    between atoms: O_25  and  C_26
REMARK   10  A    between atoms: O_27  and  C_28
REMARK                            x       y       z     vdW  Elec       q    Type
REMARK                         _______ _______ _______ _____ _____    ______ ____
ROOT
ATOM      1  N   UNL     1      -0.146  -3.746   1.119  0.00  0.00    -0.220 N 
ATOM      2  H   UNL     1       0.393  -4.342   0.576  0.00  0.00    +0.173 HD
ENDROOT
BRANCH   1  10
ATOM      3  C   UNL     1       2.724   0.061  -0.412  0.00  0.00    +0.024 C 
ATOM      4  C   UNL     1       2.189   1.367  -1.001  0.00  0.00    +0.076 C 
ATOM      5  C   UNL     1       1.612   2.230   0.120  0.00  0.00    +0.244 C 
ATOM      6  O   UNL     1       0.339   1.733   0.524  0.00  0.00    -0.489 OA
ATOM      7  C   UNL     1       0.215   0.387   0.676  0.00  0.00    +0.142 A 
ATOM      8  C   UNL     1       0.175  -0.174   1.941  0.00  0.00    +0.049 A 
ATOM      9  C   UNL     1       0.054  -1.544   2.087  0.00  0.00    +0.028 A 
ATOM     10  C   UNL     1      -0.026  -2.360   0.967  0.00  0.00    +0.050 A 
ATOM     11  C   UNL     1       0.013  -1.802  -0.304  0.00  0.00    +0.051 A 
ATOM     12  C   UNL     1       0.131  -0.430  -0.450  0.00  0.00    +0.077 A 
ATOM     13  N   UNL     1       0.160   0.152  -1.724  0.00  0.00    -0.282 N 
ATOM     14  C   UNL     1       1.120   1.057  -2.017  0.00  0.00    +0.226 C 
ATOM     15  O   UNL     1       1.121   1.617  -3.093  0.00  0.00    -0.275 OA
ATOM     16  C   UNL     1       3.332   2.123  -1.682  0.00  0.00    +0.024 C 
ATOM     17  H   UNL     1      -0.502  -0.093  -2.390  0.00  0.00    +0.155 HD
ENDBRANCH   1  10
BRANCH   1  18
ATOM     18  S   UNL     1      -1.210  -4.369   2.225  0.00  0.00    +0.047 S 
ATOM     19  O   UNL     1      -1.052  -5.777   2.127  0.00  0.00    -0.155 OA
ATOM     20  O   UNL     1      -0.913  -3.689   3.437  0.00  0.00    -0.155 OA
BRANCH  18  21
ATOM     21  C   UNL     1      -2.850  -3.880   1.621  0.00  0.00    +0.224 C 
BRANCH  21  22
ATOM     22  C   UNL     1      -3.907  -4.399   2.561  0.00  0.00    -0.018 A 
ATOM     23  C   UNL     1      -4.462  -5.647   2.353  0.00  0.00    +0.051 A 
ATOM     24  C   UNL     1      -5.432  -6.130   3.221  0.00  0.00    +0.124 A 
ATOM     25  C   UNL     1      -5.850  -5.354   4.291  0.00  0.00    +0.091 A 
ATOM     26  C   UNL     1      -5.295  -4.100   4.495  0.00  0.00    +0.124 A 
ATOM     27  C   UNL     1      -4.322  -3.624   3.627  0.00  0.00    +0.051 A 
BRANCH  26  28
ATOM     28  O   UNL     1      -5.703  -3.338   5.543  0.00  0.00    -0.495 OA
ATOM     29  C   UNL     1      -6.708  -3.891   6.395  0.00  0.00    +0.277 C 
ENDBRANCH  26  28
BRANCH  24  30
ATOM     30  O   UNL     1      -5.973  -7.360   3.019  0.00  0.00    -0.495 OA
ATOM     31  C   UNL     1      -6.970  -7.790   3.949  0.00  0.00    +0.277 C 
ENDBRANCH  24  30
ENDBRANCH  21  22
ENDBRANCH  18  21
ENDBRANCH   1  18
TORSDOF 6
