REMARK  Name = ZINC23818539
REMARK  8 active torsions:
REMARK  status: ('A' for Active; 'I' for Inactive)
REMARK    1  A    between atoms: C_1  and  C_2
REMARK    2  A    between atoms: C_2  and  C_4
REMARK    3  A    between atoms: C_2  and  N_11
REMARK    4  A    between atoms: N_9  and  C_10
REMARK    5  A    between atoms: N_14  and  S_17
REMARK    6  A    between atoms: S_17  and  C_20
REMARK    7  A    between atoms: C_22  and  C_30
REMARK    8  A    between atoms: C_24  and  C_26
REMARK                            x       y       z     vdW  Elec       q    Type
REMARK                         _______ _______ _______ _____ _____    ______ ____
ROOT
ATOM      1  N   UNL     1      -2.636   3.869   0.075  0.00  0.00    +0.389 N 
ATOM      2  C   UNL     1      -3.385   3.201  -0.997  0.00  0.00    -0.060 C 
ATOM      3  C   UNL     1      -4.884   3.457  -0.804  0.00  0.00    +0.091 C 
ATOM      4  N   UNL     1      -5.101   4.908  -0.705  0.00  0.00    -0.180 NA
ATOM      5  C   UNL     1      -4.287   5.669   0.254  0.00  0.00    +0.091 C 
ATOM      6  C   UNL     1      -2.812   5.327   0.020  0.00  0.00    -0.060 C 
ATOM      7  H   UNL     1      -3.043   3.520   1.036  0.00  0.00    -0.081 HD
ENDROOT
BRANCH   4   8
ATOM      8  S   UNL     1      -6.234   5.665  -1.647  0.00  0.00    +0.061 S 
ATOM      9  O   UNL     1      -7.186   4.675  -2.011  0.00  0.00    -0.153 OA
ATOM     10  O   UNL     1      -6.597   6.857  -0.966  0.00  0.00    -0.153 OA
BRANCH   8  11
ATOM     11  C   UNL     1      -5.428   6.159  -3.134  0.00  0.00    +0.107 A 
ATOM     12  C   UNL     1      -4.834   7.404  -3.217  0.00  0.00    +0.041 A 
ATOM     13  C   UNL     1      -4.198   7.791  -4.382  0.00  0.00    +0.057 A 
ATOM     14  C   UNL     1      -4.164   6.935  -5.467  0.00  0.00    +0.024 A 
ATOM     15  C   UNL     1      -4.763   5.692  -5.386  0.00  0.00    +0.057 A 
ATOM     16  C   UNL     1      -5.395   5.304  -4.220  0.00  0.00    +0.041 A 
BRANCH  15  17
ATOM     17  C   UNL     1      -4.726   4.759  -6.569  0.00  0.00    +0.417 C 
ATOM     18  F   UNL     1      -5.846   4.986  -7.377  0.00  0.00    -0.166 F 
ATOM     19  F   UNL     1      -3.562   4.991  -7.310  0.00  0.00    -0.166 F 
ATOM     20  F   UNL     1      -4.736   3.434  -6.119  0.00  0.00    -0.166 F 
ENDBRANCH  15  17
BRANCH  13  21
ATOM     21  C   UNL     1      -3.545   9.146  -4.470  0.00  0.00    +0.417 C 
ATOM     22  F   UNL     1      -2.976   9.307  -5.738  0.00  0.00    -0.166 F 
ATOM     23  F   UNL     1      -4.505  10.141  -4.260  0.00  0.00    -0.166 F 
ATOM     24  F   UNL     1      -2.547   9.247  -3.495  0.00  0.00    -0.166 F 
ENDBRANCH  13  21
ENDBRANCH   8  11
ENDBRANCH   4   8
BRANCH   1  26
ATOM     25  C   UNL     1      -0.530   4.276  -1.107  0.00  0.00    -0.004 C 
ATOM     26  C   UNL     1      -1.213   3.508   0.027  0.00  0.00    +0.017 C 
BRANCH  26  27
ATOM     27  C   UNL     1      -0.560   3.864   1.338  0.00  0.00    +0.207 C 
ATOM     28  O   UNL     1      -1.127   4.598   2.118  0.00  0.00    -0.277 OA
ATOM     29  N   UNL     1       0.655   3.365   1.643  0.00  0.00    -0.242 N 
ATOM     30  C   UNL     1       1.239   3.682   2.815  0.00  0.00    +0.306 C 
ATOM     31  O   UNL     1       0.673   4.423   3.595  0.00  0.00    -0.252 OA
ATOM     32  N   UNL     1       2.451   3.179   3.122  0.00  0.00    -0.302 N 
ATOM     33  C   UNL     1       3.086   3.524   4.396  0.00  0.00    +0.129 C 
ATOM     34  H   UNL     1       1.169   2.698   0.934  0.00  0.00    +0.159 HD
ATOM     35  H   UNL     1       2.963   2.509   2.416  0.00  0.00    +0.150 HD
ENDBRANCH  26  27
ENDBRANCH   1  26
TORSDOF 6
