REMARK  Name = ZINC43760914
REMARK  11 active torsions:
REMARK  status: ('A' for Active; 'I' for Inactive)
REMARK    1  A    between atoms: C_1  and  C_2
REMARK    2  A    between atoms: C_2  and  O_3
REMARK    3  A    between atoms: O_3  and  C_4
REMARK    4  A    between atoms: C_6  and  N_19
REMARK    5  A    between atoms: C_8  and  O_18
REMARK    6  A    between atoms: C_10  and  O_17
REMARK    7  A    between atoms: C_12  and  C_15
REMARK    8  A    between atoms: C_15  and  O_16
REMARK    9  A    between atoms: C_20  and  O_22
REMARK   10  A    between atoms: O_22  and  C_23
REMARK   11  A    between atoms: C_23  and  C_24
REMARK                            x       y       z     vdW  Elec       q    Type
REMARK                         _______ _______ _______ _____ _____    ______ ____
ROOT
ATOM      1  C   UNL     1       0.688  -1.980  -1.302  0.00  0.00    +0.273 C 
ATOM      2  C   UNL     1       1.685  -2.266  -2.428  0.00  0.00    +0.163 C 
ATOM      3  C   UNL     1       1.818  -3.781  -2.610  0.00  0.00    +0.171 C 
ATOM      4  C   UNL     1       0.435  -4.373  -2.895  0.00  0.00    +0.176 C 
ATOM      5  C   UNL     1      -0.515  -4.006  -1.751  0.00  0.00    +0.178 C 
ATOM      6  O   UNL     1      -0.569  -2.585  -1.616  0.00  0.00    -0.341 OA
ENDROOT
BRANCH   2   7
ATOM      7  N   UNL     1       1.204  -1.662  -3.673  0.00  0.00    -0.271 N 
ATOM      8  C   UNL     1       2.080  -1.321  -4.639  0.00  0.00    +0.401 C 
ATOM      9  O   UNL     1       3.269  -1.514  -4.477  0.00  0.00    -0.226 OA
ATOM     10  H   UNL     1       0.255  -1.508  -3.802  0.00  0.00    +0.153 HD
BRANCH   8  11
ATOM     11  O   UNL     1       1.638  -0.767  -5.783  0.00  0.00    -0.451 OA
BRANCH  11  12
ATOM     12  C   UNL     1       2.621  -0.430  -6.764  0.00  0.00    +0.230 C 
ATOM     13  C   UNL     1       1.935   0.184  -7.986  0.00  0.00    +0.048 C 
ENDBRANCH  11  12
ENDBRANCH   8  11
ENDBRANCH   2   7
BRANCH   4  14
ATOM     14  O   UNL     1      -0.068  -3.842  -4.123  0.00  0.00    -0.387 OA
ATOM     15  H   UNL     1      -0.943  -4.175  -4.366  0.00  0.00    +0.210 HD
ENDBRANCH   4  14
BRANCH   3  16
ATOM     16  O   UNL     1       2.352  -4.361  -1.418  0.00  0.00    -0.387 OA
ATOM     17  H   UNL     1       2.463  -5.320  -1.462  0.00  0.00    +0.210 HD
ENDBRANCH   3  16
BRANCH   1  18
ATOM     18  O   UNL     1       0.516  -0.568  -1.164  0.00  0.00    -0.350 OA
BRANCH  18  20
ATOM     19  C   UNL     1      -0.339   1.341   0.045  0.00  0.00    +0.034 C 
ATOM     20  C   UNL     1      -0.217  -0.183   0.000  0.00  0.00    +0.159 C 
ENDBRANCH  18  20
ENDBRANCH   1  18
BRANCH   5  21
ATOM     21  C   UNL     1      -1.914  -4.543  -2.057  0.00  0.00    +0.190 C 
BRANCH  21  22
ATOM     22  O   UNL     1      -2.772  -4.303  -0.940  0.00  0.00    -0.392 OA
ATOM     23  H   UNL     1      -3.677  -4.619  -1.064  0.00  0.00    +0.210 HD
ENDBRANCH  21  22
ENDBRANCH   5  21
TORSDOF 9
