REMARK  Name = ZINC34830194
REMARK  7 active torsions:
REMARK  status: ('A' for Active; 'I' for Inactive)
REMARK    1  A    between atoms: C_1  and  C_2
REMARK    2  A    between atoms: C_7  and  C_8
REMARK    3  A    between atoms: N_17  and  C_18
REMARK    4  A    between atoms: C_18  and  C_19
REMARK    5  A    between atoms: C_19  and  C_20
REMARK    6  A    between atoms: C_28  and  C_30
REMARK    7  A    between atoms: C_34  and  N_36
REMARK                            x       y       z     vdW  Elec       q    Type
REMARK                         _______ _______ _______ _____ _____    ______ ____
ROOT
ATOM      1  C   UNL     1      -1.438  -3.772   3.954  0.00  0.00    +0.077 C 
ENDROOT
BRANCH   1   2
ATOM      2  C   UNL     1      -2.925  -3.991   4.070  0.00  0.00    +0.214 C 
ATOM      3  O   UNL     1      -3.673  -3.534   3.232  0.00  0.00    -0.276 OA
ATOM      4  N   UNL     1      -3.423  -4.695   5.106  0.00  0.00    -0.299 N 
ATOM      5  C   UNL     1      -2.529  -5.250   6.133  0.00  0.00    +0.126 C 
ATOM      6  C   UNL     1      -2.988  -4.746   7.506  0.00  0.00    +0.127 C 
ATOM      7  N   UNL     1      -4.435  -4.972   7.630  0.00  0.00    -0.295 N 
ATOM      8  C   UNL     1      -5.329  -4.418   6.604  0.00  0.00    +0.127 C 
ATOM      9  C   UNL     1      -4.870  -4.917   5.233  0.00  0.00    +0.126 C 
ATOM     10  C   UNL     1      -4.933  -5.676   8.666  0.00  0.00    +0.247 C 
ATOM     11  O   UNL     1      -6.119  -5.942   8.706  0.00  0.00    -0.270 OA
BRANCH  10  12
ATOM     12  C   UNL     1      -4.038  -6.125   9.753  0.00  0.00    +0.039 A 
ATOM     13  C   UNL     1      -3.032  -5.281  10.226  0.00  0.00    +0.013 A 
ATOM     14  C   UNL     1      -2.200  -5.705  11.241  0.00  0.00    +0.003 A 
ATOM     15  C   UNL     1      -2.361  -6.965  11.791  0.00  0.00    +0.033 A 
ATOM     16  C   UNL     1      -3.356  -7.807  11.326  0.00  0.00    +0.127 A 
ATOM     17  C   UNL     1      -4.199  -7.392  10.316  0.00  0.00    +0.045 A 
BRANCH  16  18
ATOM     18  N   UNL     1      -3.521  -9.153  11.919  0.00  0.00    +0.056 N 
ATOM     19  O   UNL     1      -2.787  -9.516  12.808  0.00  0.00    -0.126 OA
ATOM     20  O   UNL     1      -4.390  -9.890  11.514  0.00  0.00    -0.126 OA
ENDBRANCH  16  18
ENDBRANCH  10  12
ENDBRANCH   1   2
BRANCH   1  21
ATOM     21  C   UNL     1      -1.141  -2.949   2.699  0.00  0.00    -0.068 C 
BRANCH  21  30
ATOM     22  C   UNL     1       0.597  -2.050   1.319  0.00  0.00    -0.006 C 
ATOM     23  C   UNL     1       2.089  -1.740   1.256  0.00  0.00    -0.047 A 
ATOM     24  C   UNL     1       2.778  -1.459   0.079  0.00  0.00    +0.010 A 
ATOM     25  C   UNL     1       4.105  -1.198   0.117  0.00  0.00    +0.045 A 
ATOM     26  S   UNL     1       4.459  -1.338   1.864  0.00  0.00    -0.101 S 
ATOM     27  C   UNL     1       2.821  -1.730   2.406  0.00  0.00    -0.010 A 
ATOM     28  C   UNL     1       2.310  -1.994   3.785  0.00  0.00    +0.024 C 
ATOM     29  C   UNL     1       0.773  -1.938   3.728  0.00  0.00    -0.072 C 
ATOM     30  N   UNL     1       0.308  -2.735   2.585  0.00  0.00    +0.388 N 
ATOM     31  H   UNL     1       0.776  -3.629   2.593  0.00  0.00    -0.080 HD
BRANCH  22  38
ATOM     32  C   UNL     1      -0.101  -0.887  -1.232  0.00  0.00    +0.044 C 
ATOM     33  C   UNL     1      -0.117  -2.384  -1.056  0.00  0.00    -0.049 A 
ATOM     34  C   UNL     1      -0.461  -3.200  -2.117  0.00  0.00    +0.003 A 
ATOM     35  C   UNL     1      -0.476  -4.573  -1.956  0.00  0.00    +0.000 A 
ATOM     36  C   UNL     1      -0.148  -5.129  -0.734  0.00  0.00    +0.000 A 
ATOM     37  C   UNL     1       0.197  -4.313   0.327  0.00  0.00    +0.002 A 
ATOM     38  C   UNL     1       0.216  -2.940   0.164  0.00  0.00    -0.054 A 
ENDBRANCH  22  38
ENDBRANCH  21  30
ENDBRANCH   1  21
TORSDOF 6
