REMARK  Name = ZINC36259507
REMARK  11 active torsions:
REMARK  status: ('A' for Active; 'I' for Inactive)
REMARK    1  A    between atoms: C_1  and  C_2
REMARK    2  A    between atoms: C_2  and  C_4
REMARK    3  A    between atoms: C_2  and  S_16
REMARK    4  A    between atoms: N_6  and  C_7
REMARK    5  A    between atoms: C_10  and  N_13
REMARK    6  A    between atoms: N_13  and  C_14
REMARK    7  A    between atoms: N_13  and  C_15
REMARK    8  A    between atoms: S_16  and  C_17
REMARK    9  A    between atoms: C_20  and  C_29
REMARK   10  A    between atoms: N_21  and  C_22
REMARK   11  A    between atoms: C_22  and  C_23
REMARK                            x       y       z     vdW  Elec       q    Type
REMARK                         _______ _______ _______ _____ _____    ______ ____
ROOT
ATOM      1  C   UNL     1      -0.483  -0.185  -3.096  0.00  0.00    +0.193 A 
ATOM      2  N   UNL     1      -1.489   0.656  -3.032  0.00  0.00    -0.122 NA
ATOM      3  N   UNL     1      -1.976   0.853  -4.205  0.00  0.00    -0.128 NA
ATOM      4  C   UNL     1      -1.310   0.149  -5.091  0.00  0.00    +0.167 A 
ATOM      5  N   UNL     1      -0.330  -0.534  -4.410  0.00  0.00    -0.300 N 
ENDROOT
BRANCH   4   6
ATOM      6  C   UNL     1      -1.563   0.103  -6.545  0.00  0.00    +0.044 A 
ATOM      7  C   UNL     1      -0.635   0.187  -7.533  0.00  0.00    +0.095 A 
ATOM      8  N   UNL     1      -1.249   0.107  -8.750  0.00  0.00    -0.360 N 
ATOM      9  H   UNL     1      -0.793   0.143  -9.605  0.00  0.00    +0.165 HD
ATOM     10  C   UNL     1      -2.611  -0.034  -8.588  0.00  0.00    +0.047 A 
ATOM     11  C   UNL     1      -2.871  -0.048  -7.207  0.00  0.00    +0.010 A 
ATOM     12  C   UNL     1      -4.178  -0.186  -6.744  0.00  0.00    +0.011 A 
ATOM     13  C   UNL     1      -5.211  -0.311  -7.647  0.00  0.00    +0.001 A 
ATOM     14  C   UNL     1      -4.955  -0.300  -9.011  0.00  0.00    +0.002 A 
ATOM     15  C   UNL     1      -3.669  -0.157  -9.482  0.00  0.00    +0.026 A 
ENDBRANCH   4   6
BRANCH   1  16
ATOM     16  S   UNL     1       0.491  -0.754  -1.743  0.00  0.00    -0.074 S 
BRANCH  16  18
ATOM     17  C   UNL     1      -0.019   1.590  -0.428  0.00  0.00    +0.029 C 
ATOM     18  C   UNL     1      -0.229   0.080  -0.302  0.00  0.00    +0.137 C 
BRANCH  18  19
ATOM     19  C   UNL     1       0.441  -0.417   0.953  0.00  0.00    +0.230 C 
ATOM     20  O   UNL     1       1.565  -0.870   0.902  0.00  0.00    -0.274 OA
ATOM     21  N   UNL     1      -0.209  -0.358   2.133  0.00  0.00    -0.285 N 
ATOM     22  H   UNL     1      -1.079   0.068   2.187  0.00  0.00    +0.155 HD
BRANCH  21  23
ATOM     23  C   UNL     1       0.372  -0.913   3.281  0.00  0.00    +0.034 A 
ATOM     24  C   UNL     1      -0.427  -1.532   4.233  0.00  0.00    +0.025 A 
ATOM     25  C   UNL     1       0.144  -2.079   5.364  0.00  0.00    +0.025 A 
ATOM     26  C   UNL     1       1.519  -2.011   5.550  0.00  0.00    +0.029 A 
ATOM     27  C   UNL     1       2.318  -1.392   4.597  0.00  0.00    +0.025 A 
ATOM     28  C   UNL     1       1.747  -0.850   3.464  0.00  0.00    +0.025 A 
BRANCH  26  29
ATOM     29  N   UNL     1       2.099  -2.565   6.696  0.00  0.00    -0.336 N 
ATOM     30  C   UNL     1       1.273  -3.318   7.644  0.00  0.00    +0.129 C 
ATOM     31  C   UNL     1       3.531  -2.393   6.949  0.00  0.00    +0.129 C 
ENDBRANCH  26  29
ENDBRANCH  21  23
ENDBRANCH  18  19
ENDBRANCH  16  18
ENDBRANCH   1  16
BRANCH   5  32
ATOM     32  C   UNL     1       0.669  -1.446  -4.973  0.00  0.00    +0.157 C 
BRANCH  32  33
ATOM     33  C   UNL     1       0.066  -2.846  -5.102  0.00  0.00    +0.138 C 
ATOM     34  C   UNL     1       1.076  -3.806  -5.780  0.00  0.00    +0.035 C 
ATOM     35  C   UNL     1       0.587  -5.177  -5.240  0.00  0.00    +0.031 C 
ATOM     36  C   UNL     1       0.098  -4.815  -3.821  0.00  0.00    +0.160 C 
ATOM     37  O   UNL     1      -0.173  -3.407  -3.802  0.00  0.00    -0.375 OA
ENDBRANCH  32  33
ENDBRANCH   5  32
TORSDOF 8
