REMARK  Name = ZINC23788863
REMARK  12 active torsions:
REMARK  status: ('A' for Active; 'I' for Inactive)
REMARK    1  A    between atoms: C_1  and  C_2
REMARK    2  A    between atoms: C_2  and  C_26
REMARK    3  A    between atoms: N_5  and  C_9
REMARK    4  A    between atoms: C_9  and  C_10
REMARK    5  A    between atoms: N_12  and  C_13
REMARK    6  A    between atoms: C_13  and  C_14
REMARK    7  A    between atoms: C_14  and  C_16
REMARK    8  A    between atoms: C_14  and  N_23
REMARK    9  A    between atoms: N_23  and  C_24
REMARK   10  A    between atoms: N_23  and  C_25
REMARK   11  A    between atoms: C_29  and  O_32
REMARK   12  A    between atoms: O_32  and  C_33
REMARK                            x       y       z     vdW  Elec       q    Type
REMARK                         _______ _______ _______ _____ _____    ______ ____
ROOT
ATOM      1  C   UNL     1       2.082   1.622   3.518  0.00  0.00    +0.213 C 
ENDROOT
BRANCH   1   6
ATOM      2  C   UNL     1       2.247   0.542  -1.051  0.00  0.00    +0.047 C 
ATOM      3  C   UNL     1       1.177   0.820   0.006  0.00  0.00    +0.135 C 
ATOM      4  C   UNL     1       1.669   0.418   1.382  0.00  0.00    +0.251 C 
ATOM      5  O   UNL     1       1.991  -0.692   1.749  0.00  0.00    -0.272 OA
ATOM      6  N   UNL     1       1.673   1.550   2.113  0.00  0.00    -0.215 N 
ATOM      7  C   UNL     1       1.256   2.601   1.397  0.00  0.00    +0.310 C 
ATOM      8  O   UNL     1       1.173   3.730   1.840  0.00  0.00    -0.252 OA
ATOM      9  N   UNL     1       0.938   2.268   0.133  0.00  0.00    -0.281 N 
ATOM     10  H   UNL     1       0.568   2.843  -0.729  0.00  0.00    +0.152 HD
BRANCH   3  11
ATOM     11  C   UNL     1      -0.101   0.097  -0.333  0.00  0.00    -0.015 A 
ATOM     12  C   UNL     1      -0.318  -1.182   0.147  0.00  0.00    +0.010 A 
ATOM     13  C   UNL     1      -1.491  -1.845  -0.157  0.00  0.00    +0.046 A 
ATOM     14  C   UNL     1      -2.447  -1.231  -0.954  0.00  0.00    +0.120 A 
ATOM     15  C   UNL     1      -2.224   0.049  -1.439  0.00  0.00    +0.046 A 
ATOM     16  C   UNL     1      -1.052   0.711  -1.127  0.00  0.00    +0.010 A 
BRANCH  14  17
ATOM     17  O   UNL     1      -3.599  -1.884  -1.260  0.00  0.00    -0.495 OA
ATOM     18  C   UNL     1      -3.760  -3.200  -0.727  0.00  0.00    +0.277 C 
ENDBRANCH  14  17
ENDBRANCH   3  11
ENDBRANCH   1   6
BRANCH   1  19
ATOM     19  C   UNL     1       3.561   1.902   3.596  0.00  0.00    +0.231 C 
ATOM     20  O   UNL     1       4.209   2.029   2.579  0.00  0.00    -0.274 OA
ATOM     21  N   UNL     1       4.163   2.010   4.797  0.00  0.00    -0.315 N 
ATOM     22  H   UNL     1       3.576   1.895   5.720  0.00  0.00    +0.149 HD
BRANCH  21  23
ATOM     23  C   UNL     1       5.601   2.283   4.874  0.00  0.00    +0.093 C 
BRANCH  23  24
ATOM     24  C   UNL     1       6.010   2.456   6.338  0.00  0.00    -0.020 C 
BRANCH  24  25
ATOM     25  C   UNL     1       5.842   1.147   7.065  0.00  0.00    -0.041 A 
ATOM     26  C   UNL     1       4.678   0.889   7.764  0.00  0.00    +0.003 A 
ATOM     27  C   UNL     1       4.524  -0.312   8.432  0.00  0.00    +0.000 A 
ATOM     28  C   UNL     1       5.534  -1.255   8.400  0.00  0.00    +0.001 A 
ATOM     29  C   UNL     1       6.698  -0.999   7.700  0.00  0.00    +0.020 A 
ATOM     30  C   UNL     1       6.851   0.201   7.028  0.00  0.00    +0.043 A 
ATOM     31 CL   UNL     1       8.310   0.521   6.144  0.00  0.00    -0.083 Cl
ENDBRANCH  24  25
BRANCH  24  32
ATOM     32  N   UNL     1       5.160   3.477   6.965  0.00  0.00    +0.382 N 
ATOM     33  C   UNL     1       5.628   3.790   8.322  0.00  0.00    -0.096 C 
ATOM     34  C   UNL     1       5.096   4.690   6.138  0.00  0.00    -0.096 C 
ATOM     35  H   UNL     1       4.143   3.068   7.045  0.00  0.00    -0.082 HD
ENDBRANCH  24  32
ENDBRANCH  23  24
ENDBRANCH  21  23
ENDBRANCH   1  19
TORSDOF 8
