REMARK  Name = ZINC44731315
REMARK  9 active torsions:
REMARK  status: ('A' for Active; 'I' for Inactive)
REMARK    1  A    between atoms: C_1  and  C_2
REMARK    2  A    between atoms: C_4  and  C_8
REMARK    3  A    between atoms: C_5  and  C_7
REMARK    4  A    between atoms: C_8  and  C_10
REMARK    5  A    between atoms: C_8  and  N_11
REMARK    6  A    between atoms: C_12  and  C_14
REMARK    7  A    between atoms: C_14  and  C_15
REMARK    8  A    between atoms: C_15  and  C_17
REMARK    9  A    between atoms: C_15  and  N_18
REMARK                            x       y       z     vdW  Elec       q    Type
REMARK                         _______ _______ _______ _____ _____    ______ ____
ROOT
ATOM      1  N   UNL     1      -2.786  -3.079   0.471  0.00  0.00    -0.309 N 
ATOM      2  C   UNL     1      -3.542  -4.045   1.030  0.00  0.00    +0.212 C 
ATOM      3  O   UNL     1      -3.106  -5.171   1.135  0.00  0.00    -0.276 OA
ATOM      4  H   UNL     1      -3.135  -2.178   0.387  0.00  0.00    +0.149 HD
ENDROOT
BRANCH   1   5
ATOM      5  C   UNL     1      -1.437  -3.390  -0.009  0.00  0.00    +0.103 C 
ATOM      6  C   UNL     1      -1.518  -3.946  -1.432  0.00  0.00    +0.033 C 
BRANCH   5  10
ATOM      7  C   UNL     1      -0.018   1.503   0.010  0.00  0.00    +0.086 C 
ATOM      8  C   UNL     1       0.002  -0.004   0.002  0.00  0.00    +0.103 A 
ATOM      9  C   UNL     1      -1.078  -0.805   0.003  0.00  0.00    +0.050 A 
ATOM     10  C   UNL     1      -0.601  -2.136  -0.007  0.00  0.00    +0.013 A 
ATOM     11  C   UNL     1       0.742  -2.069  -0.013  0.00  0.00    +0.107 A 
ATOM     12  O   UNL     1       1.102  -0.775  -0.013  0.00  0.00    -0.465 OA
ATOM     13  C   UNL     1       1.684  -3.245  -0.023  0.00  0.00    +0.086 C 
ENDBRANCH   5  10
ENDBRANCH   1   5
BRANCH   2  14
ATOM     14  C   UNL     1      -4.929  -3.724   1.524  0.00  0.00    +0.079 C 
BRANCH  14  15
ATOM     15  C   UNL     1      -5.566  -4.986   2.108  0.00  0.00    -0.070 C 
ATOM     16  C   UNL     1      -6.923  -4.635   2.722  0.00  0.00    -0.014 C 
BRANCH  15  17
ATOM     17  N   UNL     1      -5.753  -5.980   1.042  0.00  0.00    +0.380 N 
ATOM     18  H   UNL     1      -4.858  -6.211   0.638  0.00  0.00    -0.090 HD
ATOM     19  H   UNL     1      -6.173  -6.812   1.428  0.00  0.00    -0.090 HD
ATOM     20  H   UNL     1      -6.356  -5.598   0.329  0.00  0.00    -0.090 HD
ENDBRANCH  15  17
ENDBRANCH  14  15
ENDBRANCH   2  14
TORSDOF 5
