REMARK  Name = ZINC12652315
REMARK  4 active torsions:
REMARK  status: ('A' for Active; 'I' for Inactive)
REMARK    1  A    between atoms: C_10  and  C_22
REMARK    2  A    between atoms: N_15  and  C_16
REMARK    3  A    between atoms: C_16  and  C_17
REMARK    4  A    between atoms: C_32  and  C_35
REMARK                            x       y       z     vdW  Elec       q    Type
REMARK                         _______ _______ _______ _____ _____    ______ ____
ROOT
ATOM      1  C   UNL     1      -1.063   5.950   0.247  0.00  0.00    +0.002 A 
ATOM      2  C   UNL     1      -0.578   5.210   1.311  0.00  0.00    +0.002 A 
ATOM      3  C   UNL     1      -0.581   3.827   1.262  0.00  0.00    +0.025 A 
ATOM      4  C   UNL     1      -1.073   3.184   0.143  0.00  0.00    +0.060 A 
ATOM      5  C   UNL     1      -1.513   3.930  -0.946  0.00  0.00    +0.053 A 
ATOM      6  C   UNL     1      -1.533   5.312  -0.888  0.00  0.00    +0.025 A 
ATOM      7  N   UNL     1      -1.914   3.225  -2.076  0.00  0.00    -0.316 N 
ATOM      8  C   UNL     1      -2.971   2.374  -2.123  0.00  0.00    +0.017 C 
ATOM      9  C   UNL     1      -3.233   1.413  -1.225  0.00  0.00    +0.037 C 
ATOM     10  C   UNL     1      -2.428   1.118   0.020  0.00  0.00    +0.148 C 
ATOM     11  N   UNL     1      -1.149   1.794   0.072  0.00  0.00    -0.242 N 
ATOM     12  C   UNL     1      -0.013   1.067   0.059  0.00  0.00    +0.308 C 
ATOM     13  O   UNL     1      -0.069  -0.146   0.003  0.00  0.00    -0.252 OA
ATOM     14  N   UNL     1       1.183   1.686   0.102  0.00  0.00    -0.292 N 
ATOM     15  C   UNL     1      -4.348   0.558  -1.397  0.00  0.00    +0.163 C 
ATOM     16  O   UNL     1      -4.568  -0.294  -0.558  0.00  0.00    -0.292 OA
ATOM     17  C   UNL     1      -5.267   0.665  -2.576  0.00  0.00    +0.091 C 
ATOM     18  C   UNL     1      -4.479   1.242  -3.758  0.00  0.00    +0.068 C 
ATOM     19  C   UNL     1      -3.892   2.581  -3.316  0.00  0.00    +0.063 C 
ATOM     20  H   UNL     1      -1.401   3.351  -2.890  0.00  0.00    +0.152 HD
ATOM     21  H   UNL     1       1.227   2.654   0.147  0.00  0.00    +0.151 HD
ENDROOT
BRANCH  10  22
ATOM     22  C   UNL     1      -3.238   1.532   1.221  0.00  0.00    -0.022 A 
ATOM     23  C   UNL     1      -3.681   0.577   2.118  0.00  0.00    +0.007 A 
ATOM     24  C   UNL     1      -4.419   0.957   3.223  0.00  0.00    +0.020 A 
ATOM     25  C   UNL     1      -4.725   2.291   3.425  0.00  0.00    +0.041 A 
ATOM     26  C   UNL     1      -4.287   3.245   2.524  0.00  0.00    +0.020 A 
ATOM     27  C   UNL     1      -3.543   2.865   1.423  0.00  0.00    +0.007 A 
ATOM     28 CL   UNL     1      -5.659   2.768   4.808  0.00  0.00    -0.084 Cl
ENDBRANCH  10  22
BRANCH  18  29
ATOM     29  C   UNL     1      -5.400   1.452  -4.933  0.00  0.00    +0.109 A 
ATOM     30  C   UNL     1      -5.276   0.876  -6.142  0.00  0.00    +0.045 A 
ATOM     31  C   UNL     1      -6.348   1.350  -6.933  0.00  0.00    +0.041 A 
ATOM     32  C   UNL     1      -7.063   2.187  -6.160  0.00  0.00    +0.195 A 
ATOM     33  O   UNL     1      -6.488   2.240  -4.947  0.00  0.00    -0.468 OA
ENDBRANCH  18  29
BRANCH  14  34
ATOM     34  C   UNL     1       2.417   0.896   0.082  0.00  0.00    +0.180 C 
BRANCH  34  35
ATOM     35  C   UNL     1       3.606   1.821   0.139  0.00  0.00    +0.122 A 
ATOM     36  C   UNL     1       4.213   2.254   1.259  0.00  0.00    +0.046 A 
ATOM     37  C   UNL     1       5.273   3.095   0.851  0.00  0.00    +0.041 A 
ATOM     38  C   UNL     1       5.251   3.126  -0.494  0.00  0.00    +0.195 A 
ATOM     39  O   UNL     1       4.243   2.348  -0.920  0.00  0.00    -0.466 OA
ENDBRANCH  34  35
ENDBRANCH  14  34
TORSDOF 4
