REMARK  Name = ZINC35428893
REMARK  7 active torsions:
REMARK  status: ('A' for Active; 'I' for Inactive)
REMARK    1  A    between atoms: C_1  and  C_2
REMARK    2  A    between atoms: N_8  and  S_9
REMARK    3  A    between atoms: S_9  and  C_12
REMARK    4  A    between atoms: N_22  and  C_23
REMARK    5  A    between atoms: C_23  and  C_24
REMARK    6  A    between atoms: N_26  and  C_27
REMARK    7  A    between atoms: C_27  and  C_28
REMARK                            x       y       z     vdW  Elec       q    Type
REMARK                         _______ _______ _______ _____ _____    ______ ____
ROOT
ATOM      1  C   UNL     1       0.122   0.795   3.656  0.00  0.00    +0.106 A 
ATOM      2  C   UNL     1      -0.881   1.738   3.522  0.00  0.00    +0.030 A 
ATOM      3  C   UNL     1      -1.798   1.923   4.537  0.00  0.00    +0.026 A 
ATOM      4  C   UNL     1      -1.712   1.159   5.694  0.00  0.00    +0.040 A 
ATOM      5  C   UNL     1      -0.704   0.213   5.825  0.00  0.00    -0.024 A 
ATOM      6  C   UNL     1       0.207   0.030   4.804  0.00  0.00    +0.034 A 
ATOM      7  C   UNL     1      -0.612  -0.615   7.080  0.00  0.00    +0.046 C 
ATOM      8  C   UNL     1      -1.062   0.221   8.279  0.00  0.00    +0.101 C 
ATOM      9  C   UNL     1      -2.369   0.900   7.969  0.00  0.00    +0.221 C 
ATOM     10  O   UNL     1      -3.189   1.052   8.850  0.00  0.00    -0.275 OA
ATOM     11  N   UNL     1      -2.638   1.340   6.726  0.00  0.00    -0.262 N 
ENDROOT
BRANCH   1  12
ATOM     12  S   UNL     1       1.290   0.564   2.357  0.00  0.00    +0.061 S 
ATOM     13  O   UNL     1       2.381  -0.155   2.915  0.00  0.00    -0.153 OA
ATOM     14  O   UNL     1       1.453   1.827   1.727  0.00  0.00    -0.153 OA
BRANCH  12  21
ATOM     15  C   UNL     1       1.418  -2.247   2.664  0.00  0.00    +0.026 C 
ATOM     16  C   UNL     1       0.577  -1.891   1.437  0.00  0.00    +0.077 C 
ATOM     17  C   UNL     1       1.169  -2.565   0.196  0.00  0.00    +0.020 C 
ATOM     18  C   UNL     1       0.409  -2.095  -1.047  0.00  0.00    +0.003 C 
ATOM     19  C   UNL     1       0.564  -0.580  -1.199  0.00  0.00    +0.017 C 
ATOM     20  C   UNL     1      -0.034   0.117   0.027  0.00  0.00    +0.110 C 
ATOM     21  N   UNL     1       0.587  -0.435   1.239  0.00  0.00    -0.174 NA
ENDBRANCH  12  21
ENDBRANCH   1  12
BRANCH  11  22
ATOM     22  C   UNL     1      -3.910   2.014   6.453  0.00  0.00    +0.209 C 
BRANCH  22  23
ATOM     23  C   UNL     1      -4.941   0.995   6.045  0.00  0.00    +0.231 C 
ATOM     24  O   UNL     1      -4.644  -0.180   5.987  0.00  0.00    -0.274 OA
ATOM     25  N   UNL     1      -6.195   1.388   5.743  0.00  0.00    -0.310 N 
ATOM     26  H   UNL     1      -6.433   2.327   5.788  0.00  0.00    +0.149 HD
BRANCH  25  27
ATOM     27  C   UNL     1      -7.198   0.396   5.346  0.00  0.00    +0.139 C 
BRANCH  27  28
ATOM     28  C   UNL     1      -8.506   1.090   5.064  0.00  0.00    -0.027 A 
ATOM     29  C   UNL     1      -9.421   1.276   6.084  0.00  0.00    +0.009 A 
ATOM     30  C   UNL     1     -10.622   1.912   5.831  0.00  0.00    +0.050 A 
ATOM     31  C   UNL     1     -10.911   2.365   4.554  0.00  0.00    +0.166 A 
ATOM     32  C   UNL     1      -9.989   2.177   3.527  0.00  0.00    +0.167 A 
ATOM     33  C   UNL     1      -8.785   1.544   3.789  0.00  0.00    +0.054 A 
ATOM     34  O   UNL     1     -10.503   2.705   2.378  0.00  0.00    -0.453 OA
ATOM     35  C   UNL     1     -11.915   2.852   2.620  0.00  0.00    +0.466 C 
ATOM     36  O   UNL     1     -12.003   3.010   4.048  0.00  0.00    -0.453 OA
ENDBRANCH  27  28
ENDBRANCH  25  27
ENDBRANCH  22  23
ENDBRANCH  11  22
TORSDOF 6
