REMARK  Name = ZINC66589147
REMARK  7 active torsions:
REMARK  status: ('A' for Active; 'I' for Inactive)
REMARK    1  A    between atoms: C_1  and  C_2
REMARK    2  A    between atoms: C_5  and  S_11
REMARK    3  A    between atoms: C_6  and  N_8
REMARK    4  A    between atoms: S_11  and  N_14
REMARK    5  A    between atoms: N_14  and  N_15
REMARK    6  A    between atoms: C_16  and  C_18
REMARK    7  A    between atoms: C_18  and  C_19
REMARK                            x       y       z     vdW  Elec       q    Type
REMARK                         _______ _______ _______ _____ _____    ______ ____
ROOT
ATOM      1  S   UNL     1      -0.074  -4.688  -0.244  0.00  0.00    +0.076 S 
ATOM      2  O   UNL     1      -1.121  -5.290   0.505  0.00  0.00    -0.152 OA
ATOM      3  O   UNL     1      -0.119  -4.574  -1.660  0.00  0.00    -0.152 OA
ENDROOT
BRANCH   1   8
ATOM      4  C   UNL     1       0.601   0.903   1.921  0.00  0.00    +0.044 C 
ATOM      5  C   UNL     1       0.432  -0.493   1.380  0.00  0.00    -0.048 A 
ATOM      6  C   UNL     1      -0.591  -1.297   1.848  0.00  0.00    +0.005 A 
ATOM      7  C   UNL     1      -0.745  -2.578   1.352  0.00  0.00    +0.031 A 
ATOM      8  C   UNL     1       0.122  -3.055   0.387  0.00  0.00    +0.137 A 
ATOM      9  C   UNL     1       1.144  -2.251  -0.082  0.00  0.00    +0.153 A 
ATOM     10  C   UNL     1       1.296  -0.968   0.412  0.00  0.00    +0.038 A 
BRANCH   9  11
ATOM     11  N   UNL     1       2.073  -2.762  -1.114  0.00  0.00    +0.058 N 
ATOM     12  O   UNL     1       2.884  -2.020  -1.619  0.00  0.00    -0.126 OA
ATOM     13  O   UNL     1       2.022  -3.921  -1.453  0.00  0.00    -0.126 OA
ENDBRANCH   9  11
ENDBRANCH   1   8
BRANCH   1  14
ATOM     14  N   UNL     1       1.309  -5.523   0.119  0.00  0.00    -0.108 NA
ATOM     15  H   UNL     1       1.812  -5.959  -0.586  0.00  0.00    +0.172 HD
BRANCH  14  16
ATOM     16  N   UNL     1       1.752  -5.600   1.446  0.00  0.00    -0.232 N 
ATOM     17  C   UNL     1       1.959  -6.803   2.019  0.00  0.00    +0.228 C 
ATOM     18  O   UNL     1       1.762  -7.818   1.385  0.00  0.00    -0.274 OA
ATOM     19  H   UNL     1       1.911  -4.788   1.952  0.00  0.00    +0.171 HD
BRANCH  17  20
ATOM     20  C   UNL     1       2.437  -6.886   3.446  0.00  0.00    +0.100 C 
BRANCH  20  21
ATOM     21  C   UNL     1       2.590  -8.354   3.848  0.00  0.00    -0.002 C 
ATOM     22  C   UNL     1       1.218  -9.031   3.840  0.00  0.00    +0.004 C 
ATOM     23  C   UNL     1       1.372 -10.499   4.242  0.00  0.00    +0.000 C 
ATOM     24  C   UNL     1       1.974 -10.583   5.646  0.00  0.00    +0.000 C 
ATOM     25  C   UNL     1       3.346  -9.906   5.654  0.00  0.00    +0.000 C 
ATOM     26  C   UNL     1       3.192  -8.438   5.252  0.00  0.00    +0.004 C 
ENDBRANCH  20  21
ENDBRANCH  17  20
ENDBRANCH  14  16
ENDBRANCH   1  14
TORSDOF 6
