REMARK  Name = ZINC00707316
REMARK  6 active torsions:
REMARK  status: ('A' for Active; 'I' for Inactive)
REMARK    1  A    between atoms: C_1  and  C_2
REMARK    2  A    between atoms: C_2  and  C_34
REMARK    3  A    between atoms: C_6  and  C_22
REMARK    4  A    between atoms: C_8  and  C_20
REMARK    5  A    between atoms: C_9  and  N_19
REMARK    6  A    between atoms: N_10  and  C_11
REMARK                            x       y       z     vdW  Elec       q    Type
REMARK                         _______ _______ _______ _____ _____    ______ ____
ROOT
ATOM      1  C   UNL     1       0.597  -0.641  -3.545  0.00  0.00    +0.011 C 
ATOM      2  C   UNL     1       2.048  -1.096  -3.709  0.00  0.00    -0.023 C 
ATOM      3  C   UNL     1       2.461  -1.944  -2.504  0.00  0.00    +0.058 C 
ATOM      4  C   UNL     1       2.368  -1.116  -1.246  0.00  0.00    +0.025 C 
ATOM      5  C   UNL     1       2.578   0.218  -1.274  0.00  0.00    +0.025 C 
ATOM      6  C   UNL     1       2.489   1.043  -0.015  0.00  0.00    +0.097 C 
ATOM      7  C   UNL     1       2.582   0.178   1.208  0.00  0.00    +0.077 C 
ATOM      8  C   UNL     1       2.368  -1.161   1.138  0.00  0.00    +0.107 C 
ATOM      9  N   UNL     1       2.070  -1.751  -0.070  0.00  0.00    -0.257 N 
ATOM     10  C   UNL     1       2.882   0.878  -2.477  0.00  0.00    +0.162 C 
ATOM     11  O   UNL     1       3.079   2.077  -2.466  0.00  0.00    -0.292 OA
ATOM     12  C   UNL     1       2.967   0.129  -3.779  0.00  0.00    +0.086 C 
ATOM     13  C   UNL     1       2.188  -1.917  -4.993  0.00  0.00    +0.011 C 
ENDROOT
BRANCH   6  14
ATOM     14  C   UNL     1       1.176   1.782   0.000  0.00  0.00    -0.031 A 
ATOM     15  C   UNL     1      -0.013   1.076   0.008  0.00  0.00    +0.008 A 
ATOM     16  C   UNL     1      -1.220   1.749   0.017  0.00  0.00    +0.050 A 
ATOM     17  C   UNL     1      -1.241   3.134   0.029  0.00  0.00    +0.166 A 
ATOM     18  C   UNL     1      -0.044   3.846   0.022  0.00  0.00    +0.167 A 
ATOM     19  C   UNL     1       1.163   3.164   0.007  0.00  0.00    +0.054 A 
ATOM     20  O   UNL     1      -0.329   5.180   0.031  0.00  0.00    -0.453 OA
ATOM     21  C   UNL     1      -1.701   5.277   0.456  0.00  0.00    +0.466 C 
ATOM     22  O   UNL     1      -2.277   4.024   0.043  0.00  0.00    -0.453 OA
ENDBRANCH   6  14
BRANCH   9  23
ATOM     23  C   UNL     1       1.456  -3.010  -0.096  0.00  0.00    +0.075 A 
ATOM     24  C   UNL     1       0.071  -3.109  -0.093  0.00  0.00    +0.028 A 
ATOM     25  C   UNL     1      -0.531  -4.351  -0.123  0.00  0.00    +0.017 A 
ATOM     26  C   UNL     1       0.243  -5.498  -0.147  0.00  0.00    +0.021 A 
ATOM     27  C   UNL     1       1.623  -5.404  -0.144  0.00  0.00    +0.055 A 
ATOM     28  C   UNL     1       2.233  -4.163  -0.118  0.00  0.00    +0.146 A 
ATOM     29  F   UNL     1       3.581  -4.072  -0.115  0.00  0.00    -0.203 F 
ATOM     30 BR   UNL     1      -0.588  -7.197  -0.181  0.00  0.00    -0.050 Br
ENDBRANCH   9  23
BRANCH   8  31
ATOM     31  N   UNL     1       2.450  -1.929   2.275  0.00  0.00    -0.345 N 
ATOM     32  H   UNL     1       2.659  -1.514   3.126  0.00  0.00    +0.144 HD
ATOM     33  H   UNL     1       2.297  -2.886   2.226  0.00  0.00    +0.144 HD
ENDBRANCH   8  31
BRANCH   7  34
ATOM     34  C   UNL     1       2.901   0.775   2.469  0.00  0.00    +0.099 C 
ATOM     35  N   UNL     1       3.154   1.249   3.470  0.00  0.00    -0.191 NA
ENDBRANCH   7  34
TORSDOF 4
