REMARK  Name = ZINC53750555
REMARK  5 active torsions:
REMARK  status: ('A' for Active; 'I' for Inactive)
REMARK    1  A    between atoms: C_1  and  C_2
REMARK    2  A    between atoms: C_7  and  C_10
REMARK    3  A    between atoms: N_15  and  C_16
REMARK    4  A    between atoms: C_16  and  C_17
REMARK    5  A    between atoms: C_16  and  C_18
REMARK                            x       y       z     vdW  Elec       q    Type
REMARK                         _______ _______ _______ _____ _____    ______ ____
ROOT
ATOM      1  C   UNL     1       1.492  -2.540   2.454  0.00  0.00    +0.176 A 
ATOM      2  N   UNL     1       0.972  -3.328   3.399  0.00  0.00    -0.178 NA
ATOM      3  C   UNL     1       1.873  -3.576   4.322  0.00  0.00    +0.315 A 
ATOM      4  O   UNL     1       3.006  -2.941   3.978  0.00  0.00    -0.317 OA
ATOM      5  N   UNL     1       2.732  -2.277   2.754  0.00  0.00    -0.059 NA
ATOM      6  N   UNL     1       1.690  -4.350   5.443  0.00  0.00    -0.295 N 
ATOM      7  H   UNL     1       0.831  -4.770   5.607  0.00  0.00    +0.151 HD
ENDROOT
BRANCH   1  13
ATOM      8  C   UNL     1      -0.019   1.526   0.010  0.00  0.00    +0.007 C 
ATOM      9  C   UNL     1       0.002  -0.004   0.002  0.00  0.00    -0.013 C 
ATOM     10  C   UNL     1       0.718  -0.497  -1.257  0.00  0.00    +0.003 C 
ATOM     11  C   UNL     1       0.739  -2.027  -1.265  0.00  0.00    +0.001 C 
ATOM     12  C   UNL     1       1.479  -2.534  -0.026  0.00  0.00    +0.011 C 
ATOM     13  C   UNL     1       0.763  -2.041   1.233  0.00  0.00    +0.061 C 
ATOM     14  C   UNL     1       0.742  -0.511   1.242  0.00  0.00    +0.014 C 
ENDBRANCH   1  13
BRANCH   6  15
ATOM     15  C   UNL     1       2.791  -4.540   6.390  0.00  0.00    +0.068 C 
ATOM     16  C   UNL     1       2.224  -4.865   7.773  0.00  0.00    +0.027 C 
ATOM     17  C   UNL     1       3.677  -5.694   5.917  0.00  0.00    +0.027 C 
ENDBRANCH   6  15
TORSDOF 2
