REMARK  Name = ZINC58687003
REMARK  10 active torsions:
REMARK  status: ('A' for Active; 'I' for Inactive)
REMARK    1  A    between atoms: C_1  and  C_2
REMARK    2  A    between atoms: C_2  and  N_3
REMARK    3  A    between atoms: N_3  and  C_4
REMARK    4  A    between atoms: N_3  and  C_6
REMARK    5  A    between atoms: C_4  and  C_5
REMARK    6  A    between atoms: C_6  and  C_7
REMARK    7  A    between atoms: C_12  and  C_13
REMARK    8  A    between atoms: C_13  and  N_14
REMARK    9  A    between atoms: N_20  and  S_23
REMARK   10  A    between atoms: S_23  and  C_26
REMARK                            x       y       z     vdW  Elec       q    Type
REMARK                         _______ _______ _______ _____ _____    ______ ____
ROOT
ATOM      1  N   UNL     1      -1.753  -3.242  -3.391  0.00  0.00    -0.295 N 
ATOM      2  C   UNL     1      -0.850  -2.865  -4.317  0.00  0.00    +0.303 C 
ATOM      3  O   UNL     1      -0.806  -1.708  -4.689  0.00  0.00    -0.253 OA
ATOM      4  N   UNL     1       0.006  -3.771  -4.831  0.00  0.00    -0.283 N 
ATOM      5  C   UNL     1      -0.113  -5.194  -4.485  0.00  0.00    +0.126 C 
ATOM      6  C   UNL     1      -0.234  -6.005  -5.781  0.00  0.00    +0.128 C 
ATOM      7  N   UNL     1       0.835  -5.587  -6.698  0.00  0.00    -0.174 NA
ATOM      8  C   UNL     1       0.954  -4.164  -7.045  0.00  0.00    +0.128 C 
ATOM      9  C   UNL     1       1.072  -3.353  -5.753  0.00  0.00    +0.126 C 
ATOM     10  H   UNL     1      -1.739  -4.146  -3.039  0.00  0.00    +0.151 HD
ENDROOT
BRANCH   7  11
ATOM     11  S   UNL     1       1.886  -6.699  -7.330  0.00  0.00    +0.061 S 
ATOM     12  O   UNL     1       3.067  -5.990  -7.679  0.00  0.00    -0.153 OA
ATOM     13  O   UNL     1       1.897  -7.802  -6.434  0.00  0.00    -0.153 OA
BRANCH  11  14
ATOM     14  C   UNL     1       1.185  -7.282  -8.838  0.00  0.00    +0.105 A 
ATOM     15  C   UNL     1       0.343  -8.378  -8.830  0.00  0.00    +0.028 A 
ATOM     16  C   UNL     1      -0.208  -8.835 -10.013  0.00  0.00    +0.002 A 
ATOM     17  C   UNL     1       0.084  -8.195 -11.203  0.00  0.00    +0.000 A 
ATOM     18  C   UNL     1       0.925  -7.098 -11.211  0.00  0.00    +0.002 A 
ATOM     19  C   UNL     1       1.472  -6.639 -10.027  0.00  0.00    +0.028 A 
ENDBRANCH  11  14
ENDBRANCH   7  11
BRANCH   1  20
ATOM     20  C   UNL     1      -2.757  -2.287  -2.916  0.00  0.00    +0.141 C 
BRANCH  20  26
ATOM     21  C   UNL     1      -3.185  -3.130  -0.598  0.00  0.00    -0.059 A 
ATOM     22  C   UNL     1      -3.997  -3.736   0.343  0.00  0.00    +0.002 A 
ATOM     23  C   UNL     1      -5.260  -4.171  -0.011  0.00  0.00    +0.000 A 
ATOM     24  C   UNL     1      -5.713  -3.999  -1.306  0.00  0.00    +0.000 A 
ATOM     25  C   UNL     1      -4.902  -3.392  -2.247  0.00  0.00    +0.005 A 
ATOM     26  C   UNL     1      -3.640  -2.954  -1.892  0.00  0.00    -0.029 A 
BRANCH  21  27
ATOM     27  C   UNL     1      -1.808  -2.657  -0.212  0.00  0.00    -0.043 C 
BRANCH  27  28
ATOM     28  N   UNL     1      -1.840  -1.210   0.038  0.00  0.00    +0.382 N 
ATOM     29  H   UNL     1      -2.214  -0.736  -0.770  0.00  0.00    -0.081 HD
BRANCH  28  31
ATOM     30  C   UNL     1      -2.825   0.579   1.390  0.00  0.00    -0.017 C 
ATOM     31  C   UNL     1      -2.690  -0.933   1.204  0.00  0.00    -0.082 C 
ENDBRANCH  28  31
BRANCH  28  32
ATOM     32  C   UNL     1      -0.477  -0.728   0.301  0.00  0.00    -0.082 C 
ATOM     33  C   UNL     1       0.371  -0.882  -0.963  0.00  0.00    -0.017 C 
ENDBRANCH  28  32
ENDBRANCH  27  28
ENDBRANCH  21  27
ENDBRANCH  20  26
ENDBRANCH   1  20
TORSDOF 8
