REMARK  Name = ZINC40512742
REMARK  9 active torsions:
REMARK  status: ('A' for Active; 'I' for Inactive)
REMARK    1  A    between atoms: C_1  and  C_2
REMARK    2  A    between atoms: C_2  and  O_3
REMARK    3  A    between atoms: O_3  and  C_4
REMARK    4  A    between atoms: C_4  and  C_6
REMARK    5  A    between atoms: C_7  and  N_36
REMARK    6  A    between atoms: C_11  and  C_35
REMARK    7  A    between atoms: N_24  and  C_27
REMARK    8  A    between atoms: C_27  and  C_28
REMARK    9  A    between atoms: C_31  and  C_34
REMARK                            x       y       z     vdW  Elec       q    Type
REMARK                         _______ _______ _______ _____ _____    ______ ____
ROOT
ATOM      1  C   UNL     1       1.463  -2.349   2.421  0.00  0.00    +0.117 C 
ATOM      2  C   UNL     1       1.487  -3.695   2.606  0.00  0.00    +0.196 C 
ATOM      3  O   UNL     1       2.114  -4.255   3.653  0.00  0.00    -0.441 OA
ATOM      4  C   UNL     1       3.042  -3.558   4.342  0.00  0.00    +0.142 A 
ATOM      5  C   UNL     1       3.962  -4.235   5.168  0.00  0.00    +0.067 A 
ATOM      6  C   UNL     1       4.889  -3.533   5.856  0.00  0.00    +0.019 A 
ATOM      7  N   UNL     1       4.949  -2.179   5.765  0.00  0.00    -0.326 N 
ATOM      8  H   UNL     1       5.623  -1.696   6.268  0.00  0.00    +0.169 HD
ATOM      9  C   UNL     1       4.087  -1.497   4.988  0.00  0.00    +0.257 A 
ATOM     10  O   UNL     1       4.157  -0.280   4.920  0.00  0.00    -0.267 OA
ATOM     11  C   UNL     1       3.108  -2.182   4.256  0.00  0.00    +0.083 A 
ATOM     12  C   UNL     1       2.149  -1.425   3.386  0.00  0.00    +0.144 C 
ATOM     13  C   UNL     1       1.150  -0.685   4.220  0.00  0.00    -0.002 A 
ATOM     14  C   UNL     1       0.201  -1.130   5.115  0.00  0.00    +0.007 A 
ATOM     15  C   UNL     1      -0.582  -0.163   5.736  0.00  0.00    +0.000 A 
ATOM     16  C   UNL     1      -0.413   1.180   5.466  0.00  0.00    +0.002 A 
ATOM     17  C   UNL     1       0.538   1.635   4.567  0.00  0.00    +0.024 A 
ATOM     18  C   UNL     1       1.331   0.674   3.937  0.00  0.00    +0.041 A 
ATOM     19  N   UNL     1       2.344   0.841   3.009  0.00  0.00    -0.265 N 
ATOM     20  C   UNL     1       2.881  -0.336   2.629  0.00  0.00    +0.240 C 
ATOM     21  O   UNL     1       3.782  -0.493   1.832  0.00  0.00    -0.274 OA
ATOM     22  C   UNL     1       5.869  -4.263   6.738  0.00  0.00    +0.063 C 
ENDROOT
BRANCH   2  23
ATOM     23  N   UNL     1       0.855  -4.502   1.699  0.00  0.00    -0.329 N 
ATOM     24  H   UNL     1       0.464  -4.119   0.898  0.00  0.00    +0.145 HD
ATOM     25  H   UNL     1       0.798  -5.457   1.857  0.00  0.00    +0.145 HD
ENDBRANCH   2  23
BRANCH   1  26
ATOM     26  C   UNL     1       0.793  -1.815   1.310  0.00  0.00    +0.342 C 
ATOM     27  O   UNL     1      -0.319  -1.337   1.442  0.00  0.00    -0.245 OA
BRANCH  26  28
ATOM     28  O   UNL     1       1.381  -1.832   0.094  0.00  0.00    -0.462 OA
BRANCH  28  30
ATOM     29  C   UNL     1       1.463  -1.381  -2.279  0.00  0.00    +0.048 C 
ATOM     30  C   UNL     1       0.641  -1.272  -0.992  0.00  0.00    +0.229 C 
ENDBRANCH  28  30
ENDBRANCH  26  28
ENDBRANCH   1  26
BRANCH  19  31
ATOM     31  C   UNL     1       2.780   2.143   2.499  0.00  0.00    +0.148 C 
BRANCH  31  32
ATOM     32  C   UNL     1       3.879   2.684   3.377  0.00  0.00    -0.030 A 
ATOM     33  C   UNL     1       3.567   3.470   4.470  0.00  0.00    +0.005 A 
ATOM     34  C   UNL     1       4.575   3.966   5.275  0.00  0.00    +0.003 A 
ATOM     35  C   UNL     1       5.896   3.675   4.987  0.00  0.00    -0.050 A 
ATOM     36  C   UNL     1       6.208   2.888   3.894  0.00  0.00    +0.003 A 
ATOM     37  C   UNL     1       5.199   2.389   3.092  0.00  0.00    +0.005 A 
ATOM     38  C   UNL     1       6.995   4.216   5.865  0.00  0.00    +0.044 C 
ENDBRANCH  31  32
ENDBRANCH  19  31
TORSDOF 6
