REMARK  Name = ZINC18195721
REMARK  2 active torsions:
REMARK  status: ('A' for Active; 'I' for Inactive)
REMARK    1  A    between atoms: C_4  and  C_7
REMARK    2  A    between atoms: C_10  and  C_13
REMARK                            x       y       z     vdW  Elec       q    Type
REMARK                         _______ _______ _______ _____ _____    ______ ____
ROOT
ATOM      1  C   UNL     1       2.489   1.043  -0.016  0.00  0.00    +0.175 C 
ATOM      2  C   UNL     1       3.286   1.407   1.218  0.00  0.00    +0.041 C 
ATOM      3  C   UNL     1       4.364   2.218   1.163  0.00  0.00    +0.020 C 
ATOM      4  C   UNL     1       5.128   2.579   2.415  0.00  0.00    +0.052 C 
ATOM      5  C   UNL     1       5.058   1.421   3.412  0.00  0.00    +0.014 C 
ATOM      6  C   UNL     1       3.583   1.144   3.725  0.00  0.00    +0.080 C 
ATOM      7  C   UNL     1       2.856   0.861   2.441  0.00  0.00    +0.163 C 
ATOM      8  O   UNL     1       1.875   0.144   2.459  0.00  0.00    -0.292 OA
ATOM      9  N   UNL     1       4.814   2.746  -0.024  0.00  0.00    -0.287 N 
ATOM     10  C   UNL     1       4.323   2.210  -1.204  0.00  0.00    +0.218 A 
ATOM     11  N   UNL     1       3.234   1.406  -1.214  0.00  0.00    -0.221 N 
ATOM     12  N   UNL     1       3.022   1.043  -2.545  0.00  0.00    -0.156 NA
ATOM     13  C   UNL     1       3.957   1.632  -3.250  0.00  0.00    +0.247 A 
ATOM     14  N   UNL     1       4.742   2.340  -2.432  0.00  0.00    -0.201 NA
ATOM     15  H   UNL     1       5.457   3.471  -0.035  0.00  0.00    +0.155 HD
ENDROOT
BRANCH   1  19
ATOM     16  C   UNL     1      -1.235   3.142   0.030  0.00  0.00    -0.018 A 
ATOM     17  C   UNL     1      -1.218   1.748   0.017  0.00  0.00    +0.009 A 
ATOM     18  C   UNL     1      -0.013   1.076   0.008  0.00  0.00    +0.006 A 
ATOM     19  C   UNL     1       1.177   1.782   0.000  0.00  0.00    -0.018 A 
ATOM     20  C   UNL     1       1.165   3.166   0.008  0.00  0.00    +0.006 A 
ATOM     21  C   UNL     1      -0.034   3.848   0.023  0.00  0.00    +0.009 A 
BRANCH  16  25
ATOM     22  C   UNL     1      -4.939   5.229   0.074  0.00  0.00    +0.000 A 
ATOM     23  C   UNL     1      -4.928   3.846   0.066  0.00  0.00    +0.001 A 
ATOM     24  C   UNL     1      -3.729   3.163   0.052  0.00  0.00    +0.008 A 
ATOM     25  C   UNL     1      -2.528   3.870   0.045  0.00  0.00    -0.018 A 
ATOM     26  C   UNL     1      -2.545   5.263   0.058  0.00  0.00    +0.008 A 
ATOM     27  C   UNL     1      -3.750   5.936   0.067  0.00  0.00    +0.001 A 
ENDBRANCH  16  25
ENDBRANCH   1  19
TORSDOF 2
