REMARK  Name = ZINC35616457
REMARK  6 active torsions:
REMARK  status: ('A' for Active; 'I' for Inactive)
REMARK    1  A    between atoms: C_1  and  C_2
REMARK    2  A    between atoms: C_5  and  N_9
REMARK    3  A    between atoms: N_9  and  C_10
REMARK    4  A    between atoms: C_11  and  C_20
REMARK    5  A    between atoms: C_16  and  C_19
REMARK    6  A    between atoms: C_25  and  O_26
REMARK                            x       y       z     vdW  Elec       q    Type
REMARK                         _______ _______ _______ _____ _____    ______ ____
ROOT
ATOM      1  C   UNL     1      -0.029  -4.905  -1.204  0.00  0.00    +0.133 A 
ATOM      2  C   UNL     1      -0.118  -6.278  -1.313  0.00  0.00    +0.091 A 
ATOM      3  N   UNL     1      -0.183  -6.589  -2.620  0.00  0.00    -0.338 N 
ATOM      4  C   UNL     1      -0.140  -5.477  -3.336  0.00  0.00    +0.117 A 
ATOM      5  N   UNL     1      -0.049  -4.406  -2.478  0.00  0.00    -0.289 N 
ATOM      6  C   UNL     1       0.005  -3.129  -2.968  0.00  0.00    +0.097 A 
ATOM      7  C   UNL     1      -0.032  -2.901  -4.296  0.00  0.00    -0.034 A 
ATOM      8  C   UNL     1      -0.128  -3.976  -5.198  0.00  0.00    +0.008 A 
ATOM      9  C   UNL     1      -0.174  -5.251  -4.728  0.00  0.00    +0.045 A 
ATOM     10  C   UNL     1       0.029  -1.489  -4.817  0.00  0.00    +0.045 C 
ATOM     11  H   UNL     1      -0.251  -7.487  -2.980  0.00  0.00    +0.167 HD
ENDROOT
BRANCH   2  12
ATOM     12  C   UNL     1      -0.137  -7.240  -0.187  0.00  0.00    +0.043 A 
ATOM     13  C   UNL     1       0.911  -8.144  -0.021  0.00  0.00    +0.014 A 
ATOM     14  C   UNL     1       0.888  -9.039   1.030  0.00  0.00    +0.001 A 
ATOM     15  C   UNL     1      -0.171  -9.042   1.920  0.00  0.00    +0.004 A 
ATOM     16  C   UNL     1      -1.216  -8.149   1.765  0.00  0.00    +0.046 A 
ATOM     17  C   UNL     1      -1.204  -7.242   0.718  0.00  0.00    +0.126 A 
BRANCH  17  18
ATOM     18  O   UNL     1      -2.227  -6.362   0.567  0.00  0.00    -0.506 OA
ATOM     19  H   UNL     1      -2.952  -6.691   0.018  0.00  0.00    +0.292 HD
ENDBRANCH  17  18
ENDBRANCH   2  12
BRANCH   1  20
ATOM     20  N   UNL     1       0.057  -4.168  -0.023  0.00  0.00    -0.298 N 
ATOM     21  H   UNL     1       0.822  -4.279   0.563  0.00  0.00    +0.154 HD
BRANCH  20  26
ATOM     22  C   UNL     1      -4.066  -0.525   1.354  0.00  0.00    +0.044 C 
ATOM     23  C   UNL     1      -2.970  -1.493   0.989  0.00  0.00    -0.049 A 
ATOM     24  C   UNL     1      -3.018  -2.165  -0.219  0.00  0.00    +0.005 A 
ATOM     25  C   UNL     1      -2.015  -3.053  -0.558  0.00  0.00    +0.024 A 
ATOM     26  C   UNL     1      -0.958  -3.270   0.316  0.00  0.00    +0.047 A 
ATOM     27  C   UNL     1      -0.912  -2.593   1.530  0.00  0.00    +0.039 A 
ATOM     28  C   UNL     1      -1.916  -1.702   1.859  0.00  0.00    +0.020 A 
ATOM     29 BR   UNL     1       0.524  -2.885   2.724  0.00  0.00    -0.048 Br
ENDBRANCH  20  26
ENDBRANCH   1  20
TORSDOF 4
