REMARK  Name = ZINC14970891
REMARK  2 active torsions:
REMARK  status: ('A' for Active; 'I' for Inactive)
REMARK    1  A    between atoms: C_6  and  C_7
REMARK    2  A    between atoms: C_8  and  C_23
REMARK                            x       y       z     vdW  Elec       q    Type
REMARK                         _______ _______ _______ _____ _____    ______ ____
ROOT
ATOM      1  C   UNL     1      -1.156  -1.070   0.219  0.00  0.00    +0.075 A 
ATOM      2  C   UNL     1      -1.608  -1.994  -0.714  0.00  0.00    +0.049 A 
ATOM      3  C   UNL     1      -3.015  -2.039  -0.610  0.00  0.00    +0.151 A 
ATOM      4  N   UNL     1      -3.387  -1.198   0.324  0.00  0.00    -0.158 NA
ATOM      5  H   UNL     1      -2.246   0.078   1.574  0.00  0.00    +0.189 HD
ATOM      6  N   UNL     1      -2.251  -0.583   0.864  0.00  0.00    -0.275 N 
ATOM      7  N   UNL     1      -3.867  -2.842  -1.372  0.00  0.00    -0.317 N 
ATOM      8  C   UNL     1      -3.336  -3.632  -2.491  0.00  0.00    +0.088 C 
ATOM      9  C   UNL     1      -4.242  -3.470  -3.723  0.00  0.00    -0.059 C 
ATOM     10  N   UNL     1      -5.609  -3.760  -3.310  0.00  0.00    +0.384 N 
ATOM     11  C   UNL     1      -6.609  -3.705  -4.390  0.00  0.00    -0.078 C 
ATOM     12  C   UNL     1      -7.952  -3.532  -3.632  0.00  0.00    -0.020 C 
ATOM     13  C   UNL     1      -7.564  -2.894  -2.273  0.00  0.00    -0.016 C 
ATOM     14  C   UNL     1      -6.049  -2.690  -2.374  0.00  0.00    -0.051 C 
ATOM     15  C   UNL     1      -5.309  -2.910  -1.055  0.00  0.00    +0.091 C 
ATOM     16  H   UNL     1      -5.646  -4.656  -2.848  0.00  0.00    -0.081 HD
ENDROOT
BRANCH   1  22
ATOM     17  C   UNL     1       0.610   0.655   0.550  0.00  0.00    +0.011 A 
ATOM     18  C   UNL     1       1.924   1.002   0.784  0.00  0.00    +0.020 A 
ATOM     19  C   UNL     1       2.886   0.018   0.940  0.00  0.00    +0.041 A 
ATOM     20  C   UNL     1       2.535  -1.319   0.861  0.00  0.00    +0.020 A 
ATOM     21  C   UNL     1       1.225  -1.679   0.627  0.00  0.00    +0.011 A 
ATOM     22  C   UNL     1       0.250  -0.692   0.470  0.00  0.00    +0.001 A 
ATOM     23 CL   UNL     1       4.538   0.463   1.233  0.00  0.00    -0.084 Cl
ENDBRANCH   1  22
BRANCH   2  24
ATOM     24  C   UNL     1      -0.771  -2.784  -1.645  0.00  0.00    -0.010 A 
ATOM     25  C   UNL     1      -0.133  -2.176  -2.732  0.00  0.00    +0.028 A 
ATOM     26  C   UNL     1       0.637  -2.950  -3.573  0.00  0.00    +0.111 A 
ATOM     27  N   UNL     1       0.777  -4.245  -3.364  0.00  0.00    -0.263 NA
ATOM     28  C   UNL     1       0.194  -4.858  -2.351  0.00  0.00    +0.111 A 
ATOM     29  C   UNL     1      -0.590  -4.160  -1.458  0.00  0.00    +0.028 A 
ENDBRANCH   2  24
TORSDOF 2
