REMARK  Name = ZINC06244863
REMARK  11 active torsions:
REMARK  status: ('A' for Active; 'I' for Inactive)
REMARK    1  A    between atoms: C_1  and  C_2
REMARK    2  A    between atoms: C_5  and  C_39
REMARK    3  A    between atoms: C_9  and  C_14
REMARK    4  A    between atoms: C_14  and  C_16
REMARK    5  A    between atoms: C_14  and  N_70
REMARK    6  A    between atoms: N_20  and  C_21
REMARK    7  A    between atoms: C_21  and  C_22
REMARK    8  A    between atoms: C_21  and  C_23
REMARK    9  A    between atoms: C_21  and  C_24
REMARK   10  A    between atoms: N_27  and  C_30
REMARK   11  A    between atoms: C_33  and  N_36
REMARK                            x       y       z     vdW  Elec       q    Type
REMARK                         _______ _______ _______ _____ _____    ______ ____
ROOT
ATOM      1  C   UNL     1       3.692   1.648   3.724  0.00  0.00    +0.039 C 
ENDROOT
BRANCH   1  10
ATOM      2  C   UNL     1      -0.391   1.610   0.492  0.00  0.00    +0.044 C 
ATOM      3  C   UNL     1      -0.851   2.227   1.787  0.00  0.00    -0.041 A 
ATOM      4  C   UNL     1      -2.142   2.654   1.923  0.00  0.00    +0.004 A 
ATOM      5  C   UNL     1      -2.577   3.221   3.113  0.00  0.00    +0.005 A 
ATOM      6  C   UNL     1      -1.714   3.371   4.178  0.00  0.00    -0.026 A 
ATOM      7  C   UNL     1      -0.394   2.948   4.061  0.00  0.00    +0.052 A 
ATOM      8  C   UNL     1       0.043   2.371   2.853  0.00  0.00    +0.002 A 
ATOM      9  C   UNL     1       1.434   1.929   2.740  0.00  0.00    +0.018 A 
ATOM     10  C   UNL     1       2.254   2.092   3.807  0.00  0.00    +0.011 A 
ATOM     11  C   UNL     1       1.767   2.677   4.995  0.00  0.00    +0.251 A 
ATOM     12  O   UNL     1       2.521   2.815   5.943  0.00  0.00    -0.268 OA
ATOM     13  N   UNL     1       0.491   3.086   5.109  0.00  0.00    -0.322 N 
ATOM     14  H   UNL     1       0.189   3.484   5.940  0.00  0.00    +0.169 HD
ATOM     15  C   UNL     1      -2.198   3.992   5.462  0.00  0.00    +0.046 C 
ENDBRANCH   1  10
BRANCH   1  21
ATOM     16  C   UNL     1       4.309   3.927   3.186  0.00  0.00    -0.058 C 
ATOM     17  C   UNL     1       5.189   5.102   3.618  0.00  0.00    +0.086 C 
ATOM     18  N   UNL     1       6.602   4.705   3.547  0.00  0.00    -0.333 N 
ATOM     19  C   UNL     1       6.866   3.552   4.420  0.00  0.00    +0.086 C 
ATOM     20  C   UNL     1       5.986   2.377   3.988  0.00  0.00    -0.058 C 
ATOM     21  N   UNL     1       4.568   2.782   4.085  0.00  0.00    +0.391 N 
ATOM     22  H   UNL     1       4.367   3.065   5.052  0.00  0.00    -0.080 HD
BRANCH  18  23
ATOM     23  C   UNL     1       7.440   5.776   3.865  0.00  0.00    +0.030 A 
ATOM     24  C   UNL     1       8.362   5.656   4.897  0.00  0.00    +0.025 A 
ATOM     25  C   UNL     1       9.193   6.715   5.206  0.00  0.00    +0.034 A 
ATOM     26  C   UNL     1       9.100   7.898   4.496  0.00  0.00    +0.126 A 
ATOM     27  C   UNL     1       8.179   8.023   3.472  0.00  0.00    +0.034 A 
ATOM     28  C   UNL     1       7.349   6.966   3.154  0.00  0.00    +0.025 A 
BRANCH  26  29
ATOM     29  N   UNL     1       9.988   9.033   4.833  0.00  0.00    +0.056 N 
ATOM     30  O   UNL     1       9.907  10.075   4.208  0.00  0.00    -0.126 OA
ATOM     31  O   UNL     1      10.799   8.924   5.735  0.00  0.00    -0.126 OA
ENDBRANCH  26  29
ENDBRANCH  18  23
ENDBRANCH   1  21
BRANCH   1  32
ATOM     32  C   UNL     1       3.926   0.520   4.697  0.00  0.00    +0.143 A 
ATOM     33  N   UNL     1       3.932   0.604   6.005  0.00  0.00    -0.115 NA
ATOM     34  N   UNL     1       4.166  -0.571   6.477  0.00  0.00    -0.023 NA
ATOM     35  N   UNL     1       4.310  -1.403   5.505  0.00  0.00    -0.043 NA
ATOM     36  N   UNL     1       4.163  -0.769   4.391  0.00  0.00    -0.225 N 
BRANCH  36  37
ATOM     37  C   UNL     1       4.244  -1.343   3.046  0.00  0.00    +0.059 C 
ATOM     38  C   UNL     1       5.412  -0.709   2.289  0.00  0.00    +0.036 C 
ATOM     39  C   UNL     1       4.463  -2.854   3.148  0.00  0.00    +0.036 C 
ATOM     40  C   UNL     1       2.940  -1.067   2.294  0.00  0.00    +0.036 C 
ENDBRANCH  36  37
ENDBRANCH   1  32
TORSDOF 6
