REMARK  Name = ZINC43863176
REMARK  7 active torsions:
REMARK  status: ('A' for Active; 'I' for Inactive)
REMARK    1  A    between atoms: C_1  and  C_2
REMARK    2  A    between atoms: C_2  and  C_3
REMARK    3  A    between atoms: C_3  and  C_4
REMARK    4  A    between atoms: C_3  and  C_5
REMARK    5  A    between atoms: C_3  and  C_6
REMARK    6  A    between atoms: C_9  and  N_12
REMARK    7  A    between atoms: N_15  and  N_16
REMARK                            x       y       z     vdW  Elec       q    Type
REMARK                         _______ _______ _______ _____ _____    ______ ____
ROOT
ATOM      1  N   UNL     1      -0.668  -4.095  -3.708  0.00  0.00    -0.295 N 
ATOM      2  C   UNL     1      -0.567  -4.764  -4.874  0.00  0.00    +0.316 C 
ATOM      3  O   UNL     1       0.112  -5.770  -4.941  0.00  0.00    -0.251 OA
ATOM      4  N   UNL     1      -1.219  -4.317  -5.966  0.00  0.00    -0.217 N 
ATOM      5  H   UNL     1      -1.210  -3.292  -3.655  0.00  0.00    +0.151 HD
ATOM      6  H   UNL     1      -1.147  -4.799  -6.805  0.00  0.00    +0.174 HD
ENDROOT
BRANCH   4   7
ATOM      7  N   UNL     1      -2.002  -3.158  -5.889  0.00  0.00    -0.217 N 
ATOM      8  C   UNL     1      -2.653  -2.711  -6.981  0.00  0.00    +0.313 C 
ATOM      9  O   UNL     1      -3.332  -1.705  -6.915  0.00  0.00    -0.252 OA
ATOM     10  N   UNL     1      -2.553  -3.381  -8.147  0.00  0.00    -0.312 N 
ATOM     11  H   UNL     1      -2.074  -2.676  -5.050  0.00  0.00    +0.174 HD
ATOM     12  H   UNL     1      -2.011  -4.183  -8.200  0.00  0.00    +0.147 HD
ATOM     13  H   UNL     1      -3.022  -3.059  -8.933  0.00  0.00    +0.147 HD
ENDBRANCH   4   7
BRANCH   1  17
ATOM     14  C   UNL     1       0.739  -2.027  -1.265  0.00  0.00    -0.005 C 
ATOM     15  C   UNL     1      -0.696  -2.557  -1.254  0.00  0.00    +0.006 C 
ATOM     16  C   UNL     1      -0.676  -4.087  -1.263  0.00  0.00    +0.022 C 
ATOM     17  C   UNL     1       0.041  -4.580  -2.522  0.00  0.00    +0.074 C 
ATOM     18  C   UNL     1       1.476  -4.051  -2.532  0.00  0.00    +0.022 C 
ATOM     19  C   UNL     1       1.455  -2.521  -2.524  0.00  0.00    +0.006 C 
BRANCH  14  20
ATOM     20  C   UNL     1       0.718  -0.497  -1.257  0.00  0.00    -0.032 C 
ATOM     21  C   UNL     1      -0.022   0.009  -2.496  0.00  0.00    +0.011 C 
ATOM     22  C   UNL     1       2.154   0.032  -1.268  0.00  0.00    +0.011 C 
BRANCH  20  24
ATOM     23  C   UNL     1      -0.019   1.526   0.010  0.00  0.00    +0.004 C 
ATOM     24  C   UNL     1       0.002  -0.004   0.002  0.00  0.00    +0.003 C 
ENDBRANCH  20  24
ENDBRANCH  14  20
ENDBRANCH   1  17
TORSDOF 4
