REMARK  Name = ZINC00716315
REMARK  5 active torsions:
REMARK  status: ('A' for Active; 'I' for Inactive)
REMARK    1  A    between atoms: C_1  and  C_2
REMARK    2  A    between atoms: C_3  and  C_18
REMARK    3  A    between atoms: C_4  and  C_10
REMARK    4  A    between atoms: C_18  and  O_20
REMARK    5  A    between atoms: O_20  and  C_21
REMARK                            x       y       z     vdW  Elec       q    Type
REMARK                         _______ _______ _______ _____ _____    ______ ____
ROOT
ATOM      1  C   UNL     1       0.943  -2.221  -0.026  0.00  0.00    +0.061 C 
ATOM      2  C   UNL     1       1.087  -0.721  -0.025  0.00  0.00    +0.021 C 
ATOM      3  C   UNL     1       2.321  -0.173  -0.020  0.00  0.00    +0.078 C 
ATOM      4  C   UNL     1       2.421   1.339  -0.019  0.00  0.00    +0.145 C 
ATOM      5  N   UNL     1       1.155   2.091  -0.024  0.00  0.00    -0.288 N 
ATOM      6  C   UNL     1      -0.002   1.400  -0.029  0.00  0.00    +0.304 C 
ATOM      7  O   UNL     1      -1.053   2.011  -0.039  0.00  0.00    -0.252 OA
ATOM      8  N   UNL     1      -0.032   0.061  -0.029  0.00  0.00    -0.273 N 
ATOM      9  H   UNL     1       1.153   3.061  -0.025  0.00  0.00    +0.151 HD
ATOM     10  H   UNL     1      -0.897  -0.378  -0.033  0.00  0.00    +0.156 HD
ENDROOT
BRANCH   4  11
ATOM     11  C   UNL     1       3.211   1.754  -1.234  0.00  0.00    -0.004 A 
ATOM     12  C   UNL     1       3.362   0.876  -2.292  0.00  0.00    +0.008 A 
ATOM     13  C   UNL     1       4.087   1.256  -3.406  0.00  0.00    +0.020 A 
ATOM     14  C   UNL     1       4.660   2.514  -3.463  0.00  0.00    +0.042 A 
ATOM     15  C   UNL     1       4.509   3.392  -2.406  0.00  0.00    +0.040 A 
ATOM     16  C   UNL     1       3.779   3.014  -1.293  0.00  0.00    +0.048 A 
ATOM     17 CL   UNL     1       3.581   4.118   0.032  0.00  0.00    -0.083 Cl
ATOM     18 CL   UNL     1       5.570   2.990  -4.863  0.00  0.00    -0.083 Cl
ENDBRANCH   4  11
BRANCH   3  19
ATOM     19  C   UNL     1       3.482  -0.982  -0.016  0.00  0.00    +0.339 C 
ATOM     20  O   UNL     1       3.379  -2.191   0.070  0.00  0.00    -0.245 OA
BRANCH  19  21
ATOM     21  O   UNL     1       4.701  -0.412  -0.108  0.00  0.00    -0.458 OA
BRANCH  21  22
ATOM     22  C   UNL     1       5.829  -1.290  -0.099  0.00  0.00    +0.177 C 
ATOM     23  C   UNL     1       6.295  -1.506   1.343  0.00  0.00    +0.044 C 
ATOM     24  C   UNL     1       7.219  -2.724   1.403  0.00  0.00    +0.004 C 
ATOM     25  C   UNL     1       6.623  -3.859   0.568  0.00  0.00    +0.000 C 
ATOM     26  C   UNL     1       7.516  -4.121  -0.647  0.00  0.00    +0.000 C 
ATOM     27  C   UNL     1       7.294  -3.023  -1.688  0.00  0.00    +0.000 C 
ATOM     28  C   UNL     1       8.004  -1.744  -1.241  0.00  0.00    +0.004 C 
ATOM     29  C   UNL     1       6.965  -0.669  -0.914  0.00  0.00    +0.044 C 
ENDBRANCH  21  22
ENDBRANCH  19  21
ENDBRANCH   3  19
TORSDOF 4
