REMARK  Name = ZINC28631930
REMARK  11 active torsions:
REMARK  status: ('A' for Active; 'I' for Inactive)
REMARK    1  A    between atoms: C_1  and  C_2
REMARK    2  A    between atoms: C_2  and  C_3
REMARK    3  A    between atoms: C_3  and  C_5
REMARK    4  A    between atoms: C_3  and  C_6
REMARK    5  A    between atoms: C_6  and  C_8
REMARK    6  A    between atoms: C_6  and  N_21
REMARK    7  A    between atoms: N_10  and  N_11
REMARK    8  A    between atoms: N_11  and  C_12
REMARK    9  A    between atoms: C_12  and  N_14
REMARK   10  A    between atoms: N_14  and  C_15
REMARK   11  A    between atoms: C_22  and  C_24
REMARK                            x       y       z     vdW  Elec       q    Type
REMARK                         _______ _______ _______ _____ _____    ______ ____
ROOT
ATOM      1  C   UNL     1      -0.749  -2.440  -1.417  0.00  0.00    +0.250 C 
ATOM      2  O   UNL     1       0.249  -3.130  -1.406  0.00  0.00    -0.272 OA
ATOM      3  N   UNL     1      -1.261  -2.016  -2.590  0.00  0.00    -0.234 N 
ATOM      4  H   UNL     1      -2.059  -1.465  -2.599  0.00  0.00    +0.173 HD
ENDROOT
BRANCH   3   5
ATOM      5  N   UNL     1      -0.641  -2.372  -3.795  0.00  0.00    -0.246 N 
ATOM      6  H   UNL     1       0.157  -2.923  -3.785  0.00  0.00    +0.172 HD
BRANCH   5   7
ATOM      7  C   UNL     1      -1.154  -1.948  -4.967  0.00  0.00    +0.147 C 
ATOM      8  S   UNL     1      -0.396  -2.382  -6.439  0.00  0.00    -0.017 S 
BRANCH   7   9
ATOM      9  N   UNL     1      -2.263  -1.181  -4.980  0.00  0.00    -0.323 N 
ATOM     10  H   UNL     1      -2.692  -0.935  -4.146  0.00  0.00    +0.148 HD
BRANCH   9  11
ATOM     11  C   UNL     1      -2.819  -0.721  -6.254  0.00  0.00    +0.072 C 
ATOM     12  C   UNL     1      -2.106   0.561  -6.688  0.00  0.00    +0.022 C 
ATOM     13  C   UNL     1      -2.688   1.043  -8.019  0.00  0.00    +0.002 C 
ATOM     14  C   UNL     1      -4.183   1.323  -7.851  0.00  0.00    +0.000 C 
ATOM     15  C   UNL     1      -4.896   0.041  -7.416  0.00  0.00    +0.002 C 
ATOM     16  C   UNL     1      -4.314  -0.440  -6.086  0.00  0.00    +0.022 C 
ENDBRANCH   9  11
ENDBRANCH   7   9
ENDBRANCH   5   7
ENDBRANCH   3   5
BRANCH   1  17
ATOM     17  C   UNL     1      -1.416  -2.058  -0.121  0.00  0.00    +0.163 C 
BRANCH  17  18
ATOM     18  N   UNL     1      -0.673  -2.638   1.000  0.00  0.00    -0.300 N 
ATOM     19  C   UNL     1      -1.297  -2.877   2.170  0.00  0.00    +0.245 C 
ATOM     20  O   UNL     1      -2.476  -2.612   2.295  0.00  0.00    -0.270 OA
ATOM     21  H   UNL     1       0.269  -2.850   0.900  0.00  0.00    +0.150 HD
BRANCH  19  22
ATOM     22  C   UNL     1      -0.547  -3.463   3.302  0.00  0.00    +0.037 A 
ATOM     23  C   UNL     1       0.809  -3.764   3.163  0.00  0.00    +0.013 A 
ATOM     24  C   UNL     1       1.503  -4.310   4.223  0.00  0.00    +0.001 A 
ATOM     25  C   UNL     1       0.858  -4.559   5.422  0.00  0.00    +0.000 A 
ATOM     26  C   UNL     1      -0.486  -4.264   5.565  0.00  0.00    +0.001 A 
ATOM     27  C   UNL     1      -1.190  -3.712   4.515  0.00  0.00    +0.013 A 
ENDBRANCH  19  22
ENDBRANCH  17  18
BRANCH  17  28
ATOM     28  C   UNL     1      -1.433  -0.534   0.013  0.00  0.00    +0.015 C 
ATOM     29  C   UNL     1      -2.110  -0.145   1.329  0.00  0.00    +0.010 C 
BRANCH  28  31
ATOM     30  C   UNL     1      -0.019   1.526   0.010  0.00  0.00    +0.004 C 
ATOM     31  C   UNL     1       0.002  -0.004   0.002  0.00  0.00    +0.002 C 
ENDBRANCH  28  31
ENDBRANCH  17  28
ENDBRANCH   1  17
TORSDOF 9
