REMARK  Name = ZINC05125645
REMARK  3 active torsions:
REMARK  status: ('A' for Active; 'I' for Inactive)
REMARK    1  A    between atoms: C_1  and  C_2
REMARK    2  A    between atoms: C_5  and  C_7
REMARK    3  A    between atoms: N_17  and  C_18
REMARK                            x       y       z     vdW  Elec       q    Type
REMARK                         _______ _______ _______ _____ _____    ______ ____
ROOT
ATOM      1  C   UNL     1       3.558   5.967  -0.205  0.00  0.00    +0.100 A 
ATOM      2  C   UNL     1       3.481   7.197  -0.853  0.00  0.00    +0.030 A 
ATOM      3  C   UNL     1       2.169   7.614  -1.353  0.00  0.00    +0.021 A 
ATOM      4  C   UNL     1       2.050   8.694  -2.236  0.00  0.00    +0.031 A 
ATOM      5  C   UNL     1       0.805   9.063  -2.697  0.00  0.00    +0.043 A 
ATOM      6  C   UNL     1      -0.328   8.371  -2.290  0.00  0.00    +0.043 A 
ATOM      7  C   UNL     1      -0.226   7.305  -1.418  0.00  0.00    +0.085 A 
ATOM      8  C   UNL     1       1.018   6.917  -0.940  0.00  0.00    +0.156 A 
ATOM      9  O   UNL     1       1.133   5.875  -0.080  0.00  0.00    -0.435 OA
ATOM     10  C   UNL     1       2.306   5.192  -0.092  0.00  0.00    +0.233 A 
ATOM     11  N   UNL     1       2.327   3.880   0.001  0.00  0.00    -0.210 NA
ATOM     12 CL   UNL     1      -1.653   6.450  -0.920  0.00  0.00    -0.080 Cl
ATOM     13 CL   UNL     1       0.652  10.401  -3.792  0.00  0.00    -0.083 Cl
ENDROOT
BRANCH   1  18
ATOM     14  C   UNL     1       8.374   6.545   0.580  0.00  0.00    +0.109 C 
ATOM     15  C   UNL     1       7.116   5.726   0.715  0.00  0.00    +0.216 C 
ATOM     16  O   UNL     1       7.150   4.649   1.270  0.00  0.00    -0.276 OA
ATOM     17  N   UNL     1       5.953   6.191   0.217  0.00  0.00    -0.252 N 
ATOM     18  C   UNL     1       4.828   5.459   0.338  0.00  0.00    +0.255 C 
ATOM     19  O   UNL     1       4.862   4.379   0.894  0.00  0.00    -0.270 OA
ATOM     20  H   UNL     1       5.926   7.053  -0.227  0.00  0.00    +0.158 HD
ENDBRANCH   1  18
BRANCH  11  21
ATOM     21  C   UNL     1       1.155   3.175  -0.003  0.00  0.00    +0.103 A 
ATOM     22  C   UNL     1       0.543   2.824   1.202  0.00  0.00    +0.031 A 
ATOM     23  C   UNL     1      -0.639   2.113   1.190  0.00  0.00    +0.002 A 
ATOM     24  C   UNL     1      -1.218   1.744  -0.011  0.00  0.00    +0.003 A 
ATOM     25  C   UNL     1      -0.622   2.092  -1.210  0.00  0.00    +0.040 A 
ATOM     26  C   UNL     1       0.562   2.804  -1.215  0.00  0.00    +0.149 A 
ATOM     27  F   UNL     1       1.146   3.139  -2.386  0.00  0.00    -0.203 F 
ENDBRANCH  11  21
TORSDOF 2
