REMARK  Name = ZINC36304599
REMARK  17 active torsions:
REMARK  status: ('A' for Active; 'I' for Inactive)
REMARK    1  A    between atoms: C_1  and  C_2
REMARK    2  A    between atoms: C_2  and  O_3
REMARK    3  A    between atoms: O_3  and  C_4
REMARK    4  A    between atoms: C_4  and  C_5
REMARK    5  A    between atoms: C_5  and  C_7
REMARK    6  A    between atoms: C_5  and  O_38
REMARK    7  A    between atoms: C_7  and  N_8
REMARK    8  A    between atoms: N_8  and  C_9
REMARK    9  A    between atoms: N_8  and  C_31
REMARK   10  A    between atoms: C_9  and  C_10
REMARK   11  A    between atoms: C_11  and  C_30
REMARK   12  A    between atoms: N_13  and  C_24
REMARK   13  A    between atoms: C_14  and  O_15
REMARK   14  A    between atoms: O_15  and  C_16
REMARK   15  A    between atoms: C_19  and  O_22
REMARK   16  A    between atoms: O_22  and  C_23
REMARK   17  A    between atoms: C_31  and  C_32
REMARK                            x       y       z     vdW  Elec       q    Type
REMARK                         _______ _______ _______ _____ _____    ______ ____
ROOT
ATOM      1  C   UNL     1      -6.543  -5.927  -0.462  0.00  0.00    +0.021 A 
ATOM      2  C   UNL     1      -7.567  -5.916   0.491  0.00  0.00    +0.065 A 
ATOM      3  N   UNL     1      -8.703  -5.709  -0.125  0.00  0.00    -0.168 NA
ATOM      4  N   UNL     1      -8.446  -5.580  -1.496  0.00  0.00    -0.200 N 
ATOM      5  C   UNL     1      -7.105  -5.712  -1.681  0.00  0.00    +0.225 A 
ATOM      6  C   UNL     1      -7.391  -6.110   1.975  0.00  0.00    +0.068 C 
ENDROOT
BRANCH   4   7
ATOM      7  C   UNL     1      -9.400  -5.350  -2.497  0.00  0.00    +0.069 A 
ATOM      8  C   UNL     1      -9.100  -4.515  -3.565  0.00  0.00    +0.028 A 
ATOM      9  C   UNL     1     -10.042  -4.291  -4.550  0.00  0.00    +0.002 A 
ATOM     10  C   UNL     1     -11.282  -4.897  -4.473  0.00  0.00    +0.000 A 
ATOM     11  C   UNL     1     -11.584  -5.729  -3.411  0.00  0.00    +0.002 A 
ATOM     12  C   UNL     1     -10.644  -5.962  -2.426  0.00  0.00    +0.028 A 
ENDBRANCH   4   7
BRANCH   1  13
ATOM     13  C   UNL     1      -5.076  -6.133  -0.185  0.00  0.00    -0.036 C 
BRANCH  13  14
ATOM     14  N   UNL     1      -4.439  -4.835   0.071  0.00  0.00    +0.386 N 
ATOM     15  H   UNL     1      -4.582  -4.228  -0.722  0.00  0.00    -0.081 HD
BRANCH  14  16
ATOM     16  C   UNL     1      -2.998  -5.030   0.284  0.00  0.00    -0.044 C 
BRANCH  16  17
ATOM     17  C   UNL     1      -2.347  -5.487  -1.023  0.00  0.00    +0.124 C 
BRANCH  17  18
ATOM     18  O   UNL     1      -2.805  -6.800  -1.350  0.00  0.00    -0.391 OA
ATOM     19  H   UNL     1      -2.598  -7.466  -0.680  0.00  0.00    +0.210 HD
ENDBRANCH  17  18
BRANCH  17  20
ATOM     20  C   UNL     1      -0.826  -5.503  -0.856  0.00  0.00    +0.189 C 
BRANCH  20  21
ATOM     21  O   UNL     1      -0.213  -5.816  -2.108  0.00  0.00    -0.378 OA
BRANCH  21  23
ATOM     22  C   UNL     1       1.760  -6.200  -3.449  0.00  0.00    +0.034 C 
ATOM     23  C   UNL     1       1.215  -5.858  -2.061  0.00  0.00    +0.156 C 
ENDBRANCH  21  23
ENDBRANCH  20  21
ENDBRANCH  17  20
ENDBRANCH  16  17
ENDBRANCH  14  16
BRANCH  14  24
ATOM     24  C   UNL     1      -5.033  -4.225   1.268  0.00  0.00    -0.046 C 
BRANCH  24  25
ATOM     25  C   UNL     1      -4.470  -2.815   1.456  0.00  0.00    +0.102 C 
ATOM     26  C   UNL     1      -5.031  -2.195   2.753  0.00  0.00    +0.032 C 
ATOM     27  C   UNL     1      -5.275  -0.719   2.335  0.00  0.00    +0.030 C 
ATOM     28  C   UNL     1      -5.688  -0.898   0.852  0.00  0.00    +0.160 C 
ATOM     29  O   UNL     1      -4.876  -1.981   0.364  0.00  0.00    -0.378 OA
ENDBRANCH  24  25
ENDBRANCH  14  24
ENDBRANCH  13  14
ENDBRANCH   1  13
BRANCH   5  30
ATOM     30  O   UNL     1      -6.448  -5.646  -2.867  0.00  0.00    -0.438 OA
BRANCH  30  31
ATOM     31  C   UNL     1      -6.374  -6.776  -3.620  0.00  0.00    +0.131 A 
ATOM     32  C   UNL     1      -7.051  -7.919  -3.223  0.00  0.00    +0.050 A 
ATOM     33  C   UNL     1      -6.975  -9.067  -3.987  0.00  0.00    +0.049 A 
ATOM     34  C   UNL     1      -6.222  -9.076  -5.152  0.00  0.00    +0.120 A 
ATOM     35  C   UNL     1      -5.545  -7.933  -5.549  0.00  0.00    +0.049 A 
ATOM     36  C   UNL     1      -5.625  -6.783  -4.788  0.00  0.00    +0.050 A 
BRANCH  34  37
ATOM     37  O   UNL     1      -6.147 -10.206  -5.904  0.00  0.00    -0.495 OA
ATOM     38  C   UNL     1      -5.353 -10.144  -7.091  0.00  0.00    +0.277 C 
ENDBRANCH  34  37
ENDBRANCH  30  31
ENDBRANCH   5  30
TORSDOF 14
