REMARK  Name = ZINC06704281
REMARK  13 active torsions:
REMARK  status: ('A' for Active; 'I' for Inactive)
REMARK    1  A    between atoms: C_1  and  C_2
REMARK    2  A    between atoms: C_2  and  O_3
REMARK    3  A    between atoms: O_3  and  C_4
REMARK    4  A    between atoms: C_4  and  C_6
REMARK    5  A    between atoms: C_6  and  N_7
REMARK    6  A    between atoms: C_8  and  C_28
REMARK    7  A    between atoms: C_9  and  C_22
REMARK    8  A    between atoms: C_10  and  C_15
REMARK    9  A    between atoms: C_19  and  C_21
REMARK   10  A    between atoms: C_22  and  O_24
REMARK   11  A    between atoms: O_24  and  C_25
REMARK   12  A    between atoms: C_25  and  C_26
REMARK   13  A    between atoms: C_25  and  C_27
REMARK                            x       y       z     vdW  Elec       q    Type
REMARK                         _______ _______ _______ _____ _____    ______ ____
ROOT
ATOM      1  N   UNL     1       2.713   5.807   0.116  0.00  0.00    -0.264 N 
ATOM      2  C   UNL     1       1.975   6.035   1.247  0.00  0.00    +0.021 C 
ATOM      3  C   UNL     1       0.644   5.852   1.259  0.00  0.00    +0.061 C 
ATOM      4  C   UNL     1      -0.070   5.347   0.032  0.00  0.00    +0.066 C 
ATOM      5  C   UNL     1       0.633   5.874  -1.221  0.00  0.00    +0.109 C 
ATOM      6  C   UNL     1       2.120   5.669  -1.082  0.00  0.00    +0.221 C 
ATOM      7  O   UNL     1       2.783   5.379  -2.055  0.00  0.00    -0.275 OA
ATOM      8  C   UNL     1       2.668   6.501   2.501  0.00  0.00    +0.061 C 
ENDROOT
BRANCH   4   9
ATOM      9  C   UNL     1      -0.050   3.840   0.023  0.00  0.00    -0.039 A 
ATOM     10  C   UNL     1       1.157   3.165   0.008  0.00  0.00    +0.004 A 
ATOM     11  C   UNL     1       1.175   1.783   0.000  0.00  0.00    +0.001 A 
ATOM     12  C   UNL     1      -0.013   1.076   0.008  0.00  0.00    +0.003 A 
ATOM     13  C   UNL     1      -1.219   1.750   0.017  0.00  0.00    -0.050 A 
ATOM     14  C   UNL     1      -1.238   3.133   0.029  0.00  0.00    +0.007 A 
ATOM     15  C   UNL     1      -2.514   0.979   0.019  0.00  0.00    +0.044 C 
ENDBRANCH   4   9
BRANCH   3  16
ATOM     16  C   UNL     1      -0.093   6.136   2.433  0.00  0.00    +0.337 C 
ATOM     17  O   UNL     1       0.478   6.543   3.426  0.00  0.00    -0.245 OA
BRANCH  16  18
ATOM     18  O   UNL     1      -1.430   5.954   2.451  0.00  0.00    -0.459 OA
BRANCH  18  19
ATOM     19  C   UNL     1      -2.111   6.261   3.669  0.00  0.00    +0.171 C 
ATOM     20  C   UNL     1      -3.535   6.724   3.356  0.00  0.00    +0.052 C 
ATOM     21  C   UNL     1      -2.163   5.012   4.552  0.00  0.00    +0.052 C 
ENDBRANCH  18  19
ENDBRANCH  16  18
ENDBRANCH   3  16
BRANCH   1  22
ATOM     22  C   UNL     1       4.172   5.713   0.214  0.00  0.00    +0.233 C 
BRANCH  22  23
ATOM     23  C   UNL     1       4.777   7.081   0.035  0.00  0.00    +0.325 C 
ATOM     24  O   UNL     1       4.063   8.037  -0.155  0.00  0.00    -0.249 OA
BRANCH  23  25
ATOM     25  O   UNL     1       6.109   7.237   0.086  0.00  0.00    -0.464 OA
BRANCH  25  27
ATOM     26  C   UNL     1       8.149   8.564  -0.005  0.00  0.00    +0.048 C 
ATOM     27  C   UNL     1       6.622   8.584  -0.095  0.00  0.00    +0.229 C 
ENDBRANCH  25  27
ENDBRANCH  23  25
ENDBRANCH  22  23
ENDBRANCH   1  22
TORSDOF 8
