REMARK  Name = ZINC02783722
REMARK  6 active torsions:
REMARK  status: ('A' for Active; 'I' for Inactive)
REMARK    1  A    between atoms: C_1  and  C_2
REMARK    2  A    between atoms: C_7  and  N_8
REMARK    3  A    between atoms: N_8  and  C_9
REMARK    4  A    between atoms: C_9  and  N_11
REMARK    5  A    between atoms: N_11  and  N_12
REMARK    6  A    between atoms: C_13  and  C_15
REMARK                            x       y       z     vdW  Elec       q    Type
REMARK                         _______ _______ _______ _____ _____    ______ ____
ROOT
ATOM      1  N   UNL     1       2.382   1.245  -0.399  0.00  0.00    -0.245 N 
ATOM      2  H   UNL     1       2.392   0.318  -0.684  0.00  0.00    +0.172 HD
ENDROOT
BRANCH   1   3
ATOM      3  N   UNL     1       1.183   1.834   0.025  0.00  0.00    -0.231 N 
ATOM      4  C   UNL     1       0.045   1.113   0.036  0.00  0.00    +0.260 C 
ATOM      5  O   UNL     1       0.058  -0.049  -0.322  0.00  0.00    -0.269 OA
ATOM      6  H   UNL     1       1.173   2.761   0.310  0.00  0.00    +0.173 HD
BRANCH   4   7
ATOM      7  C   UNL     1      -1.220   1.736   0.477  0.00  0.00    +0.040 A 
ATOM      8  C   UNL     1      -1.237   3.068   0.894  0.00  0.00    +0.014 A 
ATOM      9  C   UNL     1      -2.421   3.646   1.300  0.00  0.00    +0.022 A 
ATOM     10  C   UNL     1      -3.591   2.905   1.305  0.00  0.00    +0.059 A 
ATOM     11  C   UNL     1      -3.580   1.580   0.898  0.00  0.00    +0.060 A 
ATOM     12  C   UNL     1      -2.402   0.993   0.484  0.00  0.00    +0.034 A 
ATOM     13 CL   UNL     1      -5.051   0.658   0.907  0.00  0.00    -0.082 Cl
ATOM     14 CL   UNL     1      -5.077   3.638   1.824  0.00  0.00    -0.082 Cl
ENDBRANCH   4   7
ENDBRANCH   1   3
BRANCH   1  15
ATOM     15  C   UNL     1       3.520   1.966  -0.410  0.00  0.00    +0.151 C 
ATOM     16  S   UNL     1       4.985   1.247  -0.928  0.00  0.00    -0.017 S 
BRANCH  15  17
ATOM     17  N   UNL     1       3.506   3.255  -0.014  0.00  0.00    -0.296 N 
ATOM     18  H   UNL     1       2.664   3.686   0.203  0.00  0.00    +0.154 HD
BRANCH  17  25
ATOM     19  C   UNL     1       3.583   5.897  -1.065  0.00  0.00    +0.046 C 
ATOM     20  C   UNL     1       4.785   5.263  -0.416  0.00  0.00    -0.028 A 
ATOM     21  C   UNL     1       5.968   5.969  -0.312  0.00  0.00    +0.025 A 
ATOM     22  C   UNL     1       7.075   5.385   0.278  0.00  0.00    +0.041 A 
ATOM     23  C   UNL     1       6.998   4.094   0.772  0.00  0.00    +0.022 A 
ATOM     24  C   UNL     1       5.817   3.386   0.676  0.00  0.00    +0.025 A 
ATOM     25  C   UNL     1       4.704   3.970   0.084  0.00  0.00    +0.036 A 
ATOM     26 CL   UNL     1       8.562   6.273   0.400  0.00  0.00    -0.084 Cl
ENDBRANCH  17  25
ENDBRANCH  15  17
ENDBRANCH   1  15
TORSDOF 5
