REMARK  Name = ZINC09505937
REMARK  8 active torsions:
REMARK  status: ('A' for Active; 'I' for Inactive)
REMARK    1  A    between atoms: C_1  and  C_2
REMARK    2  A    between atoms: C_9  and  N_15
REMARK    3  A    between atoms: C_10  and  C_11
REMARK    4  A    between atoms: C_11  and  O_13
REMARK    5  A    between atoms: O_13  and  C_14
REMARK    6  A    between atoms: C_16  and  C_18
REMARK    7  A    between atoms: N_23  and  S_24
REMARK    8  A    between atoms: S_24  and  C_27
REMARK                            x       y       z     vdW  Elec       q    Type
REMARK                         _______ _______ _______ _____ _____    ______ ____
ROOT
ATOM      1  N   UNL     1       0.922   4.486  -3.213  0.00  0.00    -0.278 N 
ATOM      2  C   UNL     1       0.600   3.361  -2.545  0.00  0.00    +0.236 C 
ATOM      3  O   UNL     1       1.431   2.492  -2.384  0.00  0.00    -0.274 OA
ATOM      4  H   UNL     1       0.258   5.181  -3.342  0.00  0.00    +0.155 HD
ENDROOT
BRANCH   1  12
ATOM      5  C   UNL     1       8.278   5.063  -5.811  0.00  0.00    +0.008 C 
ATOM      6  C   UNL     1       6.917   5.436  -5.220  0.00  0.00    -0.009 C 
ATOM      7  C   UNL     1       6.073   6.154  -6.277  0.00  0.00    +0.008 C 
ATOM      8  C   UNL     1       4.820   6.745  -5.630  0.00  0.00    +0.037 C 
ATOM      9  C   UNL     1       4.109   5.649  -4.846  0.00  0.00    -0.021 A 
ATOM     10  C   UNL     1       4.754   4.517  -4.492  0.00  0.00    -0.004 A 
ATOM     11  S   UNL     1       3.549   3.565  -3.611  0.00  0.00    -0.077 S 
ATOM     12  C   UNL     1       2.203   4.650  -3.718  0.00  0.00    +0.086 A 
ATOM     13  C   UNL     1       2.720   5.726  -4.427  0.00  0.00    +0.091 A 
ATOM     14  C   UNL     1       6.180   4.161  -4.782  0.00  0.00    +0.046 C 
BRANCH  13  15
ATOM     15  C   UNL     1       1.895   6.896  -4.741  0.00  0.00    +0.342 C 
ATOM     16  O   UNL     1       1.851   7.834  -3.968  0.00  0.00    -0.245 OA
BRANCH  15  17
ATOM     17  O   UNL     1       1.186   6.932  -5.887  0.00  0.00    -0.464 OA
ATOM     18  C   UNL     1       0.391   8.122  -6.133  0.00  0.00    +0.280 C 
ENDBRANCH  15  17
ENDBRANCH  13  15
ENDBRANCH   1  12
BRANCH   2  19
ATOM     19  C   UNL     1      -0.792   3.183  -1.996  0.00  0.00    +0.166 C 
ATOM     20  C   UNL     1      -1.817   3.178  -3.149  0.00  0.00    +0.031 C 
ATOM     21  C   UNL     1      -2.838   2.098  -2.702  0.00  0.00    +0.019 C 
ATOM     22  C   UNL     1      -1.912   1.069  -2.002  0.00  0.00    +0.110 C 
ATOM     23  N   UNL     1      -0.897   1.885  -1.312  0.00  0.00    -0.164 NA
BRANCH  23  24
ATOM     24  S   UNL     1      -0.017   1.417   0.010  0.00  0.00    +0.068 S 
ATOM     25  O   UNL     1       0.002  -0.004   0.002  0.00  0.00    -0.152 OA
ATOM     26  O   UNL     1       1.172   2.195   0.003  0.00  0.00    -0.152 OA
BRANCH  24  27
ATOM     27  C   UNL     1      -0.927   1.900   1.439  0.00  0.00    +0.143 A 
ATOM     28  C   UNL     1      -1.866   1.207   2.128  0.00  0.00    +0.036 A 
ATOM     29  C   UNL     1      -2.452   1.791   3.236  0.00  0.00    +0.010 A 
ATOM     30  C   UNL     1      -2.078   3.044   3.594  0.00  0.00    +0.047 A 
ATOM     31  S   UNL     1      -0.856   3.433   2.352  0.00  0.00    -0.077 S 
ENDBRANCH  24  27
ENDBRANCH  23  24
ENDBRANCH   2  19
TORSDOF 6
