REMARK  Name = ZINC05095408
REMARK  10 active torsions:
REMARK  status: ('A' for Active; 'I' for Inactive)
REMARK    1  A    between atoms: C_1  and  C_2
REMARK    2  A    between atoms: C_2  and  O_3
REMARK    3  A    between atoms: O_3  and  C_4
REMARK    4  A    between atoms: C_7  and  C_13
REMARK    5  A    between atoms: C_8  and  O_10
REMARK    6  A    between atoms: O_10  and  C_11
REMARK    7  A    between atoms: C_11  and  C_12
REMARK    8  A    between atoms: C_20  and  N_31
REMARK    9  A    between atoms: C_21  and  C_29
REMARK   10  A    between atoms: C_22  and  C_24
REMARK                            x       y       z     vdW  Elec       q    Type
REMARK                         _______ _______ _______ _____ _____    ______ ____
ROOT
ATOM      1  C   UNL     1       1.136  -6.044   1.754  0.00  0.00    +0.104 A 
ATOM      2  C   UNL     1       1.402  -6.962   0.733  0.00  0.00    +0.055 A 
ATOM      3  C   UNL     1       1.427  -8.211   1.282  0.00  0.00    +0.223 A 
ATOM      4  N   UNL     1       1.186  -8.082   2.604  0.00  0.00    -0.246 N 
ATOM      5  H   UNL     1       1.145  -8.806   3.249  0.00  0.00    +0.192 HD
ATOM      6  N   UNL     1       1.012  -6.718   2.882  0.00  0.00    -0.170 NA
ATOM      7  O   UNL     1       1.658  -9.329   0.550  0.00  0.00    -0.423 OA
ATOM      8  C   UNL     1       1.596  -9.220  -0.792  0.00  0.00    +0.200 C 
ATOM      9  C   UNL     1       1.579  -8.040  -1.452  0.00  0.00    +0.099 C 
ATOM     10  C   UNL     1       1.633  -6.714  -0.736  0.00  0.00    +0.108 C 
ENDROOT
BRANCH   1  14
ATOM     11  C   UNL     1       0.802  -1.824   1.306  0.00  0.00    +0.124 A 
ATOM     12  C   UNL     1       0.128  -2.671   0.436  0.00  0.00    +0.046 A 
ATOM     13  C   UNL     1       0.234  -4.039   0.579  0.00  0.00    +0.017 A 
ATOM     14  C   UNL     1       1.020  -4.574   1.598  0.00  0.00    +0.044 A 
ATOM     15  C   UNL     1       1.699  -3.720   2.473  0.00  0.00    +0.133 A 
ATOM     16  C   UNL     1       1.591  -2.348   2.319  0.00  0.00    +0.092 A 
BRANCH  11  17
ATOM     17  O   UNL     1       0.693  -0.477   1.160  0.00  0.00    -0.492 OA
BRANCH  17  19
ATOM     18  C   UNL     1      -0.136   1.525   0.090  0.00  0.00    +0.048 C 
ATOM     19  C   UNL     1      -0.136  -0.005   0.096  0.00  0.00    +0.225 C 
ENDBRANCH  17  19
ENDBRANCH  11  17
BRANCH  15  20
ATOM     20  O   UNL     1       2.467  -4.236   3.468  0.00  0.00    -0.491 OA
BRANCH  20  21
ATOM     21  C   UNL     1       3.131  -3.304   4.324  0.00  0.00    +0.226 C 
ATOM     22  C   UNL     1       3.941  -4.064   5.375  0.00  0.00    +0.048 C 
ENDBRANCH  20  21
ENDBRANCH  15  20
ENDBRANCH   1  14
BRANCH  10  23
ATOM     23  C   UNL     1       2.987  -6.082  -0.937  0.00  0.00    +0.003 A 
ATOM     24  C   UNL     1       3.296  -4.882  -1.485  0.00  0.00    +0.012 A 
ATOM     25  C   UNL     1       4.623  -4.504  -1.567  0.00  0.00    +0.008 A 
ATOM     26  C   UNL     1       5.576  -5.345  -1.097  0.00  0.00    +0.045 A 
ATOM     27  S   UNL     1       4.599  -6.718  -0.509  0.00  0.00    -0.101 S 
ENDBRANCH  10  23
BRANCH   8  28
ATOM     28  N   UNL     1       1.547 -10.375  -1.533  0.00  0.00    -0.328 N 
ATOM     29  H   UNL     1       1.558 -11.237  -1.088  0.00  0.00    +0.145 HD
ATOM     30  H   UNL     1       1.501 -10.329  -2.501  0.00  0.00    +0.145 HD
ENDBRANCH   8  28
BRANCH   9  31
ATOM     31  C   UNL     1       1.508  -8.050  -2.882  0.00  0.00    +0.101 C 
ATOM     32  N   UNL     1       1.451  -8.057  -4.016  0.00  0.00    -0.191 NA
ENDBRANCH   9  31
TORSDOF 8
