REMARK  Name = ZINC00885822
REMARK  12 active torsions:
REMARK  status: ('A' for Active; 'I' for Inactive)
REMARK    1  A    between atoms: C_1  and  C_2
REMARK    2  A    between atoms: C_5  and  C_7
REMARK    3  A    between atoms: C_7  and  C_9
REMARK    4  A    between atoms: C_7  and  N_19
REMARK    5  A    between atoms: N_11  and  C_12
REMARK    6  A    between atoms: C_12  and  C_13
REMARK    7  A    between atoms: N_19  and  C_20
REMARK    8  A    between atoms: C_20  and  C_21
REMARK    9  A    between atoms: C_24  and  O_27
REMARK   10  A    between atoms: O_27  and  C_28
REMARK   11  A    between atoms: C_29  and  C_31
REMARK   12  A    between atoms: C_34  and  C_37
REMARK                            x       y       z     vdW  Elec       q    Type
REMARK                         _______ _______ _______ _____ _____    ______ ____
ROOT
ATOM      1  N   UNL     1       2.821  -2.841  -1.434  0.00  0.00    -0.274 N 
ATOM      2  C   UNL     1       3.205  -3.564  -2.504  0.00  0.00    +0.264 C 
ATOM      3  O   UNL     1       2.801  -4.703  -2.647  0.00  0.00    -0.268 OA
ENDROOT
BRANCH   2   4
ATOM      4  C   UNL     1       4.111  -2.978  -3.498  0.00  0.00    +0.102 A 
ATOM      5  C   UNL     1       4.285  -3.416  -4.795  0.00  0.00    +0.033 A 
ATOM      6  C   UNL     1       5.231  -2.585  -5.393  0.00  0.00    +0.028 A 
ATOM      7  C   UNL     1       5.620  -1.653  -4.456  0.00  0.00    +0.047 A 
ATOM      8  N   UNL     1       4.931  -1.890  -3.302  0.00  0.00    -0.351 N 
ATOM      9  H   UNL     1       5.008  -1.379  -2.482  0.00  0.00    +0.166 HD
BRANCH   7  10
ATOM     10  C   UNL     1       6.609  -0.575  -4.667  0.00  0.00    -0.002 A 
ATOM     11  C   UNL     1       6.920   0.304  -3.628  0.00  0.00    +0.010 A 
ATOM     12  C   UNL     1       7.845   1.308  -3.832  0.00  0.00    +0.001 A 
ATOM     13  C   UNL     1       8.464   1.443  -5.062  0.00  0.00    +0.000 A 
ATOM     14  C   UNL     1       8.160   0.575  -6.096  0.00  0.00    +0.001 A 
ATOM     15  C   UNL     1       7.242  -0.436  -5.904  0.00  0.00    +0.010 A 
ENDBRANCH   7  10
ENDBRANCH   2   4
BRANCH   1  16
ATOM     16  C   UNL     1       1.812  -3.373  -0.515  0.00  0.00    +0.229 C 
BRANCH  16  21
ATOM     17  C   UNL     1      -0.775   0.947  -0.205  0.00  0.00    +0.086 C 
ATOM     18  C   UNL     1      -0.463  -0.526  -0.282  0.00  0.00    +0.102 A 
ATOM     19  C   UNL     1      -1.367  -1.522  -0.278  0.00  0.00    +0.045 A 
ATOM     20  C   UNL     1      -0.642  -2.733  -0.365  0.00  0.00    +0.047 A 
ATOM     21  C   UNL     1       0.661  -2.404  -0.417  0.00  0.00    +0.135 A 
ATOM     22  O   UNL     1       0.763  -1.066  -0.372  0.00  0.00    -0.462 OA
ENDBRANCH  16  21
BRANCH  16  23
ATOM     23  C   UNL     1       2.424  -3.564   0.848  0.00  0.00    +0.241 C 
ATOM     24  O   UNL     1       3.604  -3.340   1.020  0.00  0.00    -0.273 OA
ATOM     25  N   UNL     1       1.661  -3.985   1.877  0.00  0.00    -0.311 N 
ATOM     26  H   UNL     1       0.718  -4.164   1.740  0.00  0.00    +0.149 HD
BRANCH  25  27
ATOM     27  C   UNL     1       2.257  -4.171   3.202  0.00  0.00    +0.135 C 
BRANCH  27  28
ATOM     28  C   UNL     1       1.183  -4.649   4.181  0.00  0.00    +0.135 C 
ATOM     29  C   UNL     1       1.773  -4.733   5.606  0.00  0.00    +0.035 C 
ATOM     30  C   UNL     1       1.117  -6.027   6.159  0.00  0.00    +0.031 C 
ATOM     31  C   UNL     1       1.040  -6.890   4.874  0.00  0.00    +0.160 C 
ATOM     32  O   UNL     1       0.743  -5.963   3.816  0.00  0.00    -0.375 OA
ENDBRANCH  27  28
ENDBRANCH  25  27
ENDBRANCH  16  23
ENDBRANCH   1  16
BRANCH   1  33
ATOM     33  C   UNL     1       3.413  -1.523  -1.189  0.00  0.00    +0.144 C 
BRANCH  33  34
ATOM     34  C   UNL     1       4.623  -1.673  -0.303  0.00  0.00    -0.030 A 
ATOM     35  C   UNL     1       4.526  -1.405   1.050  0.00  0.00    +0.009 A 
ATOM     36  C   UNL     1       5.634  -1.542   1.864  0.00  0.00    +0.046 A 
ATOM     37  C   UNL     1       6.845  -1.948   1.322  0.00  0.00    +0.120 A 
ATOM     38  C   UNL     1       6.940  -2.216  -0.035  0.00  0.00    +0.046 A 
ATOM     39  C   UNL     1       5.828  -2.083  -0.844  0.00  0.00    +0.009 A 
BRANCH  37  40
ATOM     40  O   UNL     1       7.936  -2.082   2.121  0.00  0.00    -0.495 OA
ATOM     41  C   UNL     1       9.150  -2.504   1.495  0.00  0.00    +0.277 C 
ENDBRANCH  37  40
ENDBRANCH  33  34
ENDBRANCH   1  33
TORSDOF 10
