REMARK  Name = ZINC02110887
REMARK  7 active torsions:
REMARK  status: ('A' for Active; 'I' for Inactive)
REMARK    1  A    between atoms: C_1  and  C_2
REMARK    2  A    between atoms: C_2  and  C_3
REMARK    3  A    between atoms: C_2  and  C_4
REMARK    4  A    between atoms: C_4  and  N_5
REMARK    5  A    between atoms: C_6  and  C_8
REMARK    6  A    between atoms: C_13  and  N_14
REMARK    7  A    between atoms: C_17  and  C_33
REMARK                            x       y       z     vdW  Elec       q    Type
REMARK                         _______ _______ _______ _____ _____    ______ ____
ROOT
ATOM      1  N   UNL     1       6.184   2.720   1.718  0.00  0.00    -0.191 N 
ATOM      2  C   UNL     1       5.394   1.839   1.067  0.00  0.00    +0.257 C 
ATOM      3  O   UNL     1       5.217   0.671   1.339  0.00  0.00    -0.272 OA
ATOM      4  C   UNL     1       4.778   2.616  -0.072  0.00  0.00    +0.153 C 
ATOM      5  C   UNL     1       3.269   2.573  -0.022  0.00  0.00    +0.053 A 
ATOM      6  C   UNL     1       2.503   3.687   0.003  0.00  0.00    -0.015 A 
ATOM      7  C   UNL     1       1.122   3.238   0.010  0.00  0.00    +0.003 A 
ATOM      8  C   UNL     1      -0.094   3.929   0.024  0.00  0.00    +0.010 A 
ATOM      9  C   UNL     1      -1.238   3.169   0.030  0.00  0.00    +0.001 A 
ATOM     10  C   UNL     1      -1.202   1.784   0.017  0.00  0.00    +0.002 A 
ATOM     11  C   UNL     1      -0.013   1.076   0.008  0.00  0.00    +0.026 A 
ATOM     12  C   UNL     1       1.165   1.821   0.001  0.00  0.00    +0.047 A 
ATOM     13  N   UNL     1       2.480   1.456  -0.015  0.00  0.00    -0.356 N 
ATOM     14  H   UNL     1       2.805   0.542  -0.020  0.00  0.00    +0.166 HD
ATOM     15  C   UNL     1       2.996   5.111   0.024  0.00  0.00    +0.056 C 
ATOM     16  C   UNL     1       4.482   5.166  -0.361  0.00  0.00    +0.115 C 
ATOM     17  N   UNL     1       5.145   4.016   0.253  0.00  0.00    -0.265 N 
ATOM     18  C   UNL     1       6.092   3.951   1.189  0.00  0.00    +0.317 C 
ATOM     19  O   UNL     1       6.786   4.891   1.523  0.00  0.00    -0.252 OA
ATOM     20  C   UNL     1       5.316   2.179  -1.437  0.00  0.00    +0.048 C 
ENDROOT
BRANCH   1  26
ATOM     21  C   UNL     1       6.498   2.487   4.112  0.00  0.00    +0.059 A 
ATOM     22  C   UNL     1       7.319   2.151   5.191  0.00  0.00    +0.015 A 
ATOM     23  C   UNL     1       8.615   1.738   4.966  0.00  0.00    +0.001 A 
ATOM     24  C   UNL     1       9.106   1.650   3.674  0.00  0.00    +0.002 A 
ATOM     25  C   UNL     1       8.304   1.974   2.598  0.00  0.00    +0.025 A 
ATOM     26  C   UNL     1       6.997   2.391   2.805  0.00  0.00    +0.058 A 
BRANCH  21  28
ATOM     27  N   UNL     1       4.636   3.027   5.604  0.00  0.00    -0.311 N 
ATOM     28  C   UNL     1       5.112   2.936   4.346  0.00  0.00    +0.246 C 
ATOM     29  O   UNL     1       4.399   3.224   3.404  0.00  0.00    -0.270 OA
ATOM     30  H   UNL     1       5.205   2.797   6.355  0.00  0.00    +0.149 HD
BRANCH  27  31
ATOM     31  C   UNL     1       3.260   3.473   5.836  0.00  0.00    +0.107 C 
BRANCH  31  33
ATOM     32  C   UNL     1       1.583   4.069   7.589  0.00  0.00    +0.009 C 
ATOM     33  C   UNL     1       2.976   3.487   7.339  0.00  0.00    -0.000 C 
ATOM     34  C   UNL     1       3.036   2.058   7.883  0.00  0.00    +0.009 C 
ENDBRANCH  31  33
ENDBRANCH  27  31
ENDBRANCH  21  28
ENDBRANCH   1  26
TORSDOF 4
