REMARK  Name = ZINC59346513
REMARK  6 active torsions:
REMARK  status: ('A' for Active; 'I' for Inactive)
REMARK    1  A    between atoms: C_1  and  C_2
REMARK    2  A    between atoms: C_7  and  N_8
REMARK    3  A    between atoms: N_8  and  C_9
REMARK    4  A    between atoms: C_9  and  N_11
REMARK    5  A    between atoms: C_14  and  C_17
REMARK    6  A    between atoms: C_14  and  N_20
REMARK                            x       y       z     vdW  Elec       q    Type
REMARK                         _______ _______ _______ _____ _____    ______ ____
ROOT
ATOM      1  N   UNL     1       0.247   0.236   4.500  0.00  0.00    -0.313 N 
ATOM      2  C   UNL     1      -0.021   1.669   4.678  0.00  0.00    +0.106 C 
ATOM      3  C   UNL     1       0.896   2.210   5.779  0.00  0.00    +0.016 C 
ATOM      4  C   UNL     1       0.710   1.374   7.048  0.00  0.00    +0.015 C 
ATOM      5  C   UNL     1       1.100  -0.079   6.765  0.00  0.00    +0.016 C 
ATOM      6  C   UNL     1       0.180  -0.646   5.673  0.00  0.00    +0.106 C 
ENDROOT
BRANCH   4   7
ATOM      7  N   UNL     1       1.564   1.910   8.116  0.00  0.00    +0.389 N 
ATOM      8  C   UNL     1       2.962   1.911   7.670  0.00  0.00    -0.077 C 
ATOM      9  C   UNL     1       3.845   2.543   8.748  0.00  0.00    -0.019 C 
ATOM     10  C   UNL     1       3.721   1.733  10.041  0.00  0.00    -0.004 C 
ATOM     11  C   UNL     1       2.249   1.677  10.457  0.00  0.00    -0.019 C 
ATOM     12  C   UNL     1       1.425   1.076   9.316  0.00  0.00    -0.077 C 
ATOM     13  H   UNL     1       1.280   2.855   8.330  0.00  0.00    -0.080 HD
ENDBRANCH   4   7
BRANCH   4  14
ATOM     14  C   UNL     1      -0.732   1.432   7.481  0.00  0.00    +0.200 C 
ATOM     15  O   UNL     1      -1.501   0.555   7.147  0.00  0.00    -0.278 OA
ATOM     16  N   UNL     1      -1.167   2.458   8.239  0.00  0.00    -0.330 N 
ATOM     17  H   UNL     1      -0.572   3.195   8.445  0.00  0.00    +0.145 HD
ATOM     18  H   UNL     1      -2.076   2.459   8.578  0.00  0.00    +0.145 HD
ENDBRANCH   4  14
BRANCH   1  19
ATOM     19  C   UNL     1       0.544  -0.262   3.283  0.00  0.00    +0.137 C 
ATOM     20  S   UNL     1       0.703  -1.952   3.065  0.00  0.00    -0.018 S 
BRANCH  19  21
ATOM     21  N   UNL     1       0.717   0.572   2.238  0.00  0.00    -0.297 N 
ATOM     22  H   UNL     1       0.699   1.532   2.376  0.00  0.00    +0.154 HD
BRANCH  21  29
ATOM     23  C   UNL     1      -0.808   1.652   0.092  0.00  0.00    +0.045 C 
ATOM     24  C   UNL     1       0.199   0.551  -0.120  0.00  0.00    -0.029 A 
ATOM     25  C   UNL     1       0.408   0.040  -1.387  0.00  0.00    +0.005 A 
ATOM     26  C   UNL     1       1.331  -0.971  -1.583  0.00  0.00    +0.000 A 
ATOM     27  C   UNL     1       2.048  -1.473  -0.512  0.00  0.00    +0.002 A 
ATOM     28  C   UNL     1       1.844  -0.967   0.756  0.00  0.00    +0.023 A 
ATOM     29  C   UNL     1       0.921   0.052   0.956  0.00  0.00    +0.036 A 
ENDBRANCH  21  29
ENDBRANCH  19  21
ENDBRANCH   1  19
TORSDOF 5
