REMARK  Name = ZINC57933867
REMARK  5 active torsions:
REMARK  status: ('A' for Active; 'I' for Inactive)
REMARK    1  A    between atoms: C_1  and  C_2
REMARK    2  A    between atoms: C_2  and  C_3
REMARK    3  A    between atoms: N_7  and  C_17
REMARK    4  A    between atoms: C_17  and  C_18
REMARK    5  A    between atoms: N_20  and  C_21
REMARK                            x       y       z     vdW  Elec       q    Type
REMARK                         _______ _______ _______ _____ _____    ______ ____
ROOT
ATOM      1  C   UNL     1       0.718  -0.497  -1.257  0.00  0.00    +0.157 C 
ATOM      2  C   UNL     1       0.844  -1.999  -1.210  0.00  0.00    +0.240 C 
ATOM      3  O   UNL     1       1.831  -2.503  -0.716  0.00  0.00    -0.273 OA
ATOM      4  N   UNL     1      -0.126  -2.786  -1.708  0.00  0.00    -0.259 N 
ATOM      5  C   UNL     1      -1.207  -2.238  -2.409  0.00  0.00    +0.059 A 
ATOM      6  C   UNL     1      -2.301  -3.021  -2.744  0.00  0.00    +0.046 A 
ATOM      7  C   UNL     1      -3.365  -2.462  -3.428  0.00  0.00    +0.061 A 
ATOM      8  C   UNL     1      -3.345  -1.123  -3.780  0.00  0.00    +0.061 A 
ATOM      9  C   UNL     1      -2.254  -0.335  -3.452  0.00  0.00    +0.046 A 
ATOM     10  C   UNL     1      -1.185  -0.891  -2.771  0.00  0.00    +0.051 A 
ATOM     11  N   UNL     1      -0.059  -0.117  -2.446  0.00  0.00    -0.331 N 
ATOM     12 CL   UNL     1      -4.688  -0.431  -4.635  0.00  0.00    -0.082 Cl
ATOM     13 CL   UNL     1      -4.734  -3.444  -3.848  0.00  0.00    -0.082 Cl
ATOM     14  H   UNL     1       0.200   0.644  -2.988  0.00  0.00    +0.147 HD
ENDROOT
BRANCH   1  16
ATOM     15  C   UNL     1      -0.019   1.526   0.010  0.00  0.00    +0.006 C 
ATOM     16  C   UNL     1       0.002  -0.004   0.002  0.00  0.00    +0.028 C 
ENDBRANCH   1  16
BRANCH   4  17
ATOM     17  C   UNL     1      -0.050  -4.237  -1.517  0.00  0.00    +0.209 C 
BRANCH  17  18
ATOM     18  C   UNL     1      -0.749  -4.611  -0.235  0.00  0.00    +0.231 C 
ATOM     19  O   UNL     1      -1.260  -3.752   0.451  0.00  0.00    -0.274 OA
ATOM     20  N   UNL     1      -0.806  -5.902   0.149  0.00  0.00    -0.317 N 
ATOM     21  C   UNL     1      -1.485  -6.266   1.395  0.00  0.00    +0.128 C 
ATOM     22  H   UNL     1      -0.397  -6.590  -0.400  0.00  0.00    +0.148 HD
ENDBRANCH  17  18
ENDBRANCH   4  17
TORSDOF 3
