REMARK  Name = ZINC00700740
REMARK  16 active torsions:
REMARK  status: ('A' for Active; 'I' for Inactive)
REMARK    1  A    between atoms: C_1  and  C_2
REMARK    2  A    between atoms: C_2  and  C_3
REMARK    3  A    between atoms: C_2  and  C_4
REMARK    4  A    between atoms: C_4  and  N_5
REMARK    5  A    between atoms: C_6  and  C_8
REMARK    6  A    between atoms: C_11  and  C_13
REMARK    7  A    between atoms: C_13  and  N_14
REMARK    8  A    between atoms: N_14  and  C_15
REMARK    9  A    between atoms: N_14  and  C_27
REMARK   10  A    between atoms: C_15  and  C_16
REMARK   11  A    between atoms: C_16  and  C_17
REMARK   12  A    between atoms: C_20  and  O_25
REMARK   13  A    between atoms: C_21  and  O_23
REMARK   14  A    between atoms: O_23  and  C_24
REMARK   15  A    between atoms: O_25  and  C_26
REMARK   16  A    between atoms: C_27  and  C_28
REMARK                            x       y       z     vdW  Elec       q    Type
REMARK                         _______ _______ _______ _____ _____    ______ ____
ROOT
ATOM      1  N   UNL     1       6.133  -0.994   1.269  0.00  0.00    -0.292 NA
ENDROOT
BRANCH   1   2
ATOM      2  C   UNL     1       5.892  -2.326   0.699  0.00  0.00    +0.147 C 
BRANCH   2   6
ATOM      3  C   UNL     1       3.433  -1.953  -2.085  0.00  0.00    +0.133 A 
ATOM      4  C   UNL     1       2.333  -2.344  -1.364  0.00  0.00    +0.080 A 
ATOM      5  S   UNL     1       3.034  -2.666   0.190  0.00  0.00    -0.078 S 
ATOM      6  C   UNL     1       4.680  -2.278  -0.196  0.00  0.00    +0.093 A 
ATOM      7  N   UNL     1       4.607  -1.928  -1.454  0.00  0.00    -0.238 NA
BRANCH   3   9
ATOM      8  N   UNL     1       4.417  -1.190  -4.187  0.00  0.00    -0.310 N 
ATOM      9  C   UNL     1       3.320  -1.569  -3.503  0.00  0.00    +0.263 C 
ATOM     10  O   UNL     1       2.236  -1.595  -4.055  0.00  0.00    -0.269 OA
ATOM     11  H   UNL     1       5.396  -1.166  -3.688  0.00  0.00    +0.149 HD
BRANCH   8  12
ATOM     12  C   UNL     1       4.304  -0.808  -5.597  0.00  0.00    +0.107 C 
BRANCH  12  14
ATOM     13  C   UNL     1       6.598  -1.650  -6.117  0.00  0.00    +0.009 C 
ATOM     14  C   UNL     1       5.684  -0.423  -6.133  0.00  0.00    -0.000 C 
ATOM     15  C   UNL     1       5.549   0.094  -7.567  0.00  0.00    +0.009 C 
ENDBRANCH  12  14
ENDBRANCH   8  12
ENDBRANCH   3   9
ENDBRANCH   2   6
ENDBRANCH   1   2
BRANCH   1  16
ATOM     16  C   UNL     1       7.514  -0.870   1.752  0.00  0.00    +0.090 C 
BRANCH  16  17
ATOM     17  C   UNL     1       7.802   0.590   2.106  0.00  0.00    +0.050 C 
BRANCH  17  18
ATOM     18  C   UNL     1       9.219   0.717   2.602  0.00  0.00    -0.042 A 
ATOM     19  C   UNL     1       9.493   0.583   3.950  0.00  0.00    +0.007 A 
ATOM     20  C   UNL     1      10.792   0.693   4.409  0.00  0.00    +0.049 A 
ATOM     21  C   UNL     1      11.822   0.950   3.519  0.00  0.00    +0.161 A 
ATOM     22  C   UNL     1      11.546   1.091   2.162  0.00  0.00    +0.162 A 
ATOM     23  C   UNL     1      10.242   0.974   1.708  0.00  0.00    +0.053 A 
BRANCH  22  24
ATOM     24  O   UNL     1      12.553   1.342   1.284  0.00  0.00    -0.491 OA
ATOM     25  C   UNL     1      12.196   1.474  -0.093  0.00  0.00    +0.277 C 
ENDBRANCH  22  24
BRANCH  21  26
ATOM     26  O   UNL     1      13.100   1.064   3.969  0.00  0.00    -0.491 OA
ATOM     27  C   UNL     1      13.309   0.907   5.374  0.00  0.00    +0.277 C 
ENDBRANCH  21  26
ENDBRANCH  17  18
ENDBRANCH  16  17
ENDBRANCH   1  16
BRANCH   1  28
ATOM     28  C   UNL     1       5.172  -0.699   2.340  0.00  0.00    +0.120 C 
BRANCH  28  29
ATOM     29  C   UNL     1       5.390  -1.651   3.487  0.00  0.00    -0.030 A 
ATOM     30  C   UNL     1       6.256  -1.313   4.510  0.00  0.00    +0.009 A 
ATOM     31  C   UNL     1       6.460  -2.183   5.564  0.00  0.00    +0.050 A 
ATOM     32  C   UNL     1       5.795  -3.398   5.599  0.00  0.00    +0.166 A 
ATOM     33  C   UNL     1       4.921  -3.739   4.569  0.00  0.00    +0.167 A 
ATOM     34  C   UNL     1       4.722  -2.861   3.515  0.00  0.00    +0.054 A 
ATOM     35  O   UNL     1       4.397  -4.972   4.831  0.00  0.00    -0.453 OA
ATOM     36  C   UNL     1       4.644  -5.204   6.231  0.00  0.00    +0.466 C 
ATOM     37  O   UNL     1       5.818  -4.417   6.506  0.00  0.00    -0.453 OA
ENDBRANCH  28  29
ENDBRANCH   1  28
TORSDOF 12
