REMARK  Name = ZINC38875674
REMARK  4 active torsions:
REMARK  status: ('A' for Active; 'I' for Inactive)
REMARK    1  A    between atoms: C_2  and  C_3
REMARK    2  A    between atoms: C_3  and  N_4
REMARK    3  A    between atoms: N_13  and  C_14
REMARK    4  A    between atoms: C_14  and  C_16
REMARK                            x       y       z     vdW  Elec       q    Type
REMARK                         _______ _______ _______ _____ _____    ______ ____
ROOT
ATOM      1  N   UNL     1       1.357   1.975  -0.000  0.00  0.00    -0.307 N 
ATOM      2  C   UNL     1       2.017   2.202   1.195  0.00  0.00    +0.094 A 
ATOM      3  C   UNL     1       1.523   2.003   2.498  0.00  0.00    +0.148 A 
ATOM      4  C   UNL     1       2.304   2.277   3.598  0.00  0.00    +0.040 A 
ATOM      5  C   UNL     1       3.596   2.755   3.460  0.00  0.00    +0.004 A 
ATOM      6  C   UNL     1       4.107   2.959   2.191  0.00  0.00    +0.017 A 
ATOM      7  C   UNL     1       3.328   2.687   1.091  0.00  0.00    +0.042 A 
ATOM      8  S   UNL     1       3.584   2.804  -0.663  0.00  0.00    -0.052 S 
ATOM      9  C   UNL     1       1.982   2.216  -1.187  0.00  0.00    +0.168 A 
ATOM     10  N   UNL     1       1.517   2.055  -2.420  0.00  0.00    -0.152 NA
ATOM     11  F   UNL     1       0.267   1.538   2.672  0.00  0.00    -0.203 F 
ENDROOT
BRANCH  10  12
ATOM     12  C   UNL     1       2.293   2.350  -3.472  0.00  0.00    +0.271 C 
ATOM     13  O   UNL     1       3.426   2.766  -3.296  0.00  0.00    -0.268 OA
BRANCH  12  14
ATOM     14  C   UNL     1       1.777   2.171  -4.840  0.00  0.00    +0.064 A 
ATOM     15  C   UNL     1       0.539   1.725  -5.193  0.00  0.00    +0.096 A 
ATOM     16  N   UNL     1       0.430   1.695  -6.545  0.00  0.00    -0.360 N 
ATOM     17  H   UNL     1      -0.360   1.412  -7.030  0.00  0.00    +0.165 HD
ATOM     18  C   UNL     1       1.603   2.124  -7.131  0.00  0.00    +0.047 A 
ATOM     19  C   UNL     1       2.496   2.447  -6.097  0.00  0.00    +0.012 A 
ATOM     20  C   UNL     1       3.771   2.920  -6.398  0.00  0.00    +0.011 A 
ATOM     21  C   UNL     1       4.149   3.071  -7.714  0.00  0.00    +0.001 A 
ATOM     22  C   UNL     1       3.267   2.755  -8.737  0.00  0.00    +0.002 A 
ATOM     23  C   UNL     1       2.005   2.279  -8.453  0.00  0.00    +0.026 A 
ENDBRANCH  12  14
ENDBRANCH  10  12
BRANCH   1  24
ATOM     24  C   UNL     1      -0.018   1.468   0.010  0.00  0.00    +0.212 C 
BRANCH  24  26
ATOM     25  C   UNL     1       0.018  -1.178  -0.004  0.00  0.00    +0.005 C 
ATOM     26  C   UNL     1       0.002  -0.004   0.002  0.00  0.00    -0.084 C 
ENDBRANCH  24  26
ENDBRANCH   1  24
TORSDOF 4
