REMARK  Name = ZINC35747279
REMARK  17 active torsions:
REMARK  status: ('A' for Active; 'I' for Inactive)
REMARK    1  A    between atoms: C_1  and  O_2
REMARK    2  A    between atoms: O_2  and  C_3
REMARK    3  A    between atoms: C_3  and  C_4
REMARK    4  A    between atoms: C_4  and  N_5
REMARK    5  A    between atoms: N_5  and  C_6
REMARK    6  A    between atoms: N_5  and  C_28
REMARK    7  A    between atoms: C_6  and  C_7
REMARK    8  A    between atoms: C_13  and  C_18
REMARK    9  A    between atoms: C_21  and  O_26
REMARK   10  A    between atoms: C_22  and  O_24
REMARK   11  A    between atoms: O_24  and  C_25
REMARK   12  A    between atoms: O_26  and  C_27
REMARK   13  A    between atoms: C_28  and  C_29
REMARK   14  A    between atoms: C_29  and  C_31
REMARK   15  A    between atoms: C_29  and  O_35
REMARK   16  A    between atoms: C_31  and  C_32
REMARK   17  A    between atoms: C_32  and  C_33
REMARK                            x       y       z     vdW  Elec       q    Type
REMARK                         _______ _______ _______ _____ _____    ______ ____
ROOT
ATOM      1  C   UNL     1      -1.903  -0.433   2.756  0.00  0.00    +0.094 A 
ATOM      2  N   UNL     1      -2.686  -0.107   3.816  0.00  0.00    -0.312 N 
ATOM      3  H   UNL     1      -3.171  -0.807   4.281  0.00  0.00    +0.170 HD
ATOM      4  C   UNL     1      -2.801   1.167   4.235  0.00  0.00    +0.260 A 
ATOM      5  O   UNL     1      -3.508   1.442   5.189  0.00  0.00    -0.267 OA
ATOM      6  C   UNL     1      -2.082   2.192   3.543  0.00  0.00    +0.080 A 
ATOM      7  C   UNL     1      -2.043   3.627   3.801  0.00  0.00    +0.004 A 
ATOM      8  C   UNL     1      -1.280   4.412   3.003  0.00  0.00    +0.056 A 
ATOM      9  S   UNL     1      -0.563   3.256   1.850  0.00  0.00    -0.076 S 
ATOM     10  C   UNL     1      -1.298   1.761   2.460  0.00  0.00    +0.116 A 
ATOM     11  N   UNL     1      -1.230   0.480   2.108  0.00  0.00    -0.229 NA
ENDROOT
BRANCH   7  12
ATOM     12  C   UNL     1      -2.825   4.215   4.915  0.00  0.00    -0.013 A 
ATOM     13  C   UNL     1      -4.176   3.905   5.060  0.00  0.00    +0.012 A 
ATOM     14  C   UNL     1      -4.903   4.453   6.097  0.00  0.00    +0.050 A 
ATOM     15  C   UNL     1      -4.292   5.313   6.997  0.00  0.00    +0.162 A 
ATOM     16  C   UNL     1      -2.942   5.626   6.857  0.00  0.00    +0.162 A 
ATOM     17  C   UNL     1      -2.208   5.075   5.822  0.00  0.00    +0.058 A 
BRANCH  16  18
ATOM     18  O   UNL     1      -2.345   6.470   7.741  0.00  0.00    -0.491 OA
ATOM     19  C   UNL     1      -0.958   6.747   7.537  0.00  0.00    +0.277 C 
ENDBRANCH  16  18
BRANCH  15  20
ATOM     20  O   UNL     1      -5.012   5.852   8.017  0.00  0.00    -0.491 OA
ATOM     21  C   UNL     1      -6.392   5.488   8.100  0.00  0.00    +0.277 C 
ENDBRANCH  15  20
ENDBRANCH   7  12
BRANCH   1  22
ATOM     22  C   UNL     1      -1.803  -1.873   2.323  0.00  0.00    -0.003 C 
BRANCH  22  23
ATOM     23  N   UNL     1      -0.784  -2.000   1.273  0.00  0.00    +0.388 N 
ATOM     24  H   UNL     1      -1.002  -1.371   0.515  0.00  0.00    -0.081 HD
BRANCH  23  25
ATOM     25  C   UNL     1      -0.765  -3.381   0.773  0.00  0.00    -0.050 C 
BRANCH  25  26
ATOM     26  C   UNL     1      -2.111  -3.707   0.123  0.00  0.00    +0.141 C 
BRANCH  26  28
ATOM     27  C   UNL     1      -3.616  -2.972  -1.591  0.00  0.00    +0.193 C 
ATOM     28  O   UNL     1      -2.333  -2.826  -0.980  0.00  0.00    -0.385 OA
ENDBRANCH  26  28
ENDBRANCH  25  26
ENDBRANCH  23  25
BRANCH  23  29
ATOM     29  C   UNL     1       0.534  -1.661   1.826  0.00  0.00    -0.046 C 
BRANCH  29  30
ATOM     30  C   UNL     1       1.560  -1.591   0.693  0.00  0.00    +0.098 C 
BRANCH  30  31
ATOM     31  O   UNL     1       1.805  -2.906   0.190  0.00  0.00    -0.394 OA
ATOM     32  H   UNL     1       2.151  -3.521   0.850  0.00  0.00    +0.210 HD
ENDBRANCH  30  31
BRANCH  30  33
ATOM     33  C   UNL     1       2.866  -0.996   1.224  0.00  0.00    +0.033 C 
BRANCH  33  34
ATOM     34  C   UNL     1       3.849  -0.810   0.066  0.00  0.00    +0.029 C 
BRANCH  34  35
ATOM     35  C   UNL     1       5.135  -0.224   0.589  0.00  0.00    -0.034 C 
ATOM     36  C   UNL     1       6.273  -0.831   0.357  0.00  0.00    +0.004 C 
ENDBRANCH  34  35
ENDBRANCH  33  34
ENDBRANCH  30  33
ENDBRANCH  29  30
ENDBRANCH  23  29
ENDBRANCH  22  23
ENDBRANCH   1  22
TORSDOF 14
