REMARK  Name = ZINC46526969
REMARK  9 active torsions:
REMARK  status: ('A' for Active; 'I' for Inactive)
REMARK    1  A    between atoms: C_1  and  C_2
REMARK    2  A    between atoms: C_2  and  C_3
REMARK    3  A    between atoms: C_8  and  N_9
REMARK    4  A    between atoms: C_12  and  C_17
REMARK    5  A    between atoms: C_17  and  N_18
REMARK    6  A    between atoms: N_18  and  C_19
REMARK    7  A    between atoms: N_18  and  C_20
REMARK    8  A    between atoms: C_20  and  C_21
REMARK    9  A    between atoms: C_24  and  C_27
REMARK                            x       y       z     vdW  Elec       q    Type
REMARK                         _______ _______ _______ _____ _____    ______ ____
ROOT
ATOM      1  N   UNL     1       2.833  -0.268  -0.114  0.00  0.00    -0.283 N 
ATOM      2  C   UNL     1       4.198  -0.480  -0.092  0.00  0.00    +0.224 A 
ATOM      3  N   UNL     1       4.888  -0.259   1.025  0.00  0.00    -0.198 NA
ATOM      4  C   UNL     1       6.194  -0.461   1.047  0.00  0.00    +0.150 A 
ATOM      5  N   UNL     1       6.820  -0.882  -0.039  0.00  0.00    -0.198 NA
ATOM      6  C   UNL     1       6.136  -1.104  -1.159  0.00  0.00    +0.217 A 
ATOM      7  N   UNL     1       4.822  -0.908  -1.183  0.00  0.00    -0.181 NA
ATOM      8  N   UNL     1       6.790  -1.543  -2.292  0.00  0.00    -0.327 N 
ATOM      9  H   UNL     1       2.364  -0.042   0.705  0.00  0.00    +0.155 HD
ATOM     10  H   UNL     1       7.748  -1.690  -2.272  0.00  0.00    +0.145 HD
ATOM     11  H   UNL     1       6.291  -1.705  -3.108  0.00  0.00    +0.145 HD
ENDROOT
BRANCH   1  17
ATOM     12  C   UNL     1       0.796  -0.778  -1.307  0.00  0.00    -0.026 A 
ATOM     13  C   UNL     1       0.101  -0.882  -2.495  0.00  0.00    +0.005 A 
ATOM     14  C   UNL     1       0.729  -0.596  -3.693  0.00  0.00    +0.000 A 
ATOM     15  C   UNL     1       2.056  -0.205  -3.706  0.00  0.00    +0.002 A 
ATOM     16  C   UNL     1       2.757  -0.100  -2.521  0.00  0.00    +0.023 A 
ATOM     17  C   UNL     1       2.127  -0.381  -1.316  0.00  0.00    +0.037 A 
BRANCH  12  19
ATOM     18  C   UNL     1      -0.425   0.206   0.614  0.00  0.00    +0.009 C 
ATOM     19  C   UNL     1       0.111  -1.089  -0.002  0.00  0.00    +0.033 C 
ENDBRANCH  12  19
ENDBRANCH   1  17
BRANCH   4  20
ATOM     20  C   UNL     1       6.972  -0.210   2.313  0.00  0.00    +0.160 C 
BRANCH  20  21
ATOM     21  N   UNL     1       7.016  -1.442   3.113  0.00  0.00    -0.294 NA
ATOM     22  C   UNL     1       7.789  -2.487   2.429  0.00  0.00    +0.105 C 
BRANCH  21  23
ATOM     23  C   UNL     1       7.556  -1.180   4.453  0.00  0.00    +0.119 C 
BRANCH  23  24
ATOM     24  C   UNL     1       7.359  -2.397   5.321  0.00  0.00    -0.033 A 
ATOM     25  C   UNL     1       6.199  -2.535   6.061  0.00  0.00    +0.006 A 
ATOM     26  C   UNL     1       6.013  -3.646   6.857  0.00  0.00    +0.019 A 
ATOM     27  C   UNL     1       6.999  -4.633   6.914  0.00  0.00    +0.052 A 
ATOM     28  C   UNL     1       8.167  -4.487   6.164  0.00  0.00    +0.019 A 
ATOM     29  C   UNL     1       8.338  -3.373   5.368  0.00  0.00    +0.006 A 
BRANCH  27  30
ATOM     30  C   UNL     1       6.812  -5.789   7.738  0.00  0.00    +0.099 C 
ATOM     31  N   UNL     1       6.665  -6.706   8.392  0.00  0.00    -0.191 NA
ENDBRANCH  27  30
ENDBRANCH  23  24
ENDBRANCH  21  23
ENDBRANCH  20  21
ENDBRANCH   4  20
TORSDOF 7
