REMARK  Name = ZINC65199877
REMARK  7 active torsions:
REMARK  status: ('A' for Active; 'I' for Inactive)
REMARK    1  A    between atoms: C_1  and  C_2
REMARK    2  A    between atoms: C_3  and  C_14
REMARK    3  A    between atoms: N_6  and  C_7
REMARK    4  A    between atoms: N_16  and  N_17
REMARK    5  A    between atoms: N_20  and  C_21
REMARK    6  A    between atoms: C_21  and  C_22
REMARK    7  A    between atoms: C_22  and  C_23
REMARK                            x       y       z     vdW  Elec       q    Type
REMARK                         _______ _______ _______ _____ _____    ______ ____
ROOT
ATOM      1  C   UNL     1      -0.004  -0.358  -2.503  0.00  0.00    +0.282 C 
ATOM      2  O   UNL     1      -0.022   0.831  -2.757  0.00  0.00    -0.267 OA
ATOM      3  N   UNL     1       0.004  -1.261  -3.503  0.00  0.00    -0.228 N 
ATOM      4  H   UNL     1       0.019  -2.210  -3.301  0.00  0.00    +0.173 HD
ENDROOT
BRANCH   1   7
ATOM      5  C   UNL     1      -0.018   1.503   0.010  0.00  0.00    +0.068 C 
ATOM      6  C   UNL     1       0.002  -0.004   0.002  0.00  0.00    +0.074 A 
ATOM      7  C   UNL     1       0.009  -0.813  -1.099  0.00  0.00    +0.172 A 
ATOM      8  N   UNL     1       0.028  -2.092  -0.688  0.00  0.00    -0.124 NA
ATOM      9  N   UNL     1       0.033  -2.131   0.599  0.00  0.00    -0.060 NA
ATOM     10  N   UNL     1       0.023  -0.815   1.082  0.00  0.00    -0.216 N 
BRANCH  10  11
ATOM     11  C   UNL     1       0.031  -0.417   2.427  0.00  0.00    +0.067 A 
ATOM     12  C   UNL     1       0.704   0.736   2.807  0.00  0.00    +0.030 A 
ATOM     13  C   UNL     1       0.711   1.126   4.131  0.00  0.00    +0.040 A 
ATOM     14  C   UNL     1       0.046   0.368   5.081  0.00  0.00    +0.124 A 
ATOM     15  C   UNL     1      -0.625  -0.783   4.704  0.00  0.00    +0.040 A 
ATOM     16  C   UNL     1      -0.639  -1.173   3.379  0.00  0.00    +0.030 A 
ATOM     17  F   UNL     1       0.054   0.750   6.376  0.00  0.00    -0.205 F 
ENDBRANCH  10  11
ENDBRANCH   1   7
BRANCH   3  18
ATOM     18  N   UNL     1      -0.008  -0.830  -4.836  0.00  0.00    -0.218 N 
ATOM     19  C   UNL     1       0.001  -1.732  -5.837  0.00  0.00    +0.316 C 
ATOM     20  O   UNL     1      -0.010  -1.358  -6.994  0.00  0.00    -0.251 OA
ATOM     21  N   UNL     1       0.021  -3.050  -5.555  0.00  0.00    -0.298 N 
ATOM     22  H   UNL     1      -0.022   0.119  -5.039  0.00  0.00    +0.174 HD
ATOM     23  H   UNL     1       0.029  -3.349  -4.633  0.00  0.00    +0.150 HD
BRANCH  21  24
ATOM     24  C   UNL     1       0.030  -4.032  -6.643  0.00  0.00    +0.111 C 
BRANCH  24  25
ATOM     25  C   UNL     1       0.052  -5.444  -6.056  0.00  0.00    +0.061 C 
BRANCH  25  26
ATOM     26  C   UNL     1       0.061  -6.453  -7.175  0.00  0.00    -0.009 A 
ATOM     27  C   UNL     1       1.119  -7.014  -7.809  0.00  0.00    +0.011 A 
ATOM     28  C   UNL     1       0.887  -7.929  -8.819  0.00  0.00    +0.008 A 
ATOM     29  C   UNL     1      -0.392  -8.238  -9.145  0.00  0.00    +0.045 A 
ATOM     30  S   UNL     1      -1.318  -7.226  -8.003  0.00  0.00    -0.102 S 
ENDBRANCH  25  26
ENDBRANCH  24  25
ENDBRANCH  21  24
ENDBRANCH   3  18
TORSDOF 6
