REMARK  Name = ZINC06444015
REMARK  12 active torsions:
REMARK  status: ('A' for Active; 'I' for Inactive)
REMARK    1  A    between atoms: C_1  and  C_2
REMARK    2  A    between atoms: C_12  and  C_14
REMARK    3  A    between atoms: C_14  and  C_16
REMARK    4  A    between atoms: C_14  and  N_64
REMARK    5  A    between atoms: N_20  and  C_21
REMARK    6  A    between atoms: C_21  and  C_22
REMARK    7  A    between atoms: C_22  and  O_23
REMARK    8  A    between atoms: O_23  and  C_24
REMARK    9  A    between atoms: C_25  and  C_26
REMARK   10  A    between atoms: C_25  and  N_64
REMARK   11  A    between atoms: C_33  and  C_34
REMARK   12  A    between atoms: C_33  and  N_64
REMARK                            x       y       z     vdW  Elec       q    Type
REMARK                         _______ _______ _______ _____ _____    ______ ____
ROOT
ATOM      1  C   UNL     1       0.629  -3.244   4.644  0.00  0.00    +0.040 C 
ENDROOT
BRANCH   1  13
ATOM      2  C   UNL     1       0.062   0.943  -0.392  0.00  0.00    +0.046 C 
ATOM      3  C   UNL     1       0.946  -0.261  -0.193  0.00  0.00    -0.026 A 
ATOM      4  C   UNL     1       1.827  -0.643  -1.182  0.00  0.00    +0.005 A 
ATOM      5  C   UNL     1       2.651  -1.746  -1.009  0.00  0.00    +0.001 A 
ATOM      6  C   UNL     1       2.597  -2.482   0.141  0.00  0.00    +0.010 A 
ATOM      7  C   UNL     1       1.707  -2.116   1.156  0.00  0.00    -0.001 A 
ATOM      8  C   UNL     1       0.873  -0.994   0.987  0.00  0.00    +0.052 A 
ATOM      9  N   UNL     1      -0.002  -0.637   1.991  0.00  0.00    -0.322 N 
ATOM     10  H   UNL     1      -0.576   0.136   1.872  0.00  0.00    +0.169 HD
ATOM     11  C   UNL     1      -0.073  -1.347   3.131  0.00  0.00    +0.251 A 
ATOM     12  O   UNL     1      -0.859  -1.003   3.997  0.00  0.00    -0.268 OA
ATOM     13  C   UNL     1       0.741  -2.479   3.350  0.00  0.00    +0.011 A 
ATOM     14  C   UNL     1       1.623  -2.881   2.402  0.00  0.00    +0.017 A 
ENDBRANCH   1  13
BRANCH   1  15
ATOM     15  C   UNL     1      -0.800  -3.678   4.849  0.00  0.00    +0.143 A 
ATOM     16  N   UNL     1      -1.749  -2.992   5.437  0.00  0.00    -0.115 NA
ATOM     17  N   UNL     1      -2.826  -3.700   5.412  0.00  0.00    -0.023 NA
ATOM     18  N   UNL     1      -2.586  -4.823   4.830  0.00  0.00    -0.044 NA
ATOM     19  N   UNL     1      -1.347  -4.847   4.468  0.00  0.00    -0.228 N 
BRANCH  19  20
ATOM     20  C   UNL     1      -0.665  -5.943   3.775  0.00  0.00    +0.175 C 
BRANCH  20  21
ATOM     21  C   UNL     1      -0.095  -6.921   4.803  0.00  0.00    +0.183 C 
BRANCH  21  22
ATOM     22  O   UNL     1       0.529  -8.014   4.127  0.00  0.00    -0.381 OA
ATOM     23  C   UNL     1       1.098  -8.991   5.001  0.00  0.00    +0.194 C 
ENDBRANCH  21  22
ENDBRANCH  20  21
ENDBRANCH  19  20
ENDBRANCH   1  15
BRANCH   1  24
ATOM     24  N   UNL     1       1.025  -2.362   5.761  0.00  0.00    +0.397 N 
ATOM     25  H   UNL     1       0.351  -1.592   5.833  0.00  0.00    -0.079 HD
BRANCH  24  26
ATOM     26  C   UNL     1       1.024  -3.122   7.029  0.00  0.00    -0.039 C 
BRANCH  26  27
ATOM     27  C   UNL     1      -0.124  -2.634   7.875  0.00  0.00    -0.046 A 
ATOM     28  C   UNL     1      -0.091  -1.363   8.418  0.00  0.00    +0.003 A 
ATOM     29  C   UNL     1      -1.145  -0.913   9.191  0.00  0.00    +0.000 A 
ATOM     30  C   UNL     1      -2.229  -1.738   9.429  0.00  0.00    +0.001 A 
ATOM     31  C   UNL     1      -2.260  -3.011   8.892  0.00  0.00    +0.020 A 
ATOM     32  C   UNL     1      -1.208  -3.460   8.114  0.00  0.00    +0.042 A 
ATOM     33 CL   UNL     1      -1.246  -5.059   7.439  0.00  0.00    -0.083 Cl
ENDBRANCH  26  27
ENDBRANCH  24  26
BRANCH  24  34
ATOM     34  C   UNL     1       2.370  -1.802   5.510  0.00  0.00    -0.001 C 
BRANCH  34  35
ATOM     35  C   UNL     1       2.213  -0.481   4.801  0.00  0.00    +0.089 A 
ATOM     36  C   UNL     1       1.978   0.705   5.390  0.00  0.00    +0.042 A 
ATOM     37  C   UNL     1       1.903   1.667   4.358  0.00  0.00    +0.041 A 
ATOM     38  C   UNL     1       2.099   1.012   3.199  0.00  0.00    +0.195 A 
ATOM     39  O   UNL     1       2.291  -0.288   3.474  0.00  0.00    -0.470 OA
ENDBRANCH  34  35
ENDBRANCH  24  34
ENDBRANCH   1  24
TORSDOF 10
