REMARK  Name = ZINC38002247
REMARK  5 active torsions:
REMARK  status: ('A' for Active; 'I' for Inactive)
REMARK    1  A    between atoms: C_1  and  C_2
REMARK    2  A    between atoms: C_7  and  N_10
REMARK    3  A    between atoms: N_10  and  C_11
REMARK    4  A    between atoms: C_11  and  C_13
REMARK    5  A    between atoms: C_11  and  C_14
REMARK                            x       y       z     vdW  Elec       q    Type
REMARK                         _______ _______ _______ _____ _____    ______ ____
ROOT
ATOM      1  N   UNL     1       1.351  -2.513   2.502  0.00  0.00    +0.386 N 
ATOM      2  H   UNL     1       2.314  -2.215   2.555  0.00  0.00    -0.085 HD
ATOM      3  H   UNL     1       0.838  -2.132   3.283  0.00  0.00    -0.085 HD
ENDROOT
BRANCH   1   9
ATOM      4  C   UNL     1      -0.005   1.523  -0.018  0.00  0.00    +0.007 C 
ATOM      5  C   UNL     1       0.069  -0.005  -0.040  0.00  0.00    -0.016 C 
ATOM      6  C   UNL     1       0.936  -0.457  -1.217  0.00  0.00    +0.003 C 
ATOM      7  C   UNL     1       1.010  -1.985  -1.240  0.00  0.00    -0.001 C 
ATOM      8  C   UNL     1       1.627  -2.484   0.069  0.00  0.00    -0.016 C 
ATOM      9  C   UNL     1       0.760  -2.033   1.246  0.00  0.00    -0.071 C 
ATOM     10  C   UNL     1       0.685  -0.505   1.268  0.00  0.00    -0.013 C 
ENDBRANCH   1   9
BRANCH   1  11
ATOM     11  C   UNL     1       1.289  -3.980   2.543  0.00  0.00    -0.037 C 
ATOM     12  C   UNL     1       2.029  -4.487   3.783  0.00  0.00    -0.008 C 
BRANCH  11  13
ATOM     13  C   UNL     1      -0.151  -4.420   2.603  0.00  0.00    -0.023 A 
ATOM     14  C   UNL     1      -0.751  -5.462   1.978  0.00  0.00    +0.010 A 
ATOM     15  C   UNL     1      -2.101  -5.679   2.182  0.00  0.00    +0.023 A 
ATOM     16  C   UNL     1      -2.784  -4.843   3.002  0.00  0.00    +0.055 A 
ATOM     17  S   UNL     1      -1.506  -3.709   3.522  0.00  0.00    -0.088 S 
ATOM     18 BR   UNL     1      -4.614  -4.873   3.478  0.00  0.00    -0.043 Br
ENDBRANCH  11  13
ENDBRANCH   1  11
TORSDOF 3
