REMARK  Name = ZINC43597956
REMARK  6 active torsions:
REMARK  status: ('A' for Active; 'I' for Inactive)
REMARK    1  A    between atoms: C_1  and  C_2
REMARK    2  A    between atoms: C_2  and  C_3
REMARK    3  A    between atoms: C_6  and  O_9
REMARK    4  A    between atoms: O_9  and  C_10
REMARK    5  A    between atoms: C_13  and  S_17
REMARK    6  A    between atoms: S_17  and  N_20
REMARK                            x       y       z     vdW  Elec       q    Type
REMARK                         _______ _______ _______ _____ _____    ______ ____
ROOT
ATOM      1  C   UNL     1       3.993  -1.923  -4.597  0.00  0.00    +0.142 A 
ATOM      2  C   UNL     1       4.678  -1.683  -3.414  0.00  0.00    +0.049 A 
ATOM      3  C   UNL     1       6.055  -1.787  -3.381  0.00  0.00    +0.032 A 
ATOM      4  C   UNL     1       6.751  -2.130  -4.525  0.00  0.00    +0.106 A 
ATOM      5  C   UNL     1       6.072  -2.369  -5.705  0.00  0.00    +0.047 A 
ATOM      6  C   UNL     1       4.694  -2.272  -5.743  0.00  0.00    +0.062 A 
ATOM      7 BR   UNL     1       3.765  -2.608  -7.355  0.00  0.00    -0.046 Br
ENDROOT
BRANCH   4   8
ATOM      8  S   UNL     1       8.508  -2.262  -4.479  0.00  0.00    +0.056 S 
ATOM      9  O   UNL     1       8.965  -2.062  -5.810  0.00  0.00    -0.153 OA
ATOM     10  O   UNL     1       8.947  -1.456  -3.394  0.00  0.00    -0.153 OA
BRANCH   8  11
ATOM     11  N   UNL     1       8.871  -3.828  -4.084  0.00  0.00    -0.204 NA
ATOM     12  H   UNL     1       8.158  -4.467  -3.929  0.00  0.00    +0.144 HD
ATOM     13  H   UNL     1       9.797  -4.107  -4.007  0.00  0.00    +0.144 HD
ENDBRANCH   8  11
ENDBRANCH   4   8
BRANCH   1  14
ATOM     14  O   UNL     1       2.638  -1.822  -4.632  0.00  0.00    -0.455 OA
BRANCH  14  18
ATOM     15  C   UNL     1       0.713  -0.416  -1.265  0.00  0.00    -0.047 A 
ATOM     16  C   UNL     1       1.524   0.429  -1.999  0.00  0.00    +0.007 A 
ATOM     17  C   UNL     1       2.170  -0.039  -3.127  0.00  0.00    +0.046 A 
ATOM     18  C   UNL     1       2.004  -1.359  -3.522  0.00  0.00    +0.129 A 
ATOM     19  C   UNL     1       1.190  -2.205  -2.783  0.00  0.00    +0.046 A 
ATOM     20  C   UNL     1       0.550  -1.733  -1.653  0.00  0.00    +0.007 A 
BRANCH  15  22
ATOM     21  C   UNL     1       0.905  -0.106   1.188  0.00  0.00    +0.009 C 
ATOM     22  C   UNL     1       0.009   0.098  -0.035  0.00  0.00    +0.032 C 
ENDBRANCH  15  22
ENDBRANCH  14  18
ENDBRANCH   1  14
TORSDOF 5
