REMARK  Name = ZINC59591127
REMARK  8 active torsions:
REMARK  status: ('A' for Active; 'I' for Inactive)
REMARK    1  A    between atoms: C_1  and  C_2
REMARK    2  A    between atoms: C_6  and  C_8
REMARK    3  A    between atoms: N_10  and  C_11
REMARK    4  A    between atoms: C_11  and  C_13
REMARK    5  A    between atoms: C_11  and  C_14
REMARK    6  A    between atoms: N_16  and  N_17
REMARK    7  A    between atoms: C_21  and  C_29
REMARK    8  A    between atoms: N_22  and  C_23
REMARK                            x       y       z     vdW  Elec       q    Type
REMARK                         _______ _______ _______ _____ _____    ______ ____
ROOT
ATOM      1  N   UNL     1       1.397  -8.418   4.302  0.00  0.00    -0.232 N 
ATOM      2  C   UNL     1       1.521  -9.306   5.357  0.00  0.00    +0.238 A 
ATOM      3  N   UNL     1       1.139  -9.100   6.597  0.00  0.00    -0.111 NA
ATOM      4  N   UNL     1       1.402 -10.130   7.318  0.00  0.00    -0.127 NA
ATOM      5  C   UNL     1       1.968 -11.059   6.583  0.00  0.00    +0.170 A 
ATOM      6  N   UNL     1       2.057 -10.562   5.301  0.00  0.00    -0.262 N 
ATOM      7  H   UNL     1       1.708  -8.669   3.418  0.00  0.00    +0.173 HD
ENDROOT
BRANCH   6   8
ATOM      8  C   UNL     1       2.589 -11.207   4.177  0.00  0.00    +0.051 A 
ATOM      9  C   UNL     1       1.971 -12.342   3.669  0.00  0.00    +0.026 A 
ATOM     10  C   UNL     1       2.497 -12.976   2.560  0.00  0.00    +0.002 A 
ATOM     11  C   UNL     1       3.639 -12.482   1.956  0.00  0.00    +0.000 A 
ATOM     12  C   UNL     1       4.257 -11.352   2.460  0.00  0.00    +0.002 A 
ATOM     13  C   UNL     1       3.732 -10.710   3.565  0.00  0.00    +0.026 A 
ENDBRANCH   6   8
BRANCH   5  14
ATOM     14  C   UNL     1       2.419 -12.390   7.043  0.00  0.00    +0.020 A 
ATOM     15  C   UNL     1       3.281 -13.150   6.250  0.00  0.00    +0.011 A 
ATOM     16  C   UNL     1       3.698 -14.391   6.685  0.00  0.00    +0.001 A 
ATOM     17  C   UNL     1       3.264 -14.883   7.903  0.00  0.00    +0.000 A 
ATOM     18  C   UNL     1       2.409 -14.135   8.693  0.00  0.00    +0.001 A 
ATOM     19  C   UNL     1       1.989 -12.890   8.273  0.00  0.00    +0.011 A 
ENDBRANCH   5  14
BRANCH   1  22
ATOM     20  C   UNL     1       0.703  -6.293   3.483  0.00  0.00    +0.249 C 
ATOM     21  O   UNL     1       1.092  -6.607   2.378  0.00  0.00    -0.272 OA
ATOM     22  N   UNL     1       0.823  -7.157   4.510  0.00  0.00    -0.233 N 
ATOM     23  H   UNL     1       0.512  -6.906   5.394  0.00  0.00    +0.173 HD
BRANCH  20  24
ATOM     24  C   UNL     1       0.086  -4.937   3.707  0.00  0.00    +0.158 C 
ATOM     25  C   UNL     1      -1.347  -5.107   4.216  0.00  0.00    +0.038 C 
BRANCH  24  28
ATOM     26  C   UNL     1       0.052  -2.845   2.458  0.00  0.00    +0.245 C 
ATOM     27  O   UNL     1       0.049  -2.248   3.516  0.00  0.00    -0.270 OA
ATOM     28  N   UNL     1       0.070  -4.193   2.445  0.00  0.00    -0.300 N 
ATOM     29  H   UNL     1       0.072  -4.670   1.601  0.00  0.00    +0.150 HD
BRANCH  26  35
ATOM     30  C   UNL     1      -0.018   1.503   0.010  0.00  0.00    +0.044 C 
ATOM     31  C   UNL     1       0.002  -0.004   0.002  0.00  0.00    -0.050 A 
ATOM     32  C   UNL     1       0.006  -0.688  -1.201  0.00  0.00    +0.003 A 
ATOM     33  C   UNL     1       0.025  -2.071  -1.218  0.00  0.00    +0.001 A 
ATOM     34  C   UNL     1       0.040  -2.778  -0.033  0.00  0.00    +0.013 A 
ATOM     35  C   UNL     1       0.036  -2.095   1.184  0.00  0.00    +0.037 A 
ATOM     36  C   UNL     1       0.023  -0.699   1.194  0.00  0.00    +0.016 A 
ENDBRANCH  26  35
ENDBRANCH  24  28
ENDBRANCH  20  24
ENDBRANCH   1  22
TORSDOF 6
