REMARK  Name = ZINC22851631
REMARK  10 active torsions:
REMARK  status: ('A' for Active; 'I' for Inactive)
REMARK    1  A    between atoms: C_1  and  C_2
REMARK    2  A    between atoms: C_4  and  C_32
REMARK    3  A    between atoms: C_5  and  S_9
REMARK    4  A    between atoms: C_6  and  C_8
REMARK    5  A    between atoms: S_9  and  N_12
REMARK    6  A    between atoms: N_12  and  C_13
REMARK    7  A    between atoms: C_13  and  C_14
REMARK    8  A    between atoms: C_14  and  C_16
REMARK    9  A    between atoms: C_14  and  N_25
REMARK   10  A    between atoms: N_28  and  C_31
REMARK                            x       y       z     vdW  Elec       q    Type
REMARK                         _______ _______ _______ _____ _____    ______ ____
ROOT
ATOM      1  C   UNL     1      -3.142   3.836  -4.564  0.00  0.00    +0.102 C 
ENDROOT
BRANCH   1   2
ATOM      2  C   UNL     1      -3.670   2.535  -5.110  0.00  0.00    -0.025 A 
ATOM      3  C   UNL     1      -4.960   2.135  -4.812  0.00  0.00    +0.009 A 
ATOM      4  C   UNL     1      -5.449   0.942  -5.311  0.00  0.00    +0.050 A 
ATOM      5  C   UNL     1      -4.648   0.144  -6.112  0.00  0.00    +0.166 A 
ATOM      6  C   UNL     1      -3.350   0.548  -6.412  0.00  0.00    +0.167 A 
ATOM      7  C   UNL     1      -2.867   1.747  -5.913  0.00  0.00    +0.054 A 
ATOM      8  O   UNL     1      -2.772  -0.399  -7.209  0.00  0.00    -0.453 OA
ATOM      9  C   UNL     1      -3.863  -1.183  -7.726  0.00  0.00    +0.466 C 
ATOM     10  O   UNL     1      -4.885  -1.054  -6.720  0.00  0.00    -0.453 OA
ENDBRANCH   1   2
BRANCH   1  11
ATOM     11  N   UNL     1      -4.250   4.616  -3.998  0.00  0.00    -0.298 NA
ATOM     12  C   UNL     1      -3.925   6.049  -3.969  0.00  0.00    +0.066 C 
ATOM     13  C   UNL     1      -5.132   6.832  -3.448  0.00  0.00    -0.064 C 
ATOM     14  N   UNL     1      -5.485   6.349  -2.106  0.00  0.00    +0.379 N 
ATOM     15  C   UNL     1      -5.809   4.916  -2.134  0.00  0.00    -0.064 C 
ATOM     16  C   UNL     1      -4.603   4.132  -2.655  0.00  0.00    +0.066 C 
ATOM     17  C   UNL     1      -6.593   7.129  -1.540  0.00  0.00    -0.096 C 
ATOM     18  H   UNL     1      -4.609   6.486  -1.455  0.00  0.00    -0.082 HD
ENDBRANCH   1  11
BRANCH   1  19
ATOM     19  C   UNL     1      -2.110   3.549  -3.471  0.00  0.00    +0.129 C 
BRANCH  19  20
ATOM     20  N   UNL     1      -1.526   4.809  -3.007  0.00  0.00    -0.188 NA
ATOM     21  H   UNL     1      -1.476   5.675  -3.684  0.00  0.00    +0.148 HD
BRANCH  20  22
ATOM     22  S   UNL     1      -0.722   4.866  -1.560  0.00  0.00    +0.059 S 
ATOM     23  O   UNL     1      -1.563   4.237  -0.603  0.00  0.00    -0.153 OA
ATOM     24  O   UNL     1      -0.257   6.200  -1.406  0.00  0.00    -0.153 OA
BRANCH  22  29
ATOM     25  C   UNL     1       4.176   1.386  -2.107  0.00  0.00    +0.044 C 
ATOM     26  C   UNL     1       2.953   2.255  -1.970  0.00  0.00    -0.050 A 
ATOM     27  C   UNL     1       1.802   1.744  -1.403  0.00  0.00    +0.008 A 
ATOM     28  C   UNL     1       0.678   2.539  -1.282  0.00  0.00    -0.024 A 
ATOM     29  C   UNL     1       0.709   3.850  -1.720  0.00  0.00    +0.111 A 
ATOM     30  C   UNL     1       1.861   4.362  -2.287  0.00  0.00    -0.024 A 
ATOM     31  C   UNL     1       2.983   3.565  -2.412  0.00  0.00    +0.008 A 
ATOM     32  C   UNL     1       1.893   5.790  -2.768  0.00  0.00    +0.046 C 
ATOM     33  C   UNL     1      -0.580   1.979  -0.668  0.00  0.00    +0.046 C 
ENDBRANCH  22  29
ENDBRANCH  20  22
ENDBRANCH  19  20
ENDBRANCH   1  19
TORSDOF 6
