REMARK  Name = ZINC22241229
REMARK  6 active torsions:
REMARK  status: ('A' for Active; 'I' for Inactive)
REMARK    1  A    between atoms: C_1  and  C_2
REMARK    2  A    between atoms: C_4  and  O_5
REMARK    3  A    between atoms: C_14  and  C_16
REMARK    4  A    between atoms: C_20  and  S_22
REMARK    5  A    between atoms: S_22  and  N_25
REMARK    6  A    between atoms: N_25  and  C_26
REMARK                            x       y       z     vdW  Elec       q    Type
REMARK                         _______ _______ _______ _____ _____    ______ ____
ROOT
ATOM      1  C   UNL     1      -1.497   3.557  -3.064  0.00  0.00    +0.039 A 
ATOM      2  C   UNL     1      -2.424   2.676  -3.624  0.00  0.00    +0.013 A 
ATOM      3  C   UNL     1      -2.604   1.425  -3.071  0.00  0.00    +0.003 A 
ATOM      4  C   UNL     1      -1.864   1.041  -1.967  0.00  0.00    +0.028 A 
ATOM      5  C   UNL     1      -0.947   1.911  -1.404  0.00  0.00    +0.106 A 
ATOM      6  C   UNL     1      -0.758   3.165  -1.947  0.00  0.00    +0.041 A 
ENDROOT
BRANCH   1  19
ATOM      7  C   UNL     1      -2.734  11.232  -7.327  0.00  0.00    +0.045 C 
ATOM      8  C   UNL     1      -1.552  10.509  -6.737  0.00  0.00    -0.033 A 
ATOM      9  C   UNL     1      -0.332  11.104  -6.670  0.00  0.00    +0.091 A 
ATOM     10  C   UNL     1       0.759  10.406  -6.112  0.00  0.00    +0.285 A 
ATOM     11  O   UNL     1       0.629   9.157  -5.638  0.00  0.00    -0.425 OA
ATOM     12  C   UNL     1      -0.555   8.508  -5.674  0.00  0.00    +0.141 A 
ATOM     13  C   UNL     1      -1.686   9.146  -6.219  0.00  0.00    +0.021 A 
ATOM     14  C   UNL     1      -2.916   8.478  -6.258  0.00  0.00    +0.013 A 
ATOM     15  C   UNL     1      -3.013   7.206  -5.773  0.00  0.00    +0.024 A 
ATOM     16  C   UNL     1      -1.898   6.571  -5.228  0.00  0.00    +0.037 A 
ATOM     17  C   UNL     1      -0.672   7.219  -5.181  0.00  0.00    +0.070 A 
ATOM     18  N   UNL     1      -2.014   5.274  -4.731  0.00  0.00    -0.281 N 
ATOM     19  C   UNL     1      -1.299   4.898  -3.652  0.00  0.00    +0.248 C 
ATOM     20  O   UNL     1      -0.491   5.663  -3.163  0.00  0.00    -0.270 OA
ATOM     21  H   UNL     1      -2.690   4.556  -5.219  0.00  0.00    +0.155 HD
BRANCH  10  22
ATOM     22  O   UNL     1       1.847  10.951  -6.058  0.00  0.00    -0.480 OA
ATOM     23  H   UNL     1       2.707  10.420  -5.625  0.00  0.00    +0.295 HD
ENDBRANCH  10  22
ENDBRANCH   1  19
BRANCH   5  24
ATOM     24  S   UNL     1      -0.015   1.414   0.006  0.00  0.00    +0.059 S 
ATOM     25  O   UNL     1       0.015  -0.007  -0.007  0.00  0.00    -0.153 OA
ATOM     26  O   UNL     1       1.169   2.200   0.008  0.00  0.00    -0.153 OA
BRANCH  24  27
ATOM     27  N   UNL     1      -0.880   1.857   1.347  0.00  0.00    -0.185 NA
ATOM     28  H   UNL     1      -0.553   2.728   1.934  0.00  0.00    +0.148 HD
BRANCH  27  29
ATOM     29  C   UNL     1      -2.179   1.236   1.618  0.00  0.00    +0.099 C 
ATOM     30  C   UNL     1      -3.306   2.137   1.085  0.00  0.00    +0.044 C 
ATOM     31  C   UNL     1      -4.670   1.660   1.641  0.00  0.00    +0.167 C 
ATOM     32  S   UNL     1      -4.204   0.885   3.242  0.00  0.00    -0.029 S 
ATOM     33  O   UNL     1      -4.529  -0.498   3.198  0.00  0.00    -0.174 OA
ATOM     34  O   UNL     1      -4.700   1.686   4.305  0.00  0.00    -0.174 OA
ATOM     35  C   UNL     1      -2.374   1.074   3.153  0.00  0.00    +0.186 C 
ENDBRANCH  27  29
ENDBRANCH  24  27
ENDBRANCH   5  24
TORSDOF 5
