REMARK  Name = ZINC14634368
REMARK  7 active torsions:
REMARK  status: ('A' for Active; 'I' for Inactive)
REMARK    1  A    between atoms: C_1  and  C_2
REMARK    2  A    between atoms: C_4  and  C_11
REMARK    3  A    between atoms: C_5  and  C_10
REMARK    4  A    between atoms: C_6  and  C_9
REMARK    5  A    between atoms: C_7  and  C_8
REMARK    6  A    between atoms: C_11  and  C_13
REMARK    7  A    between atoms: C_13  and  N_14
REMARK                            x       y       z     vdW  Elec       q    Type
REMARK                         _______ _______ _______ _____ _____    ______ ____
ROOT
ATOM      1  N   UNL     1       0.015   1.008  -3.259  0.00  0.00    -0.216 N 
ATOM      2  C   UNL     1       0.889   1.907  -2.762  0.00  0.00    +0.251 C 
ATOM      3  O   UNL     1       1.922   2.286  -3.272  0.00  0.00    -0.272 OA
ATOM      4  C   UNL     1       0.310   2.344  -1.436  0.00  0.00    +0.138 C 
ATOM      5  C   UNL     1       1.260   1.986  -0.299  0.00  0.00    +0.040 C 
ATOM      6  C   UNL     1       0.719   2.601   0.997  0.00  0.00    +0.008 C 
ATOM      7  C   UNL     1       0.855   4.119   0.906  0.00  0.00    +0.035 C 
ATOM      8  C   UNL     1       0.255   4.634  -0.375  0.00  0.00    -0.042 A 
ATOM      9  C   UNL     1       0.012   3.817  -1.459  0.00  0.00    -0.012 A 
ATOM     10  C   UNL     1      -0.525   4.357  -2.619  0.00  0.00    +0.006 A 
ATOM     11  C   UNL     1      -0.824   5.702  -2.695  0.00  0.00    +0.000 A 
ATOM     12  C   UNL     1      -0.587   6.520  -1.606  0.00  0.00    +0.000 A 
ATOM     13  C   UNL     1      -0.050   5.987  -0.452  0.00  0.00    +0.004 A 
ATOM     14  N   UNL     1      -0.936   1.575  -1.322  0.00  0.00    -0.281 N 
ATOM     15  C   UNL     1      -1.023   0.822  -2.435  0.00  0.00    +0.310 C 
ATOM     16  O   UNL     1      -1.941   0.059  -2.666  0.00  0.00    -0.252 OA
ATOM     17  H   UNL     1      -1.572   1.603  -0.590  0.00  0.00    +0.152 HD
ENDROOT
BRANCH   1  18
ATOM     18  C   UNL     1       0.182   0.320  -4.542  0.00  0.00    +0.197 C 
BRANCH  18  19
ATOM     19  C   UNL     1      -0.467   1.130  -5.635  0.00  0.00    +0.181 C 
ATOM     20  O   UNL     1      -1.015   2.179  -5.368  0.00  0.00    -0.290 OA
BRANCH  19  24
ATOM     21  C   UNL     1       1.115  -2.169  -9.022  0.00  0.00    +0.044 C 
ATOM     22  C   UNL     1       0.323  -0.938  -8.662  0.00  0.00    -0.047 A 
ATOM     23  C   UNL     1       0.299  -0.493  -7.357  0.00  0.00    +0.015 A 
ATOM     24  C   UNL     1      -0.436   0.649  -7.025  0.00  0.00    +0.022 A 
ATOM     25  C   UNL     1      -1.147   1.328  -8.020  0.00  0.00    -0.037 A 
ATOM     26  C   UNL     1      -1.108   0.874  -9.321  0.00  0.00    -0.044 A 
ATOM     27  C   UNL     1      -0.378  -0.257  -9.642  0.00  0.00    -0.044 A 
ATOM     28  C   UNL     1      -0.346  -0.750 -11.066  0.00  0.00    +0.044 C 
ATOM     29  C   UNL     1      -1.868   1.608 -10.396  0.00  0.00    +0.044 C 
ATOM     30  C   UNL     1      -1.947   2.557  -7.672  0.00  0.00    +0.045 C 
ENDBRANCH  19  24
ENDBRANCH  18  19
ENDBRANCH   1  18
TORSDOF 3
