REMARK  Name = ZINC03875735
REMARK  3 active torsions:
REMARK  status: ('A' for Active; 'I' for Inactive)
REMARK    1  A    between atoms: C_3  and  N_9
REMARK    2  A    between atoms: C_6  and  N_7
REMARK    3  A    between atoms: N_7  and  O_8
REMARK                            x       y       z     vdW  Elec       q    Type
REMARK                         _______ _______ _______ _____ _____    ______ ____
ROOT
ATOM      1  C   UNL     1      -0.017   1.394   0.010  0.00  0.00    +0.030 A 
ATOM      2  C   UNL     1       1.149   2.094   0.002  0.00  0.00    +0.033 A 
ATOM      3  C   UNL     1       2.383   1.404  -0.013  0.00  0.00    +0.108 A 
ATOM      4  C   UNL     1       2.393  -0.010  -0.021  0.00  0.00    +0.033 A 
ATOM      5  C   UNL     1       1.218  -0.695  -0.013  0.00  0.00    +0.030 A 
ATOM      6  C   UNL     1       0.002  -0.004   0.002  0.00  0.00    +0.061 A 
ENDROOT
BRANCH   6   7
ATOM      7  N   UNL     1      -1.187  -0.707   0.009  0.00  0.00    -0.269 N 
ATOM      8  H   UNL     1      -2.031  -0.231   0.020  0.00  0.00    +0.194 HD
BRANCH   7   9
ATOM      9  O   UNL     1      -1.172  -2.123   0.002  0.00  0.00    -0.289 OA
ATOM     10  H   UNL     1      -2.051  -2.525   0.008  0.00  0.00    +0.244 HD
ENDBRANCH   7   9
ENDBRANCH   6   7
BRANCH   3  11
ATOM     11  N   UNL     1       3.529   2.082  -0.021  0.00  0.00    -0.031 NA
ATOM     12  O   UNL     1       4.590   1.484  -0.034  0.00  0.00    -0.143 OA
ENDBRANCH   3  11
TORSDOF 3
