REMARK  Name = ZINC18272237
REMARK  6 active torsions:
REMARK  status: ('A' for Active; 'I' for Inactive)
REMARK    1  A    between atoms: C_4  and  C_7
REMARK    2  A    between atoms: C_10  and  S_19
REMARK    3  A    between atoms: N_11  and  C_12
REMARK    4  A    between atoms: S_19  and  C_20
REMARK    5  A    between atoms: C_20  and  C_21
REMARK    6  A    between atoms: C_29  and  N_31
REMARK                            x       y       z     vdW  Elec       q    Type
REMARK                         _______ _______ _______ _____ _____    ______ ____
ROOT
ATOM      1  C   UNL     1       1.212   1.747  -0.000  0.00  0.00    +0.169 A 
ATOM      2  N   UNL     1      -0.015   1.281   0.009  0.00  0.00    -0.128 NA
ATOM      3  N   UNL     1       0.002  -0.004   0.002  0.00  0.00    -0.122 NA
ATOM      4  C   UNL     1       1.242  -0.440  -0.012  0.00  0.00    +0.197 A 
ATOM      5  N   UNL     1       2.057   0.659  -0.014  0.00  0.00    -0.270 N 
ENDROOT
BRANCH   5   6
ATOM      6  C   UNL     1       3.459   0.675  -0.028  0.00  0.00    +0.051 A 
ATOM      7  C   UNL     1       4.160   1.190   1.054  0.00  0.00    +0.029 A 
ATOM      8  C   UNL     1       5.541   1.200   1.041  0.00  0.00    +0.040 A 
ATOM      9  C   UNL     1       6.227   0.707  -0.056  0.00  0.00    +0.124 A 
ATOM     10  C   UNL     1       5.530   0.197  -1.139  0.00  0.00    +0.040 A 
ATOM     11  C   UNL     1       4.149   0.180  -1.127  0.00  0.00    +0.029 A 
ATOM     12  F   UNL     1       7.578   0.723  -0.070  0.00  0.00    -0.205 F 
ENDBRANCH   5   6
BRANCH   1  16
ATOM     13  C   UNL     1       2.360   5.836   0.010  0.00  0.00    +0.000 A 
ATOM     14  C   UNL     1       1.061   5.485   0.331  0.00  0.00    +0.001 A 
ATOM     15  C   UNL     1       0.682   4.159   0.329  0.00  0.00    +0.011 A 
ATOM     16  C   UNL     1       1.612   3.170   0.003  0.00  0.00    +0.020 A 
ATOM     17  C   UNL     1       2.922   3.531  -0.315  0.00  0.00    +0.011 A 
ATOM     18  C   UNL     1       3.287   4.861  -0.315  0.00  0.00    +0.001 A 
ENDBRANCH   1  16
BRANCH   4  19
ATOM     19  S   UNL     1       1.758  -2.124  -0.027  0.00  0.00    -0.078 S 
BRANCH  19  20
ATOM     20  C   UNL     1       0.146  -2.947  -0.015  0.00  0.00    +0.153 C 
BRANCH  20  21
ATOM     21  C   UNL     1       0.345  -4.441  -0.026  0.00  0.00    +0.142 A 
ATOM     22  N   UNL     1       0.411  -5.056  -1.183  0.00  0.00    -0.231 NA
ATOM     23  C   UNL     1       0.592  -6.384  -1.238  0.00  0.00    +0.076 A 
ATOM     24  C   UNL     1       0.672  -7.073  -2.455  0.00  0.00    +0.028 A 
ATOM     25  C   UNL     1       0.851  -8.424  -2.454  0.00  0.00    +0.002 A 
ATOM     26  C   UNL     1       0.956  -9.133  -1.260  0.00  0.00    +0.001 A 
ATOM     27  C   UNL     1       0.882  -8.493  -0.058  0.00  0.00    +0.013 A 
ATOM     28  C   UNL     1       0.699  -7.107  -0.024  0.00  0.00    +0.040 A 
ATOM     29  C   UNL     1       0.615  -6.387   1.193  0.00  0.00    +0.127 A 
ATOM     30  N   UNL     1       0.440  -5.074   1.133  0.00  0.00    -0.216 NA
BRANCH  29  31
ATOM     31  N   UNL     1       0.712  -7.034   2.406  0.00  0.00    -0.343 N 
ATOM     32  H   UNL     1       0.653  -6.528   3.231  0.00  0.00    +0.144 HD
ATOM     33  H   UNL     1       0.840  -7.995   2.434  0.00  0.00    +0.144 HD
ENDBRANCH  29  31
ENDBRANCH  20  21
ENDBRANCH  19  20
ENDBRANCH   4  19
TORSDOF 6
