REMARK  Name = ZINC12056723
REMARK  11 active torsions:
REMARK  status: ('A' for Active; 'I' for Inactive)
REMARK    1  A    between atoms: C_1  and  C_2
REMARK    2  A    between atoms: C_2  and  C_3
REMARK    3  A    between atoms: C_3  and  C_4
REMARK    4  A    between atoms: C_4  and  C_19
REMARK    5  A    between atoms: N_7  and  C_11
REMARK    6  A    between atoms: C_11  and  C_12
REMARK    7  A    between atoms: C_12  and  C_13
REMARK    8  A    between atoms: C_18  and  N_75
REMARK    9  A    between atoms: C_25  and  C_27
REMARK   10  A    between atoms: C_30  and  N_33
REMARK   11  A    between atoms: C_34  and  C_36
REMARK                            x       y       z     vdW  Elec       q    Type
REMARK                         _______ _______ _______ _____ _____    ______ ____
ROOT
ATOM      1  C   UNL     1      -0.985  -1.676  -1.093  0.00  0.00    +0.115 C 
ATOM      2  C   UNL     1      -2.127  -0.689  -1.234  0.00  0.00    +0.247 C 
ATOM      3  O   UNL     1      -3.268  -0.931  -1.562  0.00  0.00    -0.273 OA
ATOM      4  N   UNL     1      -1.609   0.514  -0.917  0.00  0.00    -0.224 N 
ATOM      5  C   UNL     1      -0.311   0.426  -0.604  0.00  0.00    +0.309 C 
ATOM      6  O   UNL     1       0.374   1.379  -0.288  0.00  0.00    -0.252 OA
ATOM      7  N   UNL     1       0.150  -0.836  -0.674  0.00  0.00    -0.285 N 
ATOM      8  H   UNL     1       1.054  -1.134  -0.489  0.00  0.00    +0.151 HD
ENDROOT
BRANCH   1   9
ATOM      9  C   UNL     1      -1.306  -2.721  -0.022  0.00  0.00    +0.024 C 
ATOM     10  C   UNL     1      -2.488  -3.577  -0.482  0.00  0.00    +0.025 C 
ATOM     11  C   UNL     1      -2.784  -4.644   0.577  0.00  0.00    +0.108 C 
ATOM     12  N   UNL     1      -2.988  -3.980   1.872  0.00  0.00    -0.298 N 
ATOM     13  C   UNL     1      -1.952  -3.063   2.367  0.00  0.00    +0.108 C 
ATOM     14  C   UNL     1      -1.665  -2.014   1.288  0.00  0.00    +0.025 C 
ATOM     15  C   UNL     1      -4.104  -4.208   2.592  0.00  0.00    +0.247 C 
ATOM     16  O   UNL     1      -4.308  -3.580   3.613  0.00  0.00    -0.270 OA
BRANCH  15  17
ATOM     17  C   UNL     1      -5.080  -5.219   2.141  0.00  0.00    +0.037 A 
ATOM     18  C   UNL     1      -6.450  -4.962   2.236  0.00  0.00    +0.015 A 
ATOM     19  C   UNL     1      -7.358  -5.905   1.809  0.00  0.00    +0.024 A 
ATOM     20  C   UNL     1      -6.912  -7.118   1.293  0.00  0.00    +0.033 A 
ATOM     21  C   UNL     1      -5.548  -7.380   1.202  0.00  0.00    +0.024 A 
ATOM     22  C   UNL     1      -4.636  -6.438   1.622  0.00  0.00    +0.015 A 
BRANCH  20  23
ATOM     23  N   UNL     1      -7.834  -8.073   0.867  0.00  0.00    -0.286 N 
ATOM     24  C   UNL     1      -7.556  -9.385   1.004  0.00  0.00    +0.214 C 
ATOM     25  O   UNL     1      -6.549  -9.735   1.581  0.00  0.00    -0.276 OA
ATOM     26  C   UNL     1      -8.498 -10.417   0.440  0.00  0.00    +0.109 C 
ATOM     27  H   UNL     1      -8.674  -7.794   0.472  0.00  0.00    +0.155 HD
ENDBRANCH  20  23
ENDBRANCH  15  17
ENDBRANCH   1   9
BRANCH   1  28
ATOM     28  C   UNL     1      -0.692  -2.354  -2.433  0.00  0.00    +0.035 C 
BRANCH  28  30
ATOM     29  C   UNL     1       0.091  -1.987  -4.777  0.00  0.00    +0.004 C 
ATOM     30  C   UNL     1      -0.203  -1.309  -3.437  0.00  0.00    -0.001 C 
ENDBRANCH  28  30
ENDBRANCH   1  28
BRANCH   4  31
ATOM     31  C   UNL     1      -2.371   1.765  -0.922  0.00  0.00    +0.116 C 
BRANCH  31  32
ATOM     32  C   UNL     1      -2.991   1.990   0.459  0.00  0.00    +0.004 C 
BRANCH  32  33
ATOM     33  C   UNL     1      -3.691   3.350   0.489  0.00  0.00    -0.068 C 
ATOM     34  C   UNL     1      -2.660   4.489   0.343  0.00  0.00    -0.017 C 
ATOM     35  C   UNL     1      -3.169   5.612   1.270  0.00  0.00    -0.020 C 
ATOM     36  C   UNL     1      -4.465   5.057   1.898  0.00  0.00    -0.079 C 
ATOM     37  C   UNL     1      -5.628   2.915   1.899  0.00  0.00    -0.096 C 
ATOM     38  N   UNL     1      -4.303   3.607   1.797  0.00  0.00    +0.380 N 
ATOM     39  H   UNL     1      -3.688   3.270   2.546  0.00  0.00    -0.082 HD
ENDBRANCH  32  33
ENDBRANCH  31  32
ENDBRANCH   4  31
TORSDOF 8
