REMARK  Name = ZINC06908837
REMARK  12 active torsions:
REMARK  status: ('A' for Active; 'I' for Inactive)
REMARK    1  A    between atoms: C_1  and  C_2
REMARK    2  A    between atoms: C_2  and  N_3
REMARK    3  A    between atoms: N_3  and  C_4
REMARK    4  A    between atoms: N_3  and  S_6
REMARK    5  A    between atoms: C_4  and  C_5
REMARK    6  A    between atoms: S_6  and  C_9
REMARK    7  A    between atoms: C_13  and  C_15
REMARK    8  A    between atoms: C_18  and  S_23
REMARK    9  A    between atoms: N_19  and  C_20
REMARK   10  A    between atoms: C_20  and  C_21
REMARK   11  A    between atoms: S_23  and  C_24
REMARK   12  A    between atoms: C_24  and  C_25
REMARK                            x       y       z     vdW  Elec       q    Type
REMARK                         _______ _______ _______ _____ _____    ______ ____
ROOT
ATOM      1  C   UNL     1      -4.616  -2.517   0.782  0.00  0.00    +0.106 A 
ATOM      2  C   UNL     1      -4.424  -2.098   2.087  0.00  0.00    +0.028 A 
ATOM      3  C   UNL     1      -3.814  -0.883   2.346  0.00  0.00    +0.003 A 
ATOM      4  C   UNL     1      -3.393  -0.083   1.304  0.00  0.00    +0.012 A 
ATOM      5  C   UNL     1      -3.584  -0.500  -0.013  0.00  0.00    +0.021 A 
ATOM      6  C   UNL     1      -4.205  -1.724  -0.269  0.00  0.00    +0.040 A 
ENDROOT
BRANCH   5   7
ATOM      7  C   UNL     1      -3.136   0.353  -1.135  0.00  0.00    +0.165 A 
ATOM      8  N   UNL     1      -2.872   1.638  -1.080  0.00  0.00    -0.128 NA
ATOM      9  N   UNL     1      -2.509   2.061  -2.238  0.00  0.00    -0.122 NA
ATOM     10  C   UNL     1      -2.514   1.070  -3.102  0.00  0.00    +0.193 A 
ATOM     11  N   UNL     1      -2.919  -0.049  -2.432  0.00  0.00    -0.298 N 
BRANCH  11  12
ATOM     12  C   UNL     1      -3.082  -1.398  -2.980  0.00  0.00    +0.152 C 
BRANCH  12  13
ATOM     13  C   UNL     1      -4.477  -1.551  -3.530  0.00  0.00    -0.013 C 
ATOM     14  C   UNL     1      -4.653  -1.924  -4.774  0.00  0.00    +0.005 C 
ENDBRANCH  12  13
ENDBRANCH  11  12
BRANCH  10  15
ATOM     15  S   UNL     1      -2.083   1.169  -4.808  0.00  0.00    -0.071 S 
BRANCH  15  16
ATOM     16  C   UNL     1      -1.671   2.927  -4.927  0.00  0.00    +0.195 C 
BRANCH  16  17
ATOM     17  C   UNL     1      -1.270   3.245  -6.307  0.00  0.00    +0.074 C 
ATOM     18  N   UNL     1      -0.961   3.491  -7.372  0.00  0.00    -0.196 NA
ENDBRANCH  16  17
ENDBRANCH  15  16
ENDBRANCH  10  15
ENDBRANCH   5   7
BRANCH   1  19
ATOM     19  S   UNL     1      -5.395  -4.065   0.462  0.00  0.00    +0.061 S 
ATOM     20  O   UNL     1      -4.966  -4.476  -0.829  0.00  0.00    -0.153 OA
ATOM     21  O   UNL     1      -5.200  -4.865   1.621  0.00  0.00    -0.153 OA
BRANCH  19  22
ATOM     22  N   UNL     1      -7.023  -3.781   0.352  0.00  0.00    -0.177 NA
BRANCH  22  24
ATOM     23  C   UNL     1      -8.173  -4.734  -1.584  0.00  0.00    +0.022 C 
ATOM     24  C   UNL     1      -7.624  -3.458  -0.944  0.00  0.00    +0.106 C 
ENDBRANCH  22  24
BRANCH  22  25
ATOM     25  C   UNL     1      -7.862  -3.853   1.551  0.00  0.00    +0.106 C 
ATOM     26  C   UNL     1      -8.027  -2.452   2.143  0.00  0.00    +0.022 C 
ENDBRANCH  22  25
ENDBRANCH  19  22
ENDBRANCH   1  19
TORSDOF 10
