REMARK  Name = ZINC34791121
REMARK  11 active torsions:
REMARK  status: ('A' for Active; 'I' for Inactive)
REMARK    1  A    between atoms: C_1  and  C_2
REMARK    2  A    between atoms: C_2  and  N_3
REMARK    3  A    between atoms: C_6  and  C_11
REMARK    4  A    between atoms: C_15  and  O_17
REMARK    5  A    between atoms: O_17  and  C_18
REMARK    6  A    between atoms: N_26  and  C_28
REMARK    7  A    between atoms: C_28  and  C_30
REMARK    8  A    between atoms: C_28  and  C_33
REMARK    9  A    between atoms: C_30  and  C_31
REMARK   10  A    between atoms: C_30  and  C_32
REMARK   11  A    between atoms: N_35  and  C_36
REMARK                            x       y       z     vdW  Elec       q    Type
REMARK                         _______ _______ _______ _____ _____    ______ ____
ROOT
ATOM      1  N   UNL     1      -0.367  -2.484   0.551  0.00  0.00    -0.257 N 
ATOM      2  C   UNL     1      -0.569  -2.520   1.901  0.00  0.00    +0.042 C 
ATOM      3  C   UNL     1      -0.837  -3.679   2.537  0.00  0.00    +0.058 C 
ATOM      4  C   UNL     1      -0.905  -4.941   1.702  0.00  0.00    +0.142 C 
ATOM      5  N   UNL     1      -0.672  -4.797   0.255  0.00  0.00    -0.288 N 
ATOM      6  C   UNL     1      -0.421  -3.567  -0.235  0.00  0.00    +0.307 C 
ATOM      7  O   UNL     1      -0.232  -3.437  -1.429  0.00  0.00    -0.252 OA
ATOM      8  C   UNL     1      -1.003  -3.453   3.919  0.00  0.00    +0.247 C 
ATOM      9  O   UNL     1      -1.253  -4.323   4.733  0.00  0.00    -0.270 OA
ATOM     10  N   UNL     1      -0.851  -2.151   4.220  0.00  0.00    -0.280 N 
ATOM     11  C   UNL     1      -0.561  -1.444   2.964  0.00  0.00    +0.160 C 
ATOM     12  H   UNL     1      -0.703  -5.568  -0.332  0.00  0.00    +0.151 HD
ENDROOT
BRANCH   4  13
ATOM     13  C   UNL     1       0.115  -5.911   2.241  0.00  0.00    -0.019 A 
ATOM     14  C   UNL     1       1.448  -5.771   1.903  0.00  0.00    +0.006 A 
ATOM     15  C   UNL     1       2.386  -6.659   2.396  0.00  0.00    +0.004 A 
ATOM     16  C   UNL     1       1.993  -7.689   3.229  0.00  0.00    +0.046 A 
ATOM     17  C   UNL     1       0.656  -7.832   3.570  0.00  0.00    +0.129 A 
ATOM     18  C   UNL     1      -0.283  -6.936   3.078  0.00  0.00    +0.052 A 
BRANCH  17  19
ATOM     19  O   UNL     1       0.267  -8.844   4.389  0.00  0.00    -0.456 OA
BRANCH  19  20
ATOM     20  C   UNL     1      -0.334  -9.925   3.826  0.00  0.00    +0.128 A 
ATOM     21  C   UNL     1      -0.429 -10.026   2.445  0.00  0.00    +0.046 A 
ATOM     22  C   UNL     1      -1.041 -11.126   1.875  0.00  0.00    +0.004 A 
ATOM     23  C   UNL     1      -1.558 -12.125   2.679  0.00  0.00    +0.000 A 
ATOM     24  C   UNL     1      -1.466 -12.025   4.056  0.00  0.00    +0.004 A 
ATOM     25  C   UNL     1      -0.849 -10.931   4.630  0.00  0.00    +0.046 A 
ENDBRANCH  19  20
ENDBRANCH  17  19
ENDBRANCH   4  13
BRANCH   1  27
ATOM     26  C   UNL     1      -1.395  -0.523  -0.488  0.00  0.00    +0.025 C 
ATOM     27  C   UNL     1      -0.082  -1.189  -0.072  0.00  0.00    +0.111 C 
ENDBRANCH   1  27
BRANCH  10  28
ATOM     28  C   UNL     1      -0.954  -1.549   5.552  0.00  0.00    +0.165 C 
BRANCH  28  29
ATOM     29  C   UNL     1       0.326  -0.821   5.875  0.00  0.00    +0.234 C 
ATOM     30  O   UNL     1       1.234  -0.807   5.072  0.00  0.00    -0.274 OA
ATOM     31  N   UNL     1       0.460  -0.187   7.056  0.00  0.00    -0.311 N 
ATOM     32  H   UNL     1      -0.267  -0.198   7.699  0.00  0.00    +0.149 HD
BRANCH  31  33
ATOM     33  C   UNL     1       1.704   0.520   7.371  0.00  0.00    +0.073 C 
ATOM     34  C   UNL     1       2.719  -0.466   7.952  0.00  0.00    +0.022 C 
ATOM     35  C   UNL     1       4.018   0.272   8.280  0.00  0.00    +0.002 C 
ATOM     36  C   UNL     1       3.734   1.374   9.303  0.00  0.00    +0.000 C 
ATOM     37  C   UNL     1       2.720   2.360   8.722  0.00  0.00    +0.002 C 
ATOM     38  C   UNL     1       1.420   1.622   8.394  0.00  0.00    +0.022 C 
ENDBRANCH  31  33
ENDBRANCH  28  29
BRANCH  28  39
ATOM     39  C   UNL     1      -2.122  -0.561   5.576  0.00  0.00    +0.012 C 
ATOM     40  C   UNL     1      -1.811   0.619   4.653  0.00  0.00    +0.009 C 
ATOM     41  C   UNL     1      -3.394  -1.263   5.095  0.00  0.00    +0.009 C 
ENDBRANCH  28  39
ENDBRANCH  10  28
TORSDOF 8
