REMARK  Name = ZINC05902220
REMARK  2 active torsions:
REMARK  status: ('A' for Active; 'I' for Inactive)
REMARK    1  A    between atoms: C_6  and  C_7
REMARK    2  A    between atoms: C_8  and  C_9
REMARK                            x       y       z     vdW  Elec       q    Type
REMARK                         _______ _______ _______ _____ _____    ______ ____
ROOT
ATOM      1  C   UNL     1       4.734  -3.365   3.031  0.00  0.00    +0.135 A 
ATOM      2  N   UNL     1       3.407  -3.393   3.376  0.00  0.00    -0.307 N 
ATOM      3  H   UNL     1       3.095  -4.033   4.079  0.00  0.00    +0.170 HD
ATOM      4  C   UNL     1       2.516  -2.575   2.786  0.00  0.00    +0.260 A 
ATOM      5  O   UNL     1       1.339  -2.610   3.102  0.00  0.00    -0.267 OA
ATOM      6  C   UNL     1       2.971  -1.661   1.780  0.00  0.00    +0.075 A 
ATOM      7  C   UNL     1       2.180  -0.690   1.020  0.00  0.00    -0.023 A 
ATOM      8  C   UNL     1       2.844   0.056   0.110  0.00  0.00    -0.004 A 
ATOM      9  S   UNL     1       4.535  -0.470   0.226  0.00  0.00    -0.073 S 
ATOM     10  C   UNL     1       4.345  -1.703   1.488  0.00  0.00    +0.116 A 
ATOM     11  N   UNL     1       5.174  -2.532   2.105  0.00  0.00    -0.222 NA
ATOM     12  C   UNL     1       2.284   1.098  -0.806  0.00  0.00    +0.043 C 
ATOM     13  C   UNL     1       1.407   2.065  -0.000  0.00  0.00    +0.005 C 
ATOM     14  C   UNL     1      -0.019   1.523   0.010  0.00  0.00    +0.001 C 
ATOM     15  C   UNL     1       0.002  -0.004   0.002  0.00  0.00    +0.005 C 
ATOM     16  C   UNL     1       0.681  -0.535   1.259  0.00  0.00    +0.037 C 
ENDROOT
BRANCH   1  18
ATOM     17  C   UNL     1       6.979  -4.248   3.362  0.00  0.00    +0.011 C 
ATOM     18  C   UNL     1       5.673  -4.269   3.696  0.00  0.00    +0.047 C 
BRANCH  17  24
ATOM     19  C   UNL     1       9.280  -5.138   3.688  0.00  0.00    +0.009 A 
ATOM     20  C   UNL     1      10.159  -5.993   4.318  0.00  0.00    +0.022 A 
ATOM     21  C   UNL     1       9.704  -6.869   5.289  0.00  0.00    +0.059 A 
ATOM     22  C   UNL     1       8.361  -6.894   5.634  0.00  0.00    +0.060 A 
ATOM     23  C   UNL     1       7.471  -6.040   5.016  0.00  0.00    +0.029 A 
ATOM     24  C   UNL     1       7.924  -5.157   4.031  0.00  0.00    -0.023 A 
ATOM     25 CL   UNL     1       7.800  -7.997   6.852  0.00  0.00    -0.082 Cl
ATOM     26 CL   UNL     1      10.819  -7.942   6.076  0.00  0.00    -0.082 Cl
ENDBRANCH  17  24
ENDBRANCH   1  18
TORSDOF 2
