REMARK  Name = ZINC12283000
REMARK  12 active torsions:
REMARK  status: ('A' for Active; 'I' for Inactive)
REMARK    1  A    between atoms: C_1  and  C_2
REMARK    2  A    between atoms: C_9  and  C_11
REMARK    3  A    between atoms: N_13  and  C_26
REMARK    4  A    between atoms: C_15  and  C_18
REMARK    5  A    between atoms: N_20  and  C_21
REMARK    6  A    between atoms: C_21  and  C_22
REMARK    7  A    between atoms: C_22  and  C_23
REMARK    8  A    between atoms: C_23  and  C_24
REMARK    9  A    between atoms: C_23  and  C_25
REMARK   10  A    between atoms: C_26  and  C_27
REMARK   11  A    between atoms: C_32  and  O_33
REMARK   12  A    between atoms: O_33  and  C_34
REMARK                            x       y       z     vdW  Elec       q    Type
REMARK                         _______ _______ _______ _____ _____    ______ ____
ROOT
ATOM      1  C   UNL     1      -0.025   1.359   0.018  0.00  0.00    +0.100 A 
ATOM      2  C   UNL     1      -0.012  -0.001  -0.206  0.00  0.00    +0.103 A 
ATOM      3  N   UNL     1       1.137  -0.697  -0.216  0.00  0.00    -0.347 N 
ATOM      4  C   UNL     1       2.341  -0.139  -0.013  0.00  0.00    +0.103 A 
ATOM      5  C   UNL     1       2.476   1.212   0.223  0.00  0.00    +0.100 A 
ATOM      6  C   UNL     1       1.259   2.042   0.248  0.00  0.00    +0.206 A 
ATOM      7  O   UNL     1       1.313   3.243   0.451  0.00  0.00    -0.286 OA
ENDROOT
BRANCH   1  15
ATOM      8  C   UNL     1      -4.691   4.373  -2.539  0.00  0.00    +0.009 C 
ATOM      9  C   UNL     1      -3.364   3.624  -2.405  0.00  0.00    +0.003 C 
ATOM     10  C   UNL     1      -3.207   2.648  -3.574  0.00  0.00    +0.006 C 
ATOM     11  C   UNL     1      -1.864   1.923  -3.458  0.00  0.00    +0.019 C 
ATOM     12  C   UNL     1      -1.829   1.126  -2.156  0.00  0.00    +0.108 C 
ATOM     13  N   UNL     1      -2.127   2.028  -1.035  0.00  0.00    -0.297 N 
ATOM     14  C   UNL     1      -3.349   2.842  -1.088  0.00  0.00    +0.111 C 
ATOM     15  C   UNL     1      -1.291   2.111   0.020  0.00  0.00    +0.252 C 
ATOM     16  O   UNL     1      -1.583   2.808   0.973  0.00  0.00    -0.270 OA
ENDBRANCH   1  15
BRANCH   5  17
ATOM     17  C   UNL     1       3.803   1.812   0.444  0.00  0.00    +0.249 C 
ATOM     18  O   UNL     1       3.904   3.006   0.650  0.00  0.00    -0.270 OA
ATOM     19  N   UNL     1       4.905   1.037   0.417  0.00  0.00    -0.311 N 
ATOM     20  H   UNL     1       4.824   0.084   0.252  0.00  0.00    +0.149 HD
BRANCH  19  21
ATOM     21  C   UNL     1       6.225   1.633   0.637  0.00  0.00    +0.105 C 
BRANCH  21  22
ATOM     22  C   UNL     1       7.297   0.544   0.555  0.00  0.00    +0.022 C 
BRANCH  22  23
ATOM     23  C   UNL     1       8.675   1.166   0.785  0.00  0.00    -0.016 C 
ATOM     24  C   UNL     1       9.733   0.061   0.828  0.00  0.00    +0.007 C 
ATOM     25  C   UNL     1       8.994   2.134  -0.357  0.00  0.00    +0.007 C 
ENDBRANCH  22  23
ENDBRANCH  21  22
ENDBRANCH  19  21
ENDBRANCH   5  17
BRANCH   3  26
ATOM     26  C   UNL     1       1.072  -2.140  -0.460  0.00  0.00    +0.160 C 
BRANCH  26  27
ATOM     27  C   UNL     1       1.177  -2.405  -1.940  0.00  0.00    +0.014 A 
ATOM     28  C   UNL     1       0.033  -2.559  -2.698  0.00  0.00    +0.009 A 
ATOM     29  C   UNL     1       0.129  -2.801  -4.056  0.00  0.00    +0.001 A 
ATOM     30  C   UNL     1       1.371  -2.890  -4.658  0.00  0.00    +0.004 A 
ATOM     31  C   UNL     1       2.518  -2.736  -3.905  0.00  0.00    +0.046 A 
ATOM     32  C   UNL     1       2.424  -2.488  -2.543  0.00  0.00    +0.125 A 
BRANCH  32  33
ATOM     33  O   UNL     1       3.551  -2.331  -1.800  0.00  0.00    -0.495 OA
ATOM     34  C   UNL     1       4.800  -2.429  -2.488  0.00  0.00    +0.277 C 
ENDBRANCH  32  33
ENDBRANCH  26  27
ENDBRANCH   3  26
TORSDOF 8
