REMARK  Name = ZINC39850344
REMARK  7 active torsions:
REMARK  status: ('A' for Active; 'I' for Inactive)
REMARK    1  A    between atoms: C_1  and  O_2
REMARK    2  A    between atoms: O_2  and  C_3
REMARK    3  A    between atoms: C_7  and  C_9
REMARK    4  A    between atoms: C_11  and  C_23
REMARK    5  A    between atoms: C_13  and  C_18
REMARK    6  A    between atoms: C_13  and  O_22
REMARK    7  A    between atoms: C_23  and  C_25
REMARK                            x       y       z     vdW  Elec       q    Type
REMARK                         _______ _______ _______ _____ _____    ______ ____
ROOT
ATOM      1  C   UNL     1       1.389  -4.130   2.211  0.00  0.00    +0.120 C 
ATOM      2  C   UNL     1       2.717  -4.607   1.614  0.00  0.00    +0.145 C 
ATOM      3  C   UNL     1       3.860  -4.093   2.496  0.00  0.00    +0.243 C 
ATOM      4  N   UNL     1       3.640  -4.535   3.874  0.00  0.00    -0.264 N 
ATOM      5  C   UNL     1       2.403  -4.740   4.351  0.00  0.00    +0.302 C 
ATOM      6  O   UNL     1       2.276  -5.096   5.507  0.00  0.00    -0.253 OA
ATOM      7  N   UNL     1       1.301  -4.569   3.604  0.00  0.00    -0.292 N 
ATOM      8  H   UNL     1       4.404  -4.681   4.454  0.00  0.00    +0.153 HD
ATOM      9  H   UNL     1       0.429  -4.740   3.995  0.00  0.00    +0.151 HD
ENDROOT
BRANCH   1  14
ATOM     10  C   UNL     1       0.868  -0.612   0.934  0.00  0.00    +0.120 A 
ATOM     11  C   UNL     1       1.201   0.139   2.052  0.00  0.00    +0.045 A 
ATOM     12  C   UNL     1       1.593  -0.495   3.216  0.00  0.00    +0.004 A 
ATOM     13  C   UNL     1       1.653  -1.875   3.266  0.00  0.00    +0.006 A 
ATOM     14  C   UNL     1       1.321  -2.625   2.153  0.00  0.00    -0.023 A 
ATOM     15  C   UNL     1       0.924  -1.997   0.988  0.00  0.00    +0.051 A 
BRANCH  10  17
ATOM     16  C   UNL     1       0.447   1.438  -0.196  0.00  0.00    +0.277 C 
ATOM     17  O   UNL     1       0.482   0.009  -0.212  0.00  0.00    -0.495 OA
ENDBRANCH  10  17
ENDBRANCH   1  14
BRANCH   3  18
ATOM     18  C   UNL     1       5.190  -4.652   1.986  0.00  0.00    +0.436 C 
ATOM     19  F   UNL     1       5.396  -4.235   0.667  0.00  0.00    -0.166 F 
ATOM     20  F   UNL     1       6.233  -4.182   2.792  0.00  0.00    -0.166 F 
ATOM     21  F   UNL     1       5.157  -6.050   2.034  0.00  0.00    -0.166 F 
ENDBRANCH   3  18
BRANCH   3  22
ATOM     22  O   UNL     1       3.893  -2.665   2.452  0.00  0.00    -0.364 OA
ATOM     23  H   UNL     1       4.594  -2.270   2.988  0.00  0.00    +0.212 HD
ENDBRANCH   3  22
BRANCH   2  24
ATOM     24  C   UNL     1       2.742  -6.113   1.574  0.00  0.00    +0.179 C 
ATOM     25  O   UNL     1       2.060  -6.752   2.349  0.00  0.00    -0.291 OA
BRANCH  24  26
ATOM     26  C   UNL     1       3.558  -6.781   0.635  0.00  0.00    +0.055 A 
ATOM     27  C   UNL     1       3.721  -8.148   0.429  0.00  0.00    +0.019 A 
ATOM     28  C   UNL     1       4.593  -8.498  -0.570  0.00  0.00    +0.008 A 
ATOM     29  C   UNL     1       5.223  -7.521  -1.271  0.00  0.00    +0.046 A 
ATOM     30  S   UNL     1       4.643  -6.093  -0.602  0.00  0.00    -0.094 S 
ENDBRANCH  24  26
ENDBRANCH   2  24
TORSDOF 6
