REMARK  Name = ZINC02050269
REMARK  9 active torsions:
REMARK  status: ('A' for Active; 'I' for Inactive)
REMARK    1  A    between atoms: C_1  and  C_2
REMARK    2  A    between atoms: C_4  and  C_28
REMARK    3  A    between atoms: N_7  and  C_8
REMARK    4  A    between atoms: C_8  and  C_9
REMARK    5  A    between atoms: C_8  and  C_13
REMARK    6  A    between atoms: C_8  and  N_17
REMARK    7  A    between atoms: C_9  and  O_11
REMARK    8  A    between atoms: O_11  and  C_12
REMARK    9  A    between atoms: C_18  and  C_20
REMARK                            x       y       z     vdW  Elec       q    Type
REMARK                         _______ _______ _______ _____ _____    ______ ____
ROOT
ATOM      1  C   UNL     1      -3.662  -1.202   0.280  0.00  0.00    +0.296 C 
ENDROOT
BRANCH   1   8
ATOM      2  C   UNL     1       0.200  -2.435  -2.856  0.00  0.00    +0.044 C 
ATOM      3  C   UNL     1      -0.873  -3.206  -2.131  0.00  0.00    -0.046 A 
ATOM      4  C   UNL     1      -0.941  -4.590  -2.228  0.00  0.00    +0.024 A 
ATOM      5  C   UNL     1      -1.936  -5.267  -1.551  0.00  0.00    +0.015 A 
ATOM      6  C   UNL     1      -2.786  -3.298  -0.699  0.00  0.00    +0.099 A 
ATOM      7  C   UNL     1      -1.811  -2.552  -1.353  0.00  0.00    +0.045 A 
ATOM      8  N   UNL     1      -3.735  -2.653   0.086  0.00  0.00    -0.294 N 
ATOM      9  C   UNL     1      -2.016  -6.768  -1.653  0.00  0.00    +0.063 C 
ATOM     10  H   UNL     1      -4.445  -3.163   0.506  0.00  0.00    +0.150 HD
ATOM     11  N   UNL     1      -2.870  -4.657  -0.774  0.00  0.00    -0.347 N 
ATOM     12  H   UNL     1      -3.594  -5.187  -0.274  0.00  0.00    +0.167 HD
ENDBRANCH   1   8
BRANCH   1  13
ATOM     13  C   UNL     1      -4.633  -0.786   1.386  0.00  0.00    +0.438 C 
ATOM     14  F   UNL     1      -4.680   0.610   1.466  0.00  0.00    -0.166 F 
ATOM     15  F   UNL     1      -5.910  -1.280   1.096  0.00  0.00    -0.166 F 
ATOM     16  F   UNL     1      -4.198  -1.309   2.609  0.00  0.00    -0.166 F 
ENDBRANCH   1  13
BRANCH   1  17
ATOM     17  N   UNL     1      -2.298  -0.828   0.661  0.00  0.00    -0.274 N 
ATOM     18  C   UNL     1      -1.992   0.465   0.884  0.00  0.00    +0.248 C 
ATOM     19  O   UNL     1      -2.824   1.330   0.687  0.00  0.00    -0.270 OA
ATOM     20  H   UNL     1      -1.615  -1.511   0.752  0.00  0.00    +0.152 HD
BRANCH  18  21
ATOM     21  C   UNL     1      -0.645   0.832   1.368  0.00  0.00    +0.055 A 
ATOM     22  C   UNL     1       0.312  -0.158   1.595  0.00  0.00    +0.016 A 
ATOM     23  C   UNL     1       1.569   0.191   2.042  0.00  0.00    +0.021 A 
ATOM     24  C   UNL     1       1.882   1.521   2.271  0.00  0.00    +0.042 A 
ATOM     25  C   UNL     1       0.936   2.508   2.053  0.00  0.00    +0.040 A 
ATOM     26  C   UNL     1      -0.326   2.172   1.606  0.00  0.00    +0.054 A 
ATOM     27 CL   UNL     1      -1.512   3.411   1.333  0.00  0.00    -0.083 Cl
ATOM     28 CL   UNL     1       3.466   1.952   2.834  0.00  0.00    -0.083 Cl
ENDBRANCH  18  21
ENDBRANCH   1  17
BRANCH   1  29
ATOM     29  C   UNL     1      -4.035  -0.505  -1.004  0.00  0.00    +0.359 C 
ATOM     30  O   UNL     1      -4.585  -1.119  -1.887  0.00  0.00    -0.246 OA
BRANCH  29  31
ATOM     31  O   UNL     1      -3.755   0.797  -1.165  0.00  0.00    -0.465 OA
ATOM     32  C   UNL     1      -4.142   1.403  -2.427  0.00  0.00    +0.280 C 
ENDBRANCH  29  31
ENDBRANCH   1  29
TORSDOF 6
