REMARK  Name = ZINC64555617
REMARK  5 active torsions:
REMARK  status: ('A' for Active; 'I' for Inactive)
REMARK    1  A    between atoms: C_1  and  C_2
REMARK    2  A    between atoms: C_3  and  C_8
REMARK    3  A    between atoms: C_4  and  C_7
REMARK    4  A    between atoms: C_14  and  C_16
REMARK    5  A    between atoms: C_16  and  C_17
REMARK                            x       y       z     vdW  Elec       q    Type
REMARK                         _______ _______ _______ _____ _____    ______ ____
ROOT
ATOM      1  C   UNL     1      -0.229  -0.305  -2.543  0.00  0.00    +0.111 C 
ATOM      2  C   UNL     1       1.022  -0.683  -3.363  0.00  0.00    +0.029 C 
ATOM      3  C   UNL     1       0.431  -1.055  -4.748  0.00  0.00    +0.021 C 
ATOM      4  C   UNL     1      -0.907  -1.725  -4.346  0.00  0.00    +0.108 C 
ATOM      5  N   UNL     1      -1.386  -0.946  -3.186  0.00  0.00    -0.294 N 
ATOM      6  C   UNL     1      -2.667  -0.840  -2.782  0.00  0.00    +0.216 C 
ATOM      7  O   UNL     1      -2.943  -0.170  -1.809  0.00  0.00    -0.276 OA
ENDROOT
BRANCH   1  10
ATOM      8  C   UNL     1      -0.386  -3.338  -1.614  0.00  0.00    +0.069 C 
ATOM      9  C   UNL     1      -0.156  -2.148  -0.718  0.00  0.00    +0.086 A 
ATOM     10  C   UNL     1      -0.086  -0.805  -1.129  0.00  0.00    +0.037 A 
ATOM     11  C   UNL     1       0.131  -0.044  -0.039  0.00  0.00    +0.139 A 
ATOM     12  O   UNL     1       0.198  -0.856   1.027  0.00  0.00    -0.359 OA
ATOM     13  N   UNL     1       0.009  -2.184   0.575  0.00  0.00    -0.083 NA
ATOM     14  C   UNL     1       0.273   1.456  -0.021  0.00  0.00    +0.089 C 
ENDBRANCH   1  10
BRANCH   6  15
ATOM     15  C   UNL     1      -3.758  -1.554  -3.538  0.00  0.00    +0.099 C 
BRANCH  15  16
ATOM     16  C   UNL     1      -5.108  -1.270  -2.877  0.00  0.00    -0.002 C 
ATOM     17  C   UNL     1      -5.166  -1.937  -1.487  0.00  0.00    +0.004 C 
ATOM     18  C   UNL     1      -6.630  -2.427  -1.362  0.00  0.00    +0.000 C 
ATOM     19  C   UNL     1      -6.952  -2.912  -2.797  0.00  0.00    +0.000 C 
ATOM     20  C   UNL     1      -6.243  -1.890  -3.710  0.00  0.00    +0.004 C 
ENDBRANCH  15  16
ENDBRANCH   6  15
TORSDOF 3
