REMARK  Name = ZINC40578831
REMARK  5 active torsions:
REMARK  status: ('A' for Active; 'I' for Inactive)
REMARK    1  A    between atoms: C_1  and  C_2
REMARK    2  A    between atoms: C_3  and  N_9
REMARK    3  A    between atoms: C_4  and  C_8
REMARK    4  A    between atoms: N_12  and  C_13
REMARK    5  A    between atoms: C_18  and  C_19
REMARK                            x       y       z     vdW  Elec       q    Type
REMARK                         _______ _______ _______ _____ _____    ______ ____
ROOT
ATOM      1  N   UNL     1       0.247   0.331  -2.112  0.00  0.00    -0.266 N 
ATOM      2  C   UNL     1       0.661  -0.313  -3.222  0.00  0.00    +0.308 C 
ATOM      3  O   UNL     1       0.671  -1.528  -3.252  0.00  0.00    -0.252 OA
ATOM      4  N   UNL     1       1.064   0.391  -4.298  0.00  0.00    -0.268 N 
ATOM      5  H   UNL     1       0.158   1.296  -2.117  0.00  0.00    +0.156 HD
ATOM      6  H   UNL     1       1.002   1.359  -4.296  0.00  0.00    +0.156 HD
ENDROOT
BRANCH   1   9
ATOM      7  C   UNL     1       1.202   1.079   0.717  0.00  0.00    +0.067 C 
ATOM      8  C   UNL     1       0.349  -0.097   0.313  0.00  0.00    +0.054 A 
ATOM      9  C   UNL     1      -0.055  -0.399  -0.947  0.00  0.00    +0.078 A 
ATOM     10  C   UNL     1      -0.828  -1.567  -0.881  0.00  0.00    +0.081 A 
ATOM     11  N   UNL     1      -0.887  -1.952   0.368  0.00  0.00    -0.177 NA
ATOM     12  N   UNL     1      -0.150  -1.049   1.144  0.00  0.00    -0.280 N 
ATOM     13  H   UNL     1      -0.020  -1.093   2.104  0.00  0.00    +0.189 HD
ATOM     14  C   UNL     1      -1.480  -2.260  -2.049  0.00  0.00    +0.069 C 
ENDBRANCH   1   9
BRANCH   4  15
ATOM     15  C   UNL     1       1.570  -0.271  -5.413  0.00  0.00    +0.052 A 
ATOM     16  C   UNL     1       2.436  -1.344  -5.254  0.00  0.00    +0.024 A 
ATOM     17  C   UNL     1       2.937  -2.001  -6.360  0.00  0.00    +0.005 A 
ATOM     18  C   UNL     1       2.583  -1.599  -7.637  0.00  0.00    +0.039 A 
ATOM     19  C   UNL     1       1.723  -0.534  -7.819  0.00  0.00    +0.139 A 
ATOM     20  C   UNL     1       1.202   0.140  -6.705  0.00  0.00    +0.119 A 
ATOM     21  F   UNL     1       1.382  -0.144  -9.066  0.00  0.00    -0.205 F 
BRANCH  20  22
ATOM     22  C   UNL     1       0.282   1.271  -6.888  0.00  0.00    +0.391 C 
ATOM     23  O   UNL     1      -0.189   1.841  -5.913  0.00  0.00    -0.240 OA
ATOM     24  O   UNL     1      -0.014   1.642  -8.016  0.00  0.00    -0.240 OA
ENDBRANCH  20  22
ENDBRANCH   4  15
TORSDOF 3
