REMARK  Name = ZINC40317825
REMARK  11 active torsions:
REMARK  status: ('A' for Active; 'I' for Inactive)
REMARK    1  A    between atoms: C_1  and  C_2
REMARK    2  A    between atoms: C_2  and  C_3
REMARK    3  A    between atoms: C_6  and  C_9
REMARK    4  A    between atoms: C_9  and  N_10
REMARK    5  A    between atoms: N_10  and  C_11
REMARK    6  A    between atoms: N_10  and  C_25
REMARK    7  A    between atoms: C_11  and  C_12
REMARK    8  A    between atoms: C_12  and  C_14
REMARK    9  A    between atoms: C_12  and  O_24
REMARK   10  A    between atoms: C_14  and  O_15
REMARK   11  A    between atoms: O_15  and  C_16
REMARK                            x       y       z     vdW  Elec       q    Type
REMARK                         _______ _______ _______ _____ _____    ______ ____
ROOT
ATOM      1  N   UNL     1       3.292  -0.676  -5.533  0.00  0.00    +0.387 N 
ATOM      2  H   UNL     1       3.044   0.301  -5.564  0.00  0.00    -0.081 HD
ENDROOT
BRANCH   1   3
ATOM      3  C   UNL     1       4.553  -0.838  -4.797  0.00  0.00    -0.045 C 
ATOM      4  C   UNL     1       4.450  -0.143  -3.430  0.00  0.00    +0.009 C 
ATOM      5  C   UNL     1       5.854  -0.028  -2.788  0.00  0.00    +0.164 C 
ATOM      6  S   UNL     1       6.964   0.033  -4.254  0.00  0.00    -0.033 S 
ATOM      7  O   UNL     1       7.815  -1.105  -4.237  0.00  0.00    -0.174 OA
ATOM      8  O   UNL     1       7.533   1.331  -4.349  0.00  0.00    -0.174 OA
ATOM      9  C   UNL     1       5.714  -0.173  -5.592  0.00  0.00    +0.151 C 
ENDBRANCH   1   3
BRANCH   1  10
ATOM     10  C   UNL     1       2.229  -1.430  -4.854  0.00  0.00    -0.042 C 
BRANCH  10  14
ATOM     11  C   UNL     1       1.306   0.447  -1.130  0.00  0.00    -0.048 A 
ATOM     12  C   UNL     1       1.268   1.180  -2.301  0.00  0.00    +0.004 A 
ATOM     13  C   UNL     1       1.567   0.573  -3.507  0.00  0.00    +0.002 A 
ATOM     14  C   UNL     1       1.904  -0.767  -3.540  0.00  0.00    -0.064 A 
ATOM     15  C   UNL     1       1.943  -1.500  -2.369  0.00  0.00    +0.002 A 
ATOM     16  C   UNL     1       1.648  -0.892  -1.163  0.00  0.00    +0.004 A 
BRANCH  11  18
ATOM     17  C   UNL     1       2.259   1.685   0.796  0.00  0.00    +0.009 C 
ATOM     18  C   UNL     1       0.980   1.110   0.184  0.00  0.00    +0.032 C 
ENDBRANCH  11  18
ENDBRANCH  10  14
ENDBRANCH   1  10
BRANCH   1  19
ATOM     19  C   UNL     1       3.455  -1.184  -6.902  0.00  0.00    -0.043 C 
BRANCH  19  20
ATOM     20  C   UNL     1       3.654  -0.009  -7.861  0.00  0.00    +0.135 C 
BRANCH  20  21
ATOM     21  O   UNL     1       2.460   0.775  -7.908  0.00  0.00    -0.390 OA
ATOM     22  H   UNL     1       1.681   0.288  -8.210  0.00  0.00    +0.210 HD
ENDBRANCH  20  21
BRANCH  20  23
ATOM     23  C   UNL     1       3.969  -0.541  -9.261  0.00  0.00    +0.258 C 
BRANCH  23  24
ATOM     24  O   UNL     1       4.269   0.553 -10.130  0.00  0.00    -0.488 OA
BRANCH  24  25
ATOM     25  C   UNL     1       4.574   0.251 -11.420  0.00  0.00    +0.139 A 
ATOM     26  C   UNL     1       4.578  -1.071 -11.841  0.00  0.00    +0.048 A 
ATOM     27  C   UNL     1       4.888  -1.376 -13.152  0.00  0.00    +0.023 A 
ATOM     28  C   UNL     1       5.194  -0.365 -14.046  0.00  0.00    +0.043 A 
ATOM     29  C   UNL     1       5.190   0.954 -13.628  0.00  0.00    +0.043 A 
ATOM     30  C   UNL     1       4.875   1.264 -12.318  0.00  0.00    +0.084 A 
ATOM     31 CL   UNL     1       4.864   2.920 -11.796  0.00  0.00    -0.080 Cl
ATOM     32 CL   UNL     1       5.583  -0.752 -15.693  0.00  0.00    -0.083 Cl
ENDBRANCH  24  25
ENDBRANCH  23  24
ENDBRANCH  20  23
ENDBRANCH  19  20
ENDBRANCH   1  19
TORSDOF 10
