REMARK  Name = ZINC39498848
REMARK  12 active torsions:
REMARK  status: ('A' for Active; 'I' for Inactive)
REMARK    1  A    between atoms: C_1  and  C_2
REMARK    2  A    between atoms: C_2  and  C_3
REMARK    3  A    between atoms: C_2  and  S_4
REMARK    4  A    between atoms: S_4  and  C_7
REMARK    5  A    between atoms: C_8  and  C_29
REMARK    6  A    between atoms: C_11  and  C_22
REMARK    7  A    between atoms: C_12  and  S_13
REMARK    8  A    between atoms: S_13  and  C_16
REMARK    9  A    between atoms: C_27  and  O_28
REMARK   10  A    between atoms: C_29  and  C_31
REMARK   11  A    between atoms: C_29  and  N_34
REMARK   12  A    between atoms: C_31  and  C_32
REMARK                            x       y       z     vdW  Elec       q    Type
REMARK                         _______ _______ _______ _____ _____    ______ ____
ROOT
ATOM      1  C   UNL     1      -2.557  -0.225  -0.729  0.00  0.00    +0.119 A 
ATOM      2  C   UNL     1      -2.866   1.115  -0.582  0.00  0.00    -0.000 A 
ATOM      3  C   UNL     1      -3.424   1.821  -1.632  0.00  0.00    +0.008 A 
ATOM      4  C   UNL     1      -3.676   1.191  -2.834  0.00  0.00    +0.011 A 
ATOM      5  C   UNL     1      -3.367  -0.159  -2.988  0.00  0.00    +0.013 A 
ATOM      6  C   UNL     1      -2.800  -0.864  -1.928  0.00  0.00    +0.126 A 
ENDROOT
BRANCH   5   7
ATOM      7  C   UNL     1      -3.636  -0.842  -4.277  0.00  0.00    +0.025 A 
ATOM      8  C   UNL     1      -2.836  -0.582  -5.387  0.00  0.00    +0.012 A 
ATOM      9  C   UNL     1      -3.091  -1.219  -6.584  0.00  0.00    +0.001 A 
ATOM     10  C   UNL     1      -4.139  -2.117  -6.687  0.00  0.00    +0.004 A 
ATOM     11  C   UNL     1      -4.939  -2.382  -5.592  0.00  0.00    +0.046 A 
ATOM     12  C   UNL     1      -4.691  -1.753  -4.382  0.00  0.00    +0.125 A 
BRANCH  12  13
ATOM     13  O   UNL     1      -5.474  -2.017  -3.303  0.00  0.00    -0.506 OA
ATOM     14  H   UNL     1      -6.244  -1.438  -3.225  0.00  0.00    +0.292 HD
ENDBRANCH  12  13
ENDBRANCH   5   7
BRANCH   1  15
ATOM     15  S   UNL     1      -1.846  -1.117   0.614  0.00  0.00    +0.001 S 
ATOM     16  O   UNL     1      -2.563  -2.343   0.655  0.00  0.00    -0.169 OA
ATOM     17  O   UNL     1      -1.890  -0.215   1.711  0.00  0.00    -0.169 OA
BRANCH  15  19
ATOM     18  C   UNL     1       0.634  -0.088   0.092  0.00  0.00    +0.032 C 
ATOM     19  C   UNL     1      -0.127  -1.415   0.118  0.00  0.00    +0.130 C 
ATOM     20  C   UNL     1       0.535  -2.364   1.119  0.00  0.00    +0.032 C 
ENDBRANCH  15  19
ENDBRANCH   1  15
BRANCH   6  21
ATOM     21  S   UNL     1      -2.400  -2.570  -2.116  0.00  0.00    +0.027 S 
ATOM     22  O   UNL     1      -1.573  -2.917  -1.014  0.00  0.00    -0.164 OA
ATOM     23  O   UNL     1      -3.619  -3.244  -2.397  0.00  0.00    -0.164 OA
BRANCH  21  24
ATOM     24  C   UNL     1      -1.401  -2.714  -3.560  0.00  0.00    +0.094 A 
ATOM     25  C   UNL     1      -1.965  -3.127  -4.753  0.00  0.00    +0.027 A 
ATOM     26  C   UNL     1      -1.181  -3.240  -5.886  0.00  0.00    +0.002 A 
ATOM     27  C   UNL     1       0.167  -2.941  -5.826  0.00  0.00    +0.000 A 
ATOM     28  C   UNL     1       0.731  -2.528  -4.634  0.00  0.00    +0.002 A 
ATOM     29  C   UNL     1      -0.053  -2.410  -3.502  0.00  0.00    +0.027 A 
ENDBRANCH  21  24
ENDBRANCH   6  21
BRANCH   2  30
ATOM     30  C   UNL     1      -2.594   1.808   0.728  0.00  0.00    +0.112 C 
BRANCH  30  31
ATOM     31  N   UNL     1      -3.572   1.369   1.726  0.00  0.00    -0.311 N 
ATOM     32  C   UNL     1      -4.891   1.502   1.480  0.00  0.00    +0.326 C 
ATOM     33  O   UNL     1      -5.269   1.902   0.399  0.00  0.00    -0.280 OA
ATOM     34  H   UNL     1      -3.272   0.983   2.563  0.00  0.00    +0.149 HD
ENDBRANCH  30  31
BRANCH  30  35
ATOM     35  C   UNL     1      -2.704   3.322   0.537  0.00  0.00    +0.097 C 
BRANCH  35  36
ATOM     36  C   UNL     1      -2.419   4.016   1.844  0.00  0.00    +0.225 C 
ATOM     37  O   UNL     1      -1.559   4.862   1.903  0.00  0.00    -0.301 OA
ENDBRANCH  35  36
ENDBRANCH  30  35
ENDBRANCH   2  30
TORSDOF 10
