REMARK  Name = ZINC14699400
REMARK  16 active torsions:
REMARK  status: ('A' for Active; 'I' for Inactive)
REMARK    1  A    between atoms: C_1  and  C_2
REMARK    2  A    between atoms: C_2  and  C_3
REMARK    3  A    between atoms: C_3  and  C_4
REMARK    4  A    between atoms: C_4  and  N_5
REMARK    5  A    between atoms: C_6  and  N_37
REMARK    6  A    between atoms: C_7  and  N_14
REMARK    7  A    between atoms: N_14  and  C_15
REMARK    8  A    between atoms: C_15  and  C_16
REMARK    9  A    between atoms: C_21  and  O_22
REMARK   10  A    between atoms: O_22  and  C_23
REMARK   11  A    between atoms: C_24  and  C_26
REMARK   12  A    between atoms: C_26  and  O_27
REMARK   13  A    between atoms: O_27  and  C_28
REMARK   14  A    between atoms: C_29  and  C_36
REMARK   15  A    between atoms: C_31  and  C_35
REMARK   16  A    between atoms: C_33  and  C_34
REMARK                            x       y       z     vdW  Elec       q    Type
REMARK                         _______ _______ _______ _____ _____    ______ ____
ROOT
ATOM      1  N   UNL     1       0.975   1.903  -0.056  0.00  0.00    -0.257 N 
ATOM      2  C   UNL     1      -0.218   1.302  -0.246  0.00  0.00    +0.258 C 
ATOM      3  O   UNL     1      -0.269   0.109  -0.462  0.00  0.00    -0.271 OA
ENDROOT
BRANCH   1   6
ATOM      4  N   UNL     1       3.499  -0.554   0.990  0.00  0.00    -0.280 N 
ATOM      5  C   UNL     1       2.338   0.183   0.974  0.00  0.00    +0.127 A 
ATOM      6  C   UNL     1       2.155   1.130  -0.013  0.00  0.00    +0.140 A 
ATOM      7  C   UNL     1       3.163   1.308  -0.979  0.00  0.00    +0.277 A 
ATOM      8  O   UNL     1       3.025   2.135  -1.865  0.00  0.00    -0.266 OA
ATOM      9  N   UNL     1       4.284   0.563  -0.915  0.00  0.00    -0.273 N 
ATOM     10  H   UNL     1       5.004   0.695  -1.596  0.00  0.00    +0.173 HD
ATOM     11  C   UNL     1       4.445  -0.355   0.054  0.00  0.00    +0.331 A 
ATOM     12  O   UNL     1       5.464  -1.018   0.085  0.00  0.00    -0.246 OA
BRANCH   5  13
ATOM     13  N   UNL     1       1.373  -0.020   1.931  0.00  0.00    -0.343 N 
ATOM     14  H   UNL     1       0.536   0.470   1.887  0.00  0.00    +0.144 HD
ATOM     15  H   UNL     1       1.527  -0.653   2.649  0.00  0.00    +0.144 HD
ENDBRANCH   5  13
BRANCH   4  16
ATOM     16  C   UNL     1       3.707  -1.563   2.031  0.00  0.00    +0.128 C 
BRANCH  16  17
ATOM     17  C   UNL     1       3.158  -2.909   1.554  0.00  0.00    +0.021 C 
BRANCH  17  19
ATOM     18  C   UNL     1       2.826  -5.309   2.165  0.00  0.00    +0.004 C 
ATOM     19  C   UNL     1       3.375  -3.963   2.642  0.00  0.00    -0.002 C 
ENDBRANCH  17  19
ENDBRANCH  16  17
ENDBRANCH   4  16
ENDBRANCH   1   6
BRANCH   1  20
ATOM     20  C   UNL     1       1.045   3.357   0.106  0.00  0.00    +0.152 C 
BRANCH  20  21
ATOM     21  C   UNL     1       1.010   3.701   1.573  0.00  0.00    +0.012 A 
ATOM     22  C   UNL     1      -0.162   4.153   2.149  0.00  0.00    +0.009 A 
ATOM     23  C   UNL     1      -0.196   4.464   3.495  0.00  0.00    +0.001 A 
ATOM     24  C   UNL     1       0.945   4.335   4.266  0.00  0.00    +0.004 A 
ATOM     25  C   UNL     1       2.120   3.889   3.694  0.00  0.00    +0.046 A 
ATOM     26  C   UNL     1       2.156   3.571   2.344  0.00  0.00    +0.125 A 
BRANCH  26  27
ATOM     27  O   UNL     1       3.311   3.133   1.778  0.00  0.00    -0.495 OA
ATOM     28  C   UNL     1       4.451   3.023   2.633  0.00  0.00    +0.277 C 
ENDBRANCH  26  27
ENDBRANCH  20  21
ENDBRANCH   1  20
BRANCH   2  29
ATOM     29  C   UNL     1      -1.487   2.114  -0.198  0.00  0.00    +0.325 C 
BRANCH  29  30
ATOM     30  O   UNL     1      -2.608   1.260  -0.434  0.00  0.00    -0.482 OA
BRANCH  30  31
ATOM     31  C   UNL     1      -3.837   1.839  -0.424  0.00  0.00    +0.127 A 
ATOM     32  C   UNL     1      -4.557   1.920   0.760  0.00  0.00    -0.008 A 
ATOM     33  C   UNL     1      -5.804   2.515   0.768  0.00  0.00    +0.010 A 
ATOM     34  C   UNL     1      -6.340   3.017  -0.403  0.00  0.00    -0.050 A 
ATOM     35  C   UNL     1      -5.627   2.932  -1.585  0.00  0.00    +0.010 A 
ATOM     36  C   UNL     1      -4.377   2.344  -1.597  0.00  0.00    -0.008 A 
ATOM     37  C   UNL     1      -3.601   2.251  -2.886  0.00  0.00    +0.047 C 
ATOM     38  C   UNL     1      -7.703   3.659  -0.392  0.00  0.00    +0.044 C 
ATOM     39  C   UNL     1      -3.976   1.367   2.035  0.00  0.00    +0.047 C 
ENDBRANCH  30  31
ENDBRANCH  29  30
ENDBRANCH   2  29
TORSDOF 11
