REMARK  Name = ZINC14549155
REMARK  3 active torsions:
REMARK  status: ('A' for Active; 'I' for Inactive)
REMARK    1  A    between atoms: C_14  and  C_15
REMARK    2  A    between atoms: C_25  and  N_32
REMARK    3  A    between atoms: C_28  and  O_31
REMARK                            x       y       z     vdW  Elec       q    Type
REMARK                         _______ _______ _______ _____ _____    ______ ____
ROOT
ATOM      1  C   UNL     1       4.530  -0.305  -0.251  0.00  0.00    +0.106 C 
ATOM      2  C   UNL     1       5.038  -0.153   1.172  0.00  0.00    +0.029 C 
ATOM      3  C   UNL     1       3.997   0.148   2.258  0.00  0.00    +0.033 C 
ATOM      4  C   UNL     1       4.644  -0.490   3.489  0.00  0.00    -0.030 C 
ATOM      5  C   UNL     1       5.460  -1.469   3.117  0.00  0.00    -0.023 C 
ATOM      6  C   UNL     1       5.436  -1.589   1.627  0.00  0.00    +0.051 C 
ATOM      7  C   UNL     1       6.614  -2.005   0.834  0.00  0.00    +0.014 A 
ATOM      8  C   UNL     1       7.619  -2.791   1.359  0.00  0.00    +0.132 A 
ATOM      9  C   UNL     1       8.694  -3.167   0.576  0.00  0.00    +0.037 A 
ATOM     10  C   UNL     1       8.767  -2.755  -0.743  0.00  0.00    +0.049 A 
ATOM     11  C   UNL     1       7.767  -1.963  -1.278  0.00  0.00    +0.138 A 
ATOM     12  C   UNL     1       6.683  -1.574  -0.493  0.00  0.00    +0.076 A 
ATOM     13  N   UNL     1       5.697  -0.740  -1.049  0.00  0.00    -0.334 N 
ATOM     14  H   UNL     1       5.783  -0.443  -1.969  0.00  0.00    +0.147 HD
ENDROOT
BRANCH   1  28
ATOM     15  C   UNL     1      -0.278  -0.649   1.466  0.00  0.00    +0.001 A 
ATOM     16  C   UNL     1       0.728   0.317   1.518  0.00  0.00    +0.001 A 
ATOM     17  C   UNL     1       1.944   0.113   0.950  0.00  0.00    +0.009 A 
ATOM     18  C   UNL     1       2.207  -1.106   0.288  0.00  0.00    -0.012 A 
ATOM     19  C   UNL     1       1.150  -2.121   0.233  0.00  0.00    -0.017 A 
ATOM     20  C   UNL     1      -0.091  -1.841   0.846  0.00  0.00    +0.008 A 
ATOM     21  C   UNL     1       1.376  -3.335  -0.413  0.00  0.00    +0.017 A 
ATOM     22  C   UNL     1       2.613  -3.578  -1.008  0.00  0.00    -0.017 A 
ATOM     23  C   UNL     1       2.876  -4.796  -1.671  0.00  0.00    +0.008 A 
ATOM     24  C   UNL     1       4.092  -4.999  -2.240  0.00  0.00    +0.001 A 
ATOM     25  C   UNL     1       5.098  -4.034  -2.187  0.00  0.00    +0.001 A 
ATOM     26  C   UNL     1       4.911  -2.841  -1.566  0.00  0.00    +0.009 A 
ATOM     27  C   UNL     1       3.670  -2.562  -0.953  0.00  0.00    -0.012 A 
ATOM     28  C   UNL     1       3.444  -1.349  -0.307  0.00  0.00    -0.012 A 
ENDBRANCH   1  28
BRANCH   8  29
ATOM     29  N   UNL     1       7.546  -3.234   2.769  0.00  0.00    +0.057 N 
ATOM     30  O   UNL     1       8.475  -3.030   3.516  0.00  0.00    -0.126 OA
ATOM     31  O   UNL     1       6.557  -3.799   3.175  0.00  0.00    -0.126 OA
ENDBRANCH   8  29
BRANCH  11  32
ATOM     32  O   UNL     1       7.842  -1.562  -2.576  0.00  0.00    -0.505 OA
ATOM     33  H   UNL     1       7.423  -2.171  -3.200  0.00  0.00    +0.292 HD
ENDBRANCH  11  32
TORSDOF 3
