REMARK  Name = ZINC39695798
REMARK  9 active torsions:
REMARK  status: ('A' for Active; 'I' for Inactive)
REMARK    1  A    between atoms: C_1  and  C_2
REMARK    2  A    between atoms: C_2  and  S_3
REMARK    3  A    between atoms: S_3  and  C_4
REMARK    4  A    between atoms: C_5  and  C_10
REMARK    5  A    between atoms: C_14  and  C_23
REMARK    6  A    between atoms: N_25  and  C_26
REMARK    7  A    between atoms: C_26  and  C_28
REMARK    8  A    between atoms: C_26  and  C_29
REMARK    9  A    between atoms: C_35  and  C_39
REMARK                            x       y       z     vdW  Elec       q    Type
REMARK                         _______ _______ _______ _____ _____    ______ ____
ROOT
ATOM      1  C   UNL     1       1.883  -2.667  -3.419  0.00  0.00    +0.249 C 
ATOM      2  O   UNL     1       1.887  -1.453  -3.494  0.00  0.00    -0.270 OA
ATOM      3  N   UNL     1       2.579  -3.400  -4.311  0.00  0.00    -0.296 N 
ATOM      4  C   UNL     1       2.610  -4.875  -4.447  0.00  0.00    +0.121 C 
ATOM      5  C   UNL     1       2.626  -5.126  -5.971  0.00  0.00    +0.100 C 
ATOM      6  C   UNL     1       3.204  -3.836  -6.575  0.00  0.00    -0.004 C 
ATOM      7  C   UNL     1       3.481  -2.912  -5.381  0.00  0.00    +0.115 C 
ATOM      8  C   UNL     1       2.186  -3.188  -7.510  0.00  0.00    -0.010 C 
ATOM      9  C   UNL     1       2.804  -1.938  -8.142  0.00  0.00    -0.082 C 
ATOM     10  N   UNL     1       4.014  -2.311  -8.886  0.00  0.00    +0.379 N 
ATOM     11  C   UNL     1       5.023  -2.847  -7.965  0.00  0.00    -0.082 C 
ATOM     12  C   UNL     1       4.498  -4.136  -7.324  0.00  0.00    -0.010 C 
ATOM     13  H   UNL     1       3.782  -3.011  -9.574  0.00  0.00    -0.086 HD
ATOM     14  H   UNL     1       4.385  -1.496  -9.352  0.00  0.00    -0.086 HD
ENDROOT
BRANCH   1  16
ATOM     15  C   UNL     1      -0.112  -2.808  -1.915  0.00  0.00    +0.109 A 
ATOM     16  C   UNL     1       1.115  -3.337  -2.353  0.00  0.00    +0.069 A 
ATOM     17  C   UNL     1       1.595  -4.510  -1.760  0.00  0.00    +0.017 A 
ATOM     18  C   UNL     1       0.837  -5.100  -0.764  0.00  0.00    +0.020 A 
ATOM     19  C   UNL     1      -0.362  -4.521  -0.386  0.00  0.00    +0.112 A 
ATOM     20  N   UNL     1      -0.795  -3.412  -0.953  0.00  0.00    -0.248 NA
BRANCH  15  21
ATOM     21  S   UNL     1      -0.741  -1.332  -2.642  0.00  0.00    -0.105 S 
BRANCH  21  23
ATOM     22  C   UNL     1      -2.965   0.226  -2.309  0.00  0.00    +0.015 C 
ATOM     23  C   UNL     1      -2.304  -1.044  -1.768  0.00  0.00    +0.072 C 
ENDBRANCH  21  23
ENDBRANCH  15  21
ENDBRANCH   1  16
BRANCH   5  24
ATOM     24  C   UNL     1       3.508  -6.303  -6.300  0.00  0.00    +0.219 C 
ATOM     25  O   UNL     1       4.474  -6.549  -5.608  0.00  0.00    -0.275 OA
ATOM     26  N   UNL     1       3.225  -7.082  -7.362  0.00  0.00    -0.305 N 
ATOM     27  H   UNL     1       2.452  -6.886  -7.915  0.00  0.00    +0.149 HD
BRANCH  26  28
ATOM     28  C   UNL     1       4.082  -8.226  -7.681  0.00  0.00    +0.136 C 
ATOM     29  C   UNL     1       5.266  -7.755  -8.528  0.00  0.00    +0.036 C 
BRANCH  28  30
ATOM     30  C   UNL     1       3.289  -9.249  -8.452  0.00  0.00    +0.128 A 
ATOM     31  H   UNL     1       4.307 -11.027  -8.055  0.00  0.00    +0.167 HD
ATOM     32  N   UNL     1       2.236  -8.989  -9.172  0.00  0.00    -0.231 NA
ATOM     33  C   UNL     1       1.768 -10.136  -9.728  0.00  0.00    +0.089 A 
ATOM     34  C   UNL     1       0.692 -10.429 -10.569  0.00  0.00    +0.030 A 
ATOM     35  C   UNL     1       0.473 -11.717 -10.970  0.00  0.00    +0.005 A 
ATOM     36  C   UNL     1       1.310 -12.741 -10.551  0.00  0.00    -0.048 A 
ATOM     37  C   UNL     1       2.378 -12.475  -9.720  0.00  0.00    +0.031 A 
ATOM     38  C   UNL     1       2.616 -11.173  -9.303  0.00  0.00    +0.067 A 
ATOM     39  N   UNL     1       3.572 -10.579  -8.502  0.00  0.00    -0.340 N 
ATOM     40  C   UNL     1       1.050 -14.154 -11.006  0.00  0.00    +0.044 C 
ENDBRANCH  28  30
ENDBRANCH  26  28
ENDBRANCH   5  24
TORSDOF 6
