REMARK  Name = ZINC44983145
REMARK  4 active torsions:
REMARK  status: ('A' for Active; 'I' for Inactive)
REMARK    1  A    between atoms: C_1  and  C_2
REMARK    2  A    between atoms: C_5  and  C_8
REMARK    3  A    between atoms: C_10  and  C_13
REMARK    4  A    between atoms: C_15  and  N_21
REMARK                            x       y       z     vdW  Elec       q    Type
REMARK                         _______ _______ _______ _____ _____    ______ ____
ROOT
ATOM      1  C   UNL     1       1.499  -4.041  -0.034  0.00  0.00    +0.175 A 
ATOM      2  N   UNL     1       2.597  -4.800  -0.043  0.00  0.00    -0.191 NA
ATOM      3  C   UNL     1       2.264  -6.072  -0.048  0.00  0.00    +0.261 A 
ATOM      4  O   UNL     1       0.921  -6.149  -0.041  0.00  0.00    -0.333 OA
ATOM      5  N   UNL     1       0.448  -4.811  -0.028  0.00  0.00    -0.061 NA
ENDROOT
BRANCH   3   6
ATOM      6  C   UNL     1       3.199  -7.214  -0.059  0.00  0.00    +0.076 A 
ATOM      7  C   UNL     1       2.708  -8.522  -0.068  0.00  0.00    +0.041 A 
ATOM      8  C   UNL     1       3.590  -9.588  -0.079  0.00  0.00    +0.061 A 
ATOM      9  C   UNL     1       4.963  -9.357  -0.079  0.00  0.00    +0.147 A 
ATOM     10  C   UNL     1       5.452  -8.063  -0.070  0.00  0.00    +0.079 A 
ATOM     11  C   UNL     1       4.579  -6.991  -0.065  0.00  0.00    +0.139 A 
ATOM     12  F   UNL     1       5.059  -5.728  -0.062  0.00  0.00    -0.205 F 
ATOM     13  F   UNL     1       5.822 -10.401  -0.089  0.00  0.00    -0.203 F 
BRANCH   8  14
ATOM     14  N   UNL     1       3.101 -10.900  -0.088  0.00  0.00    -0.356 N 
ATOM     15  H   UNL     1       2.144 -11.061  -0.087  0.00  0.00    +0.142 HD
ATOM     16  H   UNL     1       3.719 -11.648  -0.095  0.00  0.00    +0.142 HD
ENDBRANCH   8  14
ENDBRANCH   3   6
BRANCH   1  21
ATOM     17  C   UNL     1      -0.019   1.526   0.010  0.00  0.00    +0.007 C 
ATOM     18  C   UNL     1       0.002  -0.004   0.002  0.00  0.00    -0.014 C 
ATOM     19  C   UNL     1       0.718  -0.497  -1.257  0.00  0.00    +0.004 C 
ATOM     20  C   UNL     1       0.739  -2.027  -1.265  0.00  0.00    +0.011 C 
ATOM     21  C   UNL     1       1.479  -2.534  -0.026  0.00  0.00    +0.060 C 
ATOM     22  C   UNL     1       0.763  -2.041   1.233  0.00  0.00    +0.011 C 
ATOM     23  C   UNL     1       0.742  -0.511   1.242  0.00  0.00    +0.004 C 
ENDBRANCH   1  21
TORSDOF 3
