REMARK  Name = ZINC08022499
REMARK  9 active torsions:
REMARK  status: ('A' for Active; 'I' for Inactive)
REMARK    1  A    between atoms: C_9  and  C_12
REMARK    2  A    between atoms: C_12  and  N_13
REMARK    3  A    between atoms: N_13  and  C_14
REMARK    4  A    between atoms: C_14  and  C_15
REMARK    5  A    between atoms: C_18  and  C_21
REMARK    6  A    between atoms: C_21  and  N_22
REMARK    7  A    between atoms: N_22  and  S_23
REMARK    8  A    between atoms: S_23  and  C_26
REMARK    9  A    between atoms: C_31  and  N_32
REMARK                            x       y       z     vdW  Elec       q    Type
REMARK                         _______ _______ _______ _____ _____    ______ ____
ROOT
ATOM      1  C   UNL     1       8.752  -2.282  -2.314  0.00  0.00    -0.028 C 
ATOM      2  C   UNL     1       8.540  -2.600  -3.795  0.00  0.00    +0.002 C 
ATOM      3  C   UNL     1       8.338  -4.106  -3.970  0.00  0.00    +0.005 C 
ATOM      4  C   UNL     1       9.576  -4.849  -3.461  0.00  0.00    +0.005 C 
ATOM      5  C   UNL     1       9.788  -4.531  -1.980  0.00  0.00    +0.005 C 
ATOM      6  C   UNL     1       9.990  -3.024  -1.805  0.00  0.00    +0.002 C 
ENDROOT
BRANCH   1   7
ATOM      7  C   UNL     1       7.526  -2.728  -1.515  0.00  0.00    -0.079 C 
BRANCH   7   8
ATOM      8  N   UNL     1       6.361  -1.931  -1.921  0.00  0.00    +0.379 N 
ATOM      9  H   UNL     1       6.188  -2.064  -2.906  0.00  0.00    -0.086 HD
ATOM     10  H   UNL     1       6.543  -0.955  -1.741  0.00  0.00    -0.086 HD
BRANCH   8  11
ATOM     11  C   UNL     1       5.183  -2.359  -1.154  0.00  0.00    -0.079 C 
BRANCH  11  20
ATOM     12  C   UNL     1       0.652   2.287  -1.727  0.00  0.00    +0.000 A 
ATOM     13  C   UNL     1       1.891   2.886  -1.595  0.00  0.00    +0.000 A 
ATOM     14  C   UNL     1       3.014   2.105  -1.417  0.00  0.00    +0.004 A 
ATOM     15  C   UNL     1       2.911   0.720  -1.373  0.00  0.00    -0.044 A 
ATOM     16  C   UNL     1       1.678   0.123  -1.510  0.00  0.00    -0.044 A 
ATOM     17  C   UNL     1       0.548   0.912  -1.684  0.00  0.00    +0.004 A 
ATOM     18  C   UNL     1       1.494  -1.371  -1.488  0.00  0.00    +0.035 C 
ATOM     19  C   UNL     1       2.714  -2.054  -0.872  0.00  0.00    +0.006 C 
ATOM     20  C   UNL     1       3.970  -1.528  -1.577  0.00  0.00    -0.023 C 
ATOM     21  C   UNL     1       4.177  -0.071  -1.169  0.00  0.00    +0.037 C 
ENDBRANCH  11  20
ENDBRANCH   8  11
ENDBRANCH   7   8
ENDBRANCH   1   7
BRANCH   4  22
ATOM     22  C   UNL     1       9.374  -6.355  -3.636  0.00  0.00    +0.109 C 
BRANCH  22  23
ATOM     23  N   UNL     1      10.603  -7.059  -3.261  0.00  0.00    -0.190 NA
ATOM     24  H   UNL     1      11.441  -6.574  -3.201  0.00  0.00    +0.148 HD
BRANCH  23  25
ATOM     25  S   UNL     1      10.562  -8.683  -2.938  0.00  0.00    +0.061 S 
ATOM     26  O   UNL     1      11.902  -9.080  -2.682  0.00  0.00    -0.153 OA
ATOM     27  O   UNL     1       9.515  -8.884  -1.999  0.00  0.00    -0.153 OA
BRANCH  25  28
ATOM     28  C   UNL     1      10.071  -9.496  -4.422  0.00  0.00    +0.135 A 
ATOM     29  C   UNL     1       8.889 -10.212  -4.459  0.00  0.00    +0.031 A 
ATOM     30  C   UNL     1       8.504 -10.851  -5.623  0.00  0.00    +0.002 A 
ATOM     31  C   UNL     1       9.300 -10.773  -6.750  0.00  0.00    +0.002 A 
ATOM     32  C   UNL     1      10.482 -10.056  -6.713  0.00  0.00    +0.035 A 
ATOM     33  C   UNL     1      10.865  -9.414  -5.551  0.00  0.00    +0.152 A 
BRANCH  33  34
ATOM     34  N   UNL     1      12.127  -8.643  -5.513  0.00  0.00    +0.058 N 
ATOM     35  O   UNL     1      12.884  -8.675  -6.455  0.00  0.00    -0.126 OA
ATOM     36  O   UNL     1      12.402  -7.980  -4.539  0.00  0.00    -0.126 OA
ENDBRANCH  33  34
ENDBRANCH  25  28
ENDBRANCH  23  25
ENDBRANCH  22  23
ENDBRANCH   4  22
TORSDOF 9
