REMARK  Name = ZINC03913698
REMARK  1 active torsions:
REMARK  status: ('A' for Active; 'I' for Inactive)
REMARK    1  A    between atoms: C_1  and  C_2
REMARK                            x       y       z     vdW  Elec       q    Type
REMARK                         _______ _______ _______ _____ _____    ______ ____
ROOT
ATOM      1  C   UNL     1      -0.019   1.526   0.010  0.00  0.00    +0.028 C 
ATOM      2  C   UNL     1       0.002  -0.004   0.002  0.00  0.00    +0.072 C 
ATOM      3  C   UNL     1       0.725  -0.501  -1.254  0.00  0.00    +0.022 C 
ATOM      4  C   UNL     1       0.865  -2.023  -1.188  0.00  0.00    +0.003 C 
ATOM      5  C   UNL     1       1.701  -2.408   0.034  0.00  0.00    +0.019 C 
ATOM      6  C   UNL     1       0.989  -1.933   1.305  0.00  0.00    +0.107 C 
ATOM      7  N   UNL     1       0.718  -0.493   1.188  0.00  0.00    -0.305 N 
ATOM      8  C   UNL     1       1.134   0.389   2.178  0.00  0.00    +0.186 A 
ATOM      9  N   UNL     1       0.982   1.696   2.250  0.00  0.00    -0.124 NA
ATOM     10  N   UNL     1       1.477   2.385   3.333  0.00  0.00    -0.125 NA
ATOM     11  C   UNL     1       2.101   1.734   4.295  0.00  0.00    +0.180 A 
ATOM     12  S   UNL     1       2.011   0.053   3.698  0.00  0.00    -0.016 S 
ATOM     13  N   UNL     1       2.673   2.224   5.463  0.00  0.00    -0.336 N 
ATOM     14  H   UNL     1       2.640   3.174   5.658  0.00  0.00    +0.144 HD
ATOM     15  H   UNL     1       3.103   1.617   6.085  0.00  0.00    +0.144 HD
ENDROOT
TORSDOF 0
