REMARK  Name = ZINC12770579
REMARK  3 active torsions:
REMARK  status: ('A' for Active; 'I' for Inactive)
REMARK    1  A    between atoms: C_4  and  C_7
REMARK    2  A    between atoms: N_16  and  S_17
REMARK    3  A    between atoms: S_17  and  C_20
REMARK                            x       y       z     vdW  Elec       q    Type
REMARK                         _______ _______ _______ _____ _____    ______ ____
ROOT
ATOM      1  C   UNL     1       3.711  -0.707  -0.038  0.00  0.00    +0.140 C 
ATOM      2  C   UNL     1       3.957  -1.294  -1.426  0.00  0.00    -0.014 A 
ATOM      3  C   UNL     1       4.311  -0.521  -2.530  0.00  0.00    +0.013 A 
ATOM      4  C   UNL     1       4.510  -1.109  -3.733  0.00  0.00    +0.046 A 
ATOM      5  S   UNL     1       4.199  -2.828  -3.357  0.00  0.00    -0.101 S 
ATOM      6  C   UNL     1       3.833  -2.634  -1.633  0.00  0.00    -0.004 A 
ATOM      7  C   UNL     1       3.476  -3.687  -0.635  0.00  0.00    +0.060 C 
ATOM      8  C   UNL     1       2.866  -3.009   0.601  0.00  0.00    +0.115 C 
ATOM      9  N   UNL     1       3.672  -1.820   0.921  0.00  0.00    -0.165 NA
ENDROOT
BRANCH   1  13
ATOM     10  C   UNL     1      -0.016   1.379   0.010  0.00  0.00    +0.000 A 
ATOM     11  C   UNL     1       1.141   2.022   0.406  0.00  0.00    +0.000 A 
ATOM     12  C   UNL     1       2.347   1.347   0.391  0.00  0.00    +0.005 A 
ATOM     13  C   UNL     1       2.396   0.029  -0.020  0.00  0.00    -0.024 A 
ATOM     14  C   UNL     1       1.239  -0.615  -0.416  0.00  0.00    +0.005 A 
ATOM     15  C   UNL     1       0.033   0.060  -0.402  0.00  0.00    +0.000 A 
ENDBRANCH   1  13
BRANCH   9  16
ATOM     16  S   UNL     1       4.523  -1.737   2.339  0.00  0.00    +0.062 S 
ATOM     17  O   UNL     1       4.751  -3.076   2.755  0.00  0.00    -0.153 OA
ATOM     18  O   UNL     1       5.582  -0.815   2.124  0.00  0.00    -0.153 OA
BRANCH  16  19
ATOM     19  C   UNL     1       3.460  -1.011   3.543  0.00  0.00    +0.108 A 
ATOM     20  C   UNL     1       3.440   0.364   3.706  0.00  0.00    +0.030 A 
ATOM     21  C   UNL     1       2.611   0.942   4.646  0.00  0.00    +0.030 A 
ATOM     22  C   UNL     1       1.794   0.142   5.431  0.00  0.00    +0.067 A 
ATOM     23  C   UNL     1       1.814  -1.244   5.267  0.00  0.00    +0.069 A 
ATOM     24  C   UNL     1       2.646  -1.815   4.316  0.00  0.00    +0.056 A 
ATOM     25  N   UNL     1       0.902  -1.771   6.179  0.00  0.00    -0.306 N 
ATOM     26  H   UNL     1       0.698  -2.711   6.299  0.00  0.00    +0.170 HD
ATOM     27  C   UNL     1       0.353  -0.751   6.866  0.00  0.00    +0.325 A 
ATOM     28  O   UNL     1      -0.483  -0.867   7.742  0.00  0.00    -0.247 OA
ATOM     29  N   UNL     1       0.871   0.415   6.438  0.00  0.00    -0.306 N 
ATOM     30  H   UNL     1       0.641   1.296   6.773  0.00  0.00    +0.170 HD
ENDBRANCH  16  19
ENDBRANCH   9  16
TORSDOF 3
