REMARK  Name = ZINC44828162
REMARK  9 active torsions:
REMARK  status: ('A' for Active; 'I' for Inactive)
REMARK    1  A    between atoms: C_1  and  C_2
REMARK    2  A    between atoms: C_4  and  C_7
REMARK    3  A    between atoms: C_7  and  N_8
REMARK    4  A    between atoms: N_8  and  C_9
REMARK    5  A    between atoms: C_10  and  C_12
REMARK    6  A    between atoms: C_12  and  C_14
REMARK    7  A    between atoms: C_12  and  C_16
REMARK    8  A    between atoms: C_16  and  C_17
REMARK    9  A    between atoms: C_16  and  C_18
REMARK                            x       y       z     vdW  Elec       q    Type
REMARK                         _______ _______ _______ _____ _____    ______ ____
ROOT
ATOM      1  N   UNL     1      -2.557  -3.444   0.573  0.00  0.00    -0.298 N 
ATOM      2  C   UNL     1      -3.720  -2.609   0.265  0.00  0.00    +0.132 C 
ATOM      3  C   UNL     1      -2.580  -4.265   1.642  0.00  0.00    +0.233 C 
ATOM      4  O   UNL     1      -1.585  -4.885   1.952  0.00  0.00    -0.274 OA
ENDROOT
BRANCH   1   5
ATOM      5  C   UNL     1      -1.367  -3.386  -0.280  0.00  0.00    +0.163 C 
BRANCH   5   9
ATOM      6  C   UNL     1       0.246   1.338   0.071  0.00  0.00    +0.073 C 
ATOM      7  C   UNL     1       0.253  -0.143   0.351  0.00  0.00    +0.076 A 
ATOM      8  N   UNL     1      -0.564  -1.060  -0.101  0.00  0.00    -0.248 NA
ATOM      9  C   UNL     1      -0.429  -2.327   0.237  0.00  0.00    +0.066 A 
ATOM     10  C   UNL     1       0.596  -2.634   1.074  0.00  0.00    +0.071 A 
ATOM     11  S   UNL     1       1.318  -1.019   1.316  0.00  0.00    -0.080 S 
ENDBRANCH   5   9
ENDBRANCH   1   5
BRANCH   3  12
ATOM     12  C   UNL     1      -3.843  -4.413   2.451  0.00  0.00    +0.180 C 
BRANCH  12  13
ATOM     13  C   UNL     1      -3.957  -5.852   2.958  0.00  0.00    +0.009 C 
ATOM     14  C   UNL     1      -5.240  -6.002   3.780  0.00  0.00    +0.009 C 
ATOM     15  C   UNL     1      -3.999  -6.811   1.768  0.00  0.00    +0.009 C 
ENDBRANCH  12  13
BRANCH  12  16
ATOM     16  C   UNL     1      -3.803  -3.490   3.596  0.00  0.00    +0.076 C 
ATOM     17  N   UNL     1      -3.772  -2.778   4.481  0.00  0.00    -0.196 NA
ENDBRANCH  12  16
ENDBRANCH   3  12
TORSDOF 5
