REMARK  Name = ZINC11509290
REMARK  9 active torsions:
REMARK  status: ('A' for Active; 'I' for Inactive)
REMARK    1  A    between atoms: C_1  and  C_2
REMARK    2  A    between atoms: C_4  and  C_30
REMARK    3  A    between atoms: C_5  and  N_9
REMARK    4  A    between atoms: C_6  and  C_8
REMARK    5  A    between atoms: C_10  and  C_12
REMARK    6  A    between atoms: C_12  and  C_14
REMARK    7  A    between atoms: C_12  and  S_15
REMARK    8  A    between atoms: S_15  and  C_16
REMARK    9  A    between atoms: C_22  and  C_26
REMARK                            x       y       z     vdW  Elec       q    Type
REMARK                         _______ _______ _______ _____ _____    ______ ____
ROOT
ATOM      1  C   UNL     1       6.554  -1.667  -0.561  0.00  0.00    +0.137 C 
ATOM      2  C   UNL     1       7.548  -0.624  -1.075  0.00  0.00    +0.029 C 
ENDROOT
BRANCH   1   4
ATOM      3  N   UNL     1       7.939  -3.307   0.668  0.00  0.00    -0.284 N 
ATOM      4  C   UNL     1       7.242  -3.003  -0.445  0.00  0.00    +0.230 C 
ATOM      5  O   UNL     1       7.169  -3.804  -1.353  0.00  0.00    -0.274 OA
ATOM      6  H   UNL     1       8.042  -2.647   1.372  0.00  0.00    +0.155 HD
BRANCH   3  11
ATOM      7  C   UNL     1      10.272  -8.447   1.237  0.00  0.00    +0.044 C 
ATOM      8  C   UNL     1       9.652  -7.082   1.085  0.00  0.00    -0.050 A 
ATOM      9  C   UNL     1      10.425  -5.949   1.265  0.00  0.00    +0.008 A 
ATOM     10  C   UNL     1       9.860  -4.697   1.128  0.00  0.00    -0.029 A 
ATOM     11  C   UNL     1       8.514  -4.575   0.808  0.00  0.00    +0.039 A 
ATOM     12  C   UNL     1       7.739  -5.714   0.634  0.00  0.00    -0.029 A 
ATOM     13  C   UNL     1       8.312  -6.964   0.767  0.00  0.00    +0.008 A 
ATOM     14  C   UNL     1       6.277  -5.586   0.293  0.00  0.00    +0.045 C 
ATOM     15  C   UNL     1      10.704  -3.463   1.325  0.00  0.00    +0.045 C 
ENDBRANCH   3  11
ENDBRANCH   1   4
BRANCH   1  16
ATOM     16  S   UNL     1       5.165  -1.801  -1.720  0.00  0.00    -0.073 S 
BRANCH  16  17
ATOM     17  C   UNL     1       4.384  -0.224  -1.635  0.00  0.00    +0.197 A 
ATOM     18  N   UNL     1       4.758   0.790  -0.887  0.00  0.00    -0.122 NA
ATOM     19  N   UNL     1       3.969   1.790  -1.066  0.00  0.00    -0.127 NA
ATOM     20  C   UNL     1       3.038   1.471  -1.945  0.00  0.00    +0.180 A 
ATOM     21  N   UNL     1       3.281   0.170  -2.332  0.00  0.00    -0.276 N 
ATOM     22  C   UNL     1       2.470  -0.444  -3.246  0.00  0.00    +0.107 A 
ATOM     23  C   UNL     1       1.423   0.214  -3.781  0.00  0.00    +0.073 A 
ATOM     24  C   UNL     1       1.148   1.543  -3.407  0.00  0.00    +0.037 A 
ATOM     25  C   UNL     1       1.944   2.169  -2.499  0.00  0.00    +0.086 A 
ATOM     26 CL   UNL     1       1.618   3.807  -2.027  0.00  0.00    -0.080 Cl
BRANCH  23  27
ATOM     27  C   UNL     1       0.540  -0.477  -4.788  0.00  0.00    +0.419 C 
ATOM     28  F   UNL     1      -0.472   0.397  -5.199  0.00  0.00    -0.166 F 
ATOM     29  F   UNL     1       1.305  -0.858  -5.896  0.00  0.00    -0.166 F 
ATOM     30  F   UNL     1      -0.033  -1.612  -4.204  0.00  0.00    -0.166 F 
ENDBRANCH  23  27
ENDBRANCH  16  17
ENDBRANCH   1  16
TORSDOF 5
