REMARK  Name = ZINC14974391
REMARK  8 active torsions:
REMARK  status: ('A' for Active; 'I' for Inactive)
REMARK    1  A    between atoms: C_4  and  C_7
REMARK    2  A    between atoms: C_9  and  C_12
REMARK    3  A    between atoms: C_12  and  C_13
REMARK    4  A    between atoms: C_13  and  N_14
REMARK    5  A    between atoms: C_15  and  C_17
REMARK    6  A    between atoms: C_17  and  C_18
REMARK    7  A    between atoms: C_25  and  C_26
REMARK    8  A    between atoms: C_25  and  N_56
REMARK                            x       y       z     vdW  Elec       q    Type
REMARK                         _______ _______ _______ _____ _____    ______ ____
ROOT
ATOM      1  C   UNL     1      -1.853   6.445  -1.705  0.00  0.00    +0.089 C 
ENDROOT
BRANCH   1   2
ATOM      2  C   UNL     1      -2.030   4.995  -2.161  0.00  0.00    +0.028 C 
ATOM      3  C   UNL     1      -3.017   4.306  -1.262  0.00  0.00    +0.200 C 
ATOM      4  O   UNL     1      -4.022   4.903  -0.938  0.00  0.00    -0.278 OA
ATOM      5  N   UNL     1      -2.834   3.063  -0.805  0.00  0.00    -0.318 N 
ATOM      6  C   UNL     1      -1.643   2.274  -1.106  0.00  0.00    +0.085 C 
ATOM      7  C   UNL     1      -0.918   2.861  -2.318  0.00  0.00    -0.058 C 
ATOM      8  H   UNL     1      -3.523   2.668  -0.248  0.00  0.00    +0.149 HD
ATOM      9  N   UNL     1      -0.728   4.306  -2.082  0.00  0.00    +0.391 N 
ATOM     10  H   UNL     1      -0.332   4.443  -1.145  0.00  0.00    -0.080 HD
BRANCH   9  11
ATOM     11  C   UNL     1       0.204   4.867  -3.086  0.00  0.00    -0.042 C 
BRANCH  11  12
ATOM     12  C   UNL     1      -0.384   4.748  -4.469  0.00  0.00    -0.064 A 
ATOM     13  C   UNL     1      -0.238   3.574  -5.183  0.00  0.00    +0.004 A 
ATOM     14  C   UNL     1      -0.774   3.466  -6.453  0.00  0.00    +0.038 A 
ATOM     15  C   UNL     1      -1.465   4.531  -7.005  0.00  0.00    +0.123 A 
ATOM     16  C   UNL     1      -1.615   5.705  -6.286  0.00  0.00    +0.038 A 
ATOM     17  C   UNL     1      -1.074   5.812  -5.019  0.00  0.00    +0.004 A 
ATOM     18  F   UNL     1      -1.993   4.425  -8.244  0.00  0.00    -0.205 F 
ENDBRANCH  11  12
ENDBRANCH   9  11
ENDBRANCH   1   2
BRANCH   1  20
ATOM     19  N   UNL     1      -0.933   7.642   0.254  0.00  0.00    -0.315 N 
ATOM     20  C   UNL     1      -1.255   6.467  -0.322  0.00  0.00    +0.212 C 
ATOM     21  O   UNL     1      -1.063   5.428   0.273  0.00  0.00    -0.276 OA
ATOM     22  H   UNL     1      -1.086   8.474  -0.221  0.00  0.00    +0.149 HD
BRANCH  19  23
ATOM     23  C   UNL     1      -0.351   7.664   1.599  0.00  0.00    +0.113 C 
BRANCH  23  24
ATOM     24  C   UNL     1      -0.082   9.111   2.014  0.00  0.00    +0.117 C 
BRANCH  24  27
ATOM     25  C   UNL     1       1.852   9.131   5.045  0.00  0.00    +0.202 A 
ATOM     26  N   UNL     1       1.791   9.085   3.695  0.00  0.00    -0.191 NA
ATOM     27  C   UNL     1       0.517   9.134   3.397  0.00  0.00    +0.229 A 
ATOM     28  O   UNL     1      -0.154   9.213   4.551  0.00  0.00    -0.338 OA
ATOM     29  N   UNL     1       0.622   9.204   5.484  0.00  0.00    -0.056 NA
BRANCH  25  33
ATOM     30  C   UNL     1       5.379   9.049   7.419  0.00  0.00    +0.000 A 
ATOM     31  C   UNL     1       4.140   9.130   8.028  0.00  0.00    +0.001 A 
ATOM     32  C   UNL     1       2.992   9.158   7.263  0.00  0.00    +0.012 A 
ATOM     33  C   UNL     1       3.083   9.103   5.873  0.00  0.00    +0.022 A 
ATOM     34  C   UNL     1       4.333   9.015   5.265  0.00  0.00    +0.012 A 
ATOM     35  C   UNL     1       5.475   8.994   6.040  0.00  0.00    +0.001 A 
ENDBRANCH  25  33
ENDBRANCH  24  27
ENDBRANCH  23  24
ENDBRANCH  19  23
ENDBRANCH   1  20
TORSDOF 8
