REMARK  Name = ZINC67037738
REMARK  9 active torsions:
REMARK  status: ('A' for Active; 'I' for Inactive)
REMARK    1  A    between atoms: C_1  and  C_2
REMARK    2  A    between atoms: C_5  and  C_27
REMARK    3  A    between atoms: C_6  and  C_8
REMARK    4  A    between atoms: C_8  and  C_10
REMARK    5  A    between atoms: C_8  and  N_11
REMARK    6  A    between atoms: C_21  and  C_23
REMARK    7  A    between atoms: C_23  and  C_24
REMARK    8  A    between atoms: C_23  and  C_25
REMARK    9  A    between atoms: C_23  and  C_26
REMARK                            x       y       z     vdW  Elec       q    Type
REMARK                         _______ _______ _______ _____ _____    ______ ____
ROOT
ATOM      1  N   UNL     1       1.536  -2.069   3.480  0.00  0.00    -0.293 N 
ATOM      2  C   UNL     1       2.227  -2.531   4.541  0.00  0.00    +0.303 C 
ATOM      3  O   UNL     1       2.538  -3.705   4.599  0.00  0.00    -0.253 OA
ATOM      4  N   UNL     1       2.574  -1.692   5.537  0.00  0.00    -0.284 N 
ATOM      5  C   UNL     1       3.308  -2.144   6.667  0.00  0.00    +0.111 C 
ATOM      6  C   UNL     1       2.436  -2.784   7.796  0.00  0.00    +0.038 C 
ATOM      7  C   UNL     1       1.111  -1.960   7.884  0.00  0.00    +0.109 C 
ATOM      8  N   UNL     1       1.271  -0.560   7.698  0.00  0.00    -0.299 N 
ATOM      9  C   UNL     1       1.028  -0.028   6.333  0.00  0.00    +0.126 C 
ATOM     10  C   UNL     1       2.210  -0.252   5.499  0.00  0.00    +0.128 C 
ATOM     11  C   UNL     1       1.627   0.249   8.716  0.00  0.00    +0.221 C 
ATOM     12  O   UNL     1       1.916  -0.224   9.794  0.00  0.00    -0.275 OA
ATOM     13  H   UNL     1       1.287  -1.133   3.434  0.00  0.00    +0.151 HD
ENDROOT
BRANCH  11  14
ATOM     14  C   UNL     1       1.666   1.742   8.513  0.00  0.00    +0.039 C 
ATOM     15  C   UNL     1       2.127   2.420   9.805  0.00  0.00    +0.020 C 
ATOM     16  C   UNL     1       2.642   2.078   7.384  0.00  0.00    +0.020 C 
ATOM     17  C   UNL     1       0.268   2.243   8.145  0.00  0.00    +0.020 C 
ENDBRANCH  11  14
BRANCH   1  18
ATOM     18  C   UNL     1       1.159  -2.982   2.398  0.00  0.00    +0.102 C 
ATOM     19  C   UNL     1      -0.195  -3.619   2.716  0.00  0.00    +0.033 C 
BRANCH  18  25
ATOM     20  C   UNL     1       0.329   1.307  -0.045  0.00  0.00    +0.044 C 
ATOM     21  C   UNL     1       0.664  -0.163  -0.064  0.00  0.00    -0.050 A 
ATOM     22  C   UNL     1       0.882  -0.806  -1.268  0.00  0.00    +0.003 A 
ATOM     23  C   UNL     1       1.190  -2.154  -1.286  0.00  0.00    +0.004 A 
ATOM     24  C   UNL     1       1.279  -2.858  -0.099  0.00  0.00    -0.046 A 
ATOM     25  C   UNL     1       1.062  -2.214   1.105  0.00  0.00    -0.024 A 
ATOM     26  C   UNL     1       0.759  -0.865   1.122  0.00  0.00    +0.009 A 
ATOM     27  C   UNL     1       1.613  -4.327  -0.118  0.00  0.00    +0.044 C 
ENDBRANCH  18  25
ENDBRANCH   1  18
TORSDOF 3
