REMARK  Name = ZINC09707798
REMARK  7 active torsions:
REMARK  status: ('A' for Active; 'I' for Inactive)
REMARK    1  A    between atoms: C_1  and  C_2
REMARK    2  A    between atoms: C_3  and  N_9
REMARK    3  A    between atoms: C_10  and  C_12
REMARK    4  A    between atoms: C_12  and  S_13
REMARK    5  A    between atoms: S_13  and  C_14
REMARK    6  A    between atoms: C_17  and  C_24
REMARK    7  A    between atoms: N_18  and  N_19
REMARK                            x       y       z     vdW  Elec       q    Type
REMARK                         _______ _______ _______ _____ _____    ______ ____
ROOT
ATOM      1  C   UNL     1      -3.065   0.661   0.992  0.00  0.00    +0.212 A 
ATOM      2  N   UNL     1      -4.295   0.428   0.588  0.00  0.00    -0.120 NA
ATOM      3  N   UNL     1      -4.479   0.937  -0.578  0.00  0.00    -0.125 NA
ATOM      4  C   UNL     1      -3.382   1.530  -0.987  0.00  0.00    +0.202 A 
ATOM      5  N   UNL     1      -2.441   1.366   0.004  0.00  0.00    -0.202 N 
ENDROOT
BRANCH   4   6
ATOM      6  C   UNL     1      -3.192   2.238  -2.270  0.00  0.00    +0.110 A 
ATOM      7  C   UNL     1      -4.248   2.320  -3.179  0.00  0.00    +0.031 A 
ATOM      8  C   UNL     1      -4.054   2.986  -4.375  0.00  0.00    +0.004 A 
ATOM      9  C   UNL     1      -2.810   3.550  -4.627  0.00  0.00    +0.020 A 
ATOM     10  C   UNL     1      -1.808   3.431  -3.683  0.00  0.00    +0.111 A 
ATOM     11  N   UNL     1      -2.018   2.796  -2.547  0.00  0.00    -0.252 NA
ENDBRANCH   4   6
BRANCH   5  12
ATOM     12  N   UNL     1      -1.119   1.832   0.002  0.00  0.00    -0.259 N 
ATOM     13  C   UNL     1      -0.002   1.050   0.002  0.00  0.00    +0.111 A 
ATOM     14  C   UNL     1       1.077   1.858  -0.006  0.00  0.00    +0.021 A 
ATOM     15  C   UNL     1       0.610   3.187  -0.006  0.00  0.00    +0.021 A 
ATOM     16  C   UNL     1      -0.738   3.141   0.002  0.00  0.00    +0.111 A 
ENDBRANCH   5  12
BRANCH   1  17
ATOM     17  S   UNL     1      -2.355   0.157   2.524  0.00  0.00    -0.075 S 
BRANCH  17  18
ATOM     18  C   UNL     1      -3.770  -0.701   3.258  0.00  0.00    +0.173 C 
BRANCH  18  20
ATOM     19  N   UNL     1      -4.286  -1.913   5.352  0.00  0.00    -0.285 N 
ATOM     20  C   UNL     1      -3.385  -1.234   4.614  0.00  0.00    +0.227 C 
ATOM     21  O   UNL     1      -2.265  -1.051   5.043  0.00  0.00    -0.275 OA
ATOM     22  H   UNL     1      -5.204  -1.990   5.046  0.00  0.00    +0.155 HD
BRANCH  19  25
ATOM     23  C   UNL     1      -6.279  -2.353   7.335  0.00  0.00    +0.047 C 
ATOM     24  C   UNL     1      -4.839  -2.739   7.553  0.00  0.00    -0.011 A 
ATOM     25  C   UNL     1      -3.898  -2.506   6.558  0.00  0.00    +0.038 A 
ATOM     26  C   UNL     1      -2.571  -2.858   6.765  0.00  0.00    +0.023 A 
ATOM     27  C   UNL     1      -2.190  -3.444   7.957  0.00  0.00    +0.003 A 
ATOM     28  C   UNL     1      -3.129  -3.680   8.944  0.00  0.00    +0.020 A 
ATOM     29  C   UNL     1      -4.453  -3.331   8.741  0.00  0.00    +0.046 A 
ATOM     30 CL   UNL     1      -5.629  -3.629   9.983  0.00  0.00    -0.083 Cl
ENDBRANCH  19  25
ENDBRANCH  18  20
ENDBRANCH  17  18
ENDBRANCH   1  17
TORSDOF 6
