REMARK  Name = ZINC01137474
REMARK  7 active torsions:
REMARK  status: ('A' for Active; 'I' for Inactive)
REMARK    1  A    between atoms: C_1  and  C_2
REMARK    2  A    between atoms: C_7  and  N_8
REMARK    3  A    between atoms: N_8  and  S_9
REMARK    4  A    between atoms: S_9  and  C_12
REMARK    5  A    between atoms: C_15  and  N_18
REMARK    6  A    between atoms: N_18  and  S_19
REMARK    7  A    between atoms: S_19  and  C_22
REMARK                            x       y       z     vdW  Elec       q    Type
REMARK                         _______ _______ _______ _____ _____    ______ ____
ROOT
ATOM      1  C   UNL     1      -2.173   2.074  -1.789  0.00  0.00    +0.109 A 
ATOM      2  C   UNL     1      -1.732   3.355  -2.067  0.00  0.00    +0.030 A 
ATOM      3  C   UNL     1      -1.827   3.856  -3.350  0.00  0.00    +0.026 A 
ATOM      4  C   UNL     1      -2.377   3.077  -4.360  0.00  0.00    +0.048 A 
ATOM      5  C   UNL     1      -2.825   1.793  -4.076  0.00  0.00    +0.026 A 
ATOM      6  C   UNL     1      -2.721   1.296  -2.792  0.00  0.00    +0.030 A 
ENDROOT
BRANCH   1   7
ATOM      7  S   UNL     1      -2.043   1.435  -0.152  0.00  0.00    +0.072 S 
ATOM      8  O   UNL     1      -3.029   0.419  -0.033  0.00  0.00    -0.150 OA
ATOM      9  O   UNL     1      -1.996   2.557   0.719  0.00  0.00    -0.150 OA
BRANCH   7  10
ATOM     10  N   UNL     1      -0.572   0.683  -0.036  0.00  0.00    -0.216 N 
ATOM     11  H   UNL     1      -0.527  -0.265   0.166  0.00  0.00    +0.174 HD
BRANCH  10  18
ATOM     12  C   UNL     1       1.607  -0.609  -1.329  0.00  0.00    +0.046 C 
ATOM     13  C   UNL     1       1.692   0.820  -0.860  0.00  0.00    -0.028 A 
ATOM     14  C   UNL     1       2.852   1.544  -1.054  0.00  0.00    +0.005 A 
ATOM     15  C   UNL     1       2.930   2.856  -0.625  0.00  0.00    +0.000 A 
ATOM     16  C   UNL     1       1.847   3.448   0.000  0.00  0.00    +0.002 A 
ATOM     17  C   UNL     1       0.683   2.732   0.193  0.00  0.00    +0.025 A 
ATOM     18  C   UNL     1       0.603   1.412  -0.233  0.00  0.00    +0.051 A 
ENDBRANCH  10  18
ENDBRANCH   7  10
ENDBRANCH   1   7
BRANCH   4  19
ATOM     19  N   UNL     1      -2.481   3.584  -5.657  0.00  0.00    -0.216 N 
ATOM     20  H   UNL     1      -2.222   3.035  -6.414  0.00  0.00    +0.174 HD
BRANCH  19  21
ATOM     21  S   UNL     1      -3.044   5.121  -5.903  0.00  0.00    +0.072 S 
ATOM     22  O   UNL     1      -2.311   5.968  -5.029  0.00  0.00    -0.150 OA
ATOM     23  O   UNL     1      -3.075   5.322  -7.310  0.00  0.00    -0.150 OA
BRANCH  21  24
ATOM     24  C   UNL     1      -4.718   5.157  -5.353  0.00  0.00    +0.108 A 
ATOM     25  C   UNL     1      -5.734   4.764  -6.204  0.00  0.00    +0.029 A 
ATOM     26  C   UNL     1      -7.046   4.787  -5.771  0.00  0.00    +0.002 A 
ATOM     27  C   UNL     1      -7.344   5.213  -4.490  0.00  0.00    +0.000 A 
ATOM     28  C   UNL     1      -6.328   5.611  -3.641  0.00  0.00    +0.002 A 
ATOM     29  C   UNL     1      -5.015   5.583  -4.072  0.00  0.00    +0.029 A 
ENDBRANCH  21  24
ENDBRANCH  19  21
ENDBRANCH   4  19
TORSDOF 6
