REMARK  Name = ZINC00924275
REMARK  10 active torsions:
REMARK  status: ('A' for Active; 'I' for Inactive)
REMARK    1  A    between atoms: C_1  and  O_2
REMARK    2  A    between atoms: O_2  and  C_3
REMARK    3  A    between atoms: C_3  and  C_5
REMARK    4  A    between atoms: C_5  and  S_6
REMARK    5  A    between atoms: S_6  and  C_7
REMARK    6  A    between atoms: C_10  and  C_19
REMARK    7  A    between atoms: N_11  and  C_12
REMARK    8  A    between atoms: C_12  and  C_13
REMARK    9  A    between atoms: C_22  and  S_25
REMARK   10  A    between atoms: S_25  and  N_28
REMARK                            x       y       z     vdW  Elec       q    Type
REMARK                         _______ _______ _______ _____ _____    ______ ____
ROOT
ATOM      1  C   UNL     1      -3.787   4.083   6.683  0.00  0.00    +0.192 A 
ATOM      2  N   UNL     1      -4.635   3.134   6.354  0.00  0.00    -0.122 NA
ATOM      3  N   UNL     1      -4.229   2.526   5.297  0.00  0.00    -0.128 NA
ATOM      4  C   UNL     1      -3.093   3.044   4.891  0.00  0.00    +0.165 A 
ATOM      5  N   UNL     1      -2.777   4.059   5.764  0.00  0.00    -0.300 N 
ENDROOT
BRANCH   4   6
ATOM      6  C   UNL     1      -2.306   2.620   3.714  0.00  0.00    +0.019 A 
ATOM      7  C   UNL     1      -2.527   1.369   3.136  0.00  0.00    +0.013 A 
ATOM      8  C   UNL     1      -1.788   0.979   2.038  0.00  0.00    +0.029 A 
ATOM      9  C   UNL     1      -0.829   1.825   1.510  0.00  0.00    +0.106 A 
ATOM     10  C   UNL     1      -0.601   3.064   2.082  0.00  0.00    +0.029 A 
ATOM     11  C   UNL     1      -1.337   3.469   3.176  0.00  0.00    +0.013 A 
BRANCH   9  12
ATOM     12  S   UNL     1       0.111   1.319   0.108  0.00  0.00    +0.061 S 
ATOM     13  O   UNL     1       0.092  -0.102   0.098  0.00  0.00    -0.153 OA
ATOM     14  O   UNL     1       1.320   2.065   0.140  0.00  0.00    -0.153 OA
BRANCH  12  15
ATOM     15  N   UNL     1      -0.715   1.813  -1.239  0.00  0.00    -0.172 NA
ATOM     16  C   UNL     1      -1.711   0.940  -1.880  0.00  0.00    +0.137 C 
ATOM     17  C   UNL     1      -3.005   1.747  -2.072  0.00  0.00    +0.177 C 
ATOM     18  O   UNL     1      -2.700   2.967  -2.752  0.00  0.00    -0.377 OA
ATOM     19  C   UNL     1      -1.822   3.835  -2.031  0.00  0.00    +0.177 C 
ATOM     20  C   UNL     1      -0.471   3.137  -1.835  0.00  0.00    +0.137 C 
ENDBRANCH  12  15
ENDBRANCH   9  12
ENDBRANCH   4   6
BRANCH   1  21
ATOM     21  S   UNL     1      -3.928   5.182   8.053  0.00  0.00    -0.075 S 
BRANCH  21  22
ATOM     22  C   UNL     1      -5.486   4.598   8.766  0.00  0.00    +0.197 C 
BRANCH  22  23
ATOM     23  C   UNL     1      -5.818   5.416   9.987  0.00  0.00    +0.317 C 
ATOM     24  O   UNL     1      -5.077   6.303  10.339  0.00  0.00    -0.250 OA
BRANCH  23  26
ATOM     25  C   UNL     1      -7.192   5.988  11.848  0.00  0.00    +0.280 C 
ATOM     26  O   UNL     1      -6.936   5.160  10.683  0.00  0.00    -0.467 OA
ENDBRANCH  23  26
ENDBRANCH  22  23
ENDBRANCH  21  22
ENDBRANCH   1  21
BRANCH   5  27
ATOM     27  C   UNL     1      -1.602   4.932   5.718  0.00  0.00    +0.157 C 
BRANCH  27  28
ATOM     28  C   UNL     1      -1.966   6.241   5.016  0.00  0.00    +0.138 C 
ATOM     29  C   UNL     1      -0.716   7.147   4.885  0.00  0.00    +0.035 C 
ATOM     30  C   UNL     1      -1.111   8.020   3.662  0.00  0.00    +0.031 C 
ATOM     31  C   UNL     1      -1.927   7.030   2.803  0.00  0.00    +0.160 C 
ATOM     32  O   UNL     1      -2.386   5.983   3.667  0.00  0.00    -0.375 OA
ENDBRANCH  27  28
ENDBRANCH   5  27
TORSDOF 9
