REMARK  Name = ZINC35137539
REMARK  13 active torsions:
REMARK  status: ('A' for Active; 'I' for Inactive)
REMARK    1  A    between atoms: C_1  and  C_2
REMARK    2  A    between atoms: C_2  and  N_3
REMARK    3  A    between atoms: N_3  and  C_4
REMARK    4  A    between atoms: C_4  and  C_5
REMARK    5  A    between atoms: N_7  and  C_8
REMARK    6  A    between atoms: C_10  and  C_19
REMARK    7  A    between atoms: N_12  and  C_13
REMARK    8  A    between atoms: C_19  and  C_20
REMARK    9  A    between atoms: C_19  and  C_21
REMARK   10  A    between atoms: C_19  and  C_22
REMARK   11  A    between atoms: N_25  and  C_26
REMARK   12  A    between atoms: C_30  and  C_33
REMARK   13  A    between atoms: C_31  and  C_32
REMARK                            x       y       z     vdW  Elec       q    Type
REMARK                         _______ _______ _______ _____ _____    ______ ____
ROOT
ATOM      1  C   UNL     1      -1.818  -2.151  -1.706  0.00  0.00    +0.236 C 
ATOM      2  O   UNL     1      -1.117  -2.884  -1.040  0.00  0.00    -0.274 OA
ATOM      3  N   UNL     1      -2.365  -2.601  -2.853  0.00  0.00    -0.269 N 
ATOM      4  H   UNL     1      -2.926  -2.016  -3.385  0.00  0.00    +0.156 HD
ENDROOT
BRANCH   3   5
ATOM      5  C   UNL     1      -2.124  -3.909  -3.274  0.00  0.00    +0.129 A 
ATOM      6  C   UNL     1      -1.367  -4.837  -2.627  0.00  0.00    +0.069 A 
ATOM      7  C   UNL     1      -1.387  -6.011  -3.386  0.00  0.00    +0.071 A 
ATOM      8  N   UNL     1      -2.124  -5.806  -4.447  0.00  0.00    -0.169 NA
ATOM      9  N   UNL     1      -2.609  -4.493  -4.404  0.00  0.00    -0.218 N 
BRANCH   9  10
ATOM     10  C   UNL     1      -3.441  -3.887  -5.355  0.00  0.00    +0.067 A 
ATOM     11  C   UNL     1      -4.398  -2.964  -4.955  0.00  0.00    +0.028 A 
ATOM     12  C   UNL     1      -5.216  -2.369  -5.895  0.00  0.00    +0.002 A 
ATOM     13  C   UNL     1      -5.084  -2.692  -7.233  0.00  0.00    +0.000 A 
ATOM     14  C   UNL     1      -4.133  -3.611  -7.634  0.00  0.00    +0.002 A 
ATOM     15  C   UNL     1      -3.307  -4.205  -6.700  0.00  0.00    +0.028 A 
ENDBRANCH   9  10
BRANCH   7  16
ATOM     16  C   UNL     1      -0.678  -7.295  -3.039  0.00  0.00    +0.006 C 
ATOM     17  C   UNL     1      -1.431  -8.004  -1.912  0.00  0.00    +0.017 C 
ATOM     18  C   UNL     1      -0.633  -8.201  -4.271  0.00  0.00    +0.017 C 
ATOM     19  C   UNL     1       0.749  -6.983  -2.583  0.00  0.00    +0.017 C 
ENDBRANCH   7  16
ENDBRANCH   3   5
BRANCH   1  20
ATOM     20  C   UNL     1      -2.078  -0.738  -1.251  0.00  0.00    +0.205 C 
BRANCH  20  21
ATOM     21  N   UNL     1      -1.377  -0.496   0.013  0.00  0.00    -0.277 N 
ATOM     22  C   UNL     1      -1.994  -0.747   1.184  0.00  0.00    +0.307 C 
ATOM     23  O   UNL     1      -3.132  -1.175   1.192  0.00  0.00    -0.252 OA
ATOM     24  N   UNL     1      -1.350  -0.524   2.347  0.00  0.00    -0.269 N 
ATOM     25  H   UNL     1      -0.416  -0.260   2.341  0.00  0.00    +0.156 HD
BRANCH  24  26
ATOM     26  C   UNL     1      -2.028  -0.672   3.562  0.00  0.00    +0.038 A 
ATOM     27  C   UNL     1      -3.409  -0.536   3.610  0.00  0.00    +0.023 A 
ATOM     28  C   UNL     1      -4.075  -0.683   4.810  0.00  0.00    +0.002 A 
ATOM     29  C   UNL     1      -3.368  -0.965   5.965  0.00  0.00    +0.004 A 
ATOM     30  C   UNL     1      -1.992  -1.101   5.921  0.00  0.00    -0.046 A 
ATOM     31  C   UNL     1      -1.321  -0.961   4.722  0.00  0.00    -0.026 A 
ATOM     32  C   UNL     1       0.177  -1.115   4.674  0.00  0.00    +0.046 C 
ATOM     33  C   UNL     1      -1.226  -1.407   7.182  0.00  0.00    +0.044 C 
ENDBRANCH  24  26
BRANCH  21  35
ATOM     34  C   UNL     1      -0.037   1.550   0.021  0.00  0.00    +0.024 C 
ATOM     35  C   UNL     1      -0.006   0.020   0.003  0.00  0.00    +0.106 C 
ENDBRANCH  21  35
ENDBRANCH  20  21
ENDBRANCH   1  20
TORSDOF 7
