REMARK  Name = ZINC43136336
REMARK  8 active torsions:
REMARK  status: ('A' for Active; 'I' for Inactive)
REMARK    1  A    between atoms: C_1  and  C_2
REMARK    2  A    between atoms: C_6  and  N_9
REMARK    3  A    between atoms: C_7  and  C_8
REMARK    4  A    between atoms: N_12  and  C_13
REMARK    5  A    between atoms: C_13  and  C_14
REMARK    6  A    between atoms: C_14  and  C_15
REMARK    7  A    between atoms: C_18  and  S_21
REMARK    8  A    between atoms: S_21  and  N_24
REMARK                            x       y       z     vdW  Elec       q    Type
REMARK                         _______ _______ _______ _____ _____    ______ ____
ROOT
ATOM      1  N   UNL     1       0.051  -2.797   2.393  0.00  0.00    -0.269 N 
ATOM      2  C   UNL     1      -0.032  -4.143   2.386  0.00  0.00    +0.304 C 
ATOM      3  O   UNL     1      -0.029  -4.746   1.330  0.00  0.00    -0.253 OA
ATOM      4  N   UNL     1      -0.119  -4.819   3.548  0.00  0.00    -0.299 N 
ATOM      5  H   UNL     1       0.131  -2.321   3.234  0.00  0.00    +0.156 HD
ATOM      6  H   UNL     1      -0.121  -4.337   4.390  0.00  0.00    +0.150 HD
ENDROOT
BRANCH   1  12
ATOM      7  C   UNL     1       1.201   1.236  -0.173  0.00  0.00    +0.044 C 
ATOM      8  C   UNL     1       0.572  -0.131  -0.085  0.00  0.00    -0.046 A 
ATOM      9  C   UNL     1      -0.033  -0.686  -1.198  0.00  0.00    +0.004 A 
ATOM     10  C   UNL     1      -0.611  -1.940  -1.121  0.00  0.00    +0.002 A 
ATOM     11  C   UNL     1      -0.585  -2.642   0.068  0.00  0.00    +0.023 A 
ATOM     12  C   UNL     1       0.023  -2.088   1.187  0.00  0.00    +0.038 A 
ATOM     13  C   UNL     1       0.607  -0.831   1.105  0.00  0.00    -0.026 A 
ATOM     14  C   UNL     1       1.273  -0.228   2.315  0.00  0.00    +0.046 C 
ENDBRANCH   1  12
BRANCH   4  15
ATOM     15  C   UNL     1      -0.210  -6.281   3.541  0.00  0.00    +0.110 C 
BRANCH  15  16
ATOM     16  C   UNL     1      -0.297  -6.794   4.979  0.00  0.00    +0.054 C 
BRANCH  16  17
ATOM     17  C   UNL     1      -0.391  -8.298   4.971  0.00  0.00    -0.046 A 
ATOM     18  C   UNL     1      -1.627  -8.914   4.916  0.00  0.00    +0.005 A 
ATOM     19  C   UNL     1      -1.713 -10.293   4.909  0.00  0.00    +0.029 A 
ATOM     20  C   UNL     1      -0.562 -11.057   4.956  0.00  0.00    +0.105 A 
ATOM     21  C   UNL     1       0.675 -10.442   5.011  0.00  0.00    +0.029 A 
ATOM     22  C   UNL     1       0.760  -9.062   5.014  0.00  0.00    +0.005 A 
BRANCH  20  23
ATOM     23  S   UNL     1      -0.671 -12.816   4.948  0.00  0.00    +0.056 S 
ATOM     24  O   UNL     1       0.522 -13.300   5.549  0.00  0.00    -0.153 OA
ATOM     25  O   UNL     1      -1.962 -13.145   5.444  0.00  0.00    -0.153 OA
BRANCH  23  26
ATOM     26  N   UNL     1      -0.634 -13.302   3.365  0.00  0.00    -0.204 NA
ATOM     27  H   UNL     1      -0.563 -12.642   2.657  0.00  0.00    +0.144 HD
ATOM     28  H   UNL     1      -0.683 -14.245   3.146  0.00  0.00    +0.144 HD
ENDBRANCH  23  26
ENDBRANCH  20  23
ENDBRANCH  16  17
ENDBRANCH  15  16
ENDBRANCH   4  15
TORSDOF 6
