REMARK  Name = ZINC31057977
REMARK  10 active torsions:
REMARK  status: ('A' for Active; 'I' for Inactive)
REMARK    1  A    between atoms: C_1  and  C_2
REMARK    2  A    between atoms: C_7  and  C_8
REMARK    3  A    between atoms: C_8  and  C_10
REMARK    4  A    between atoms: C_8  and  N_13
REMARK    5  A    between atoms: C_10  and  C_11
REMARK    6  A    between atoms: C_10  and  C_12
REMARK    7  A    between atoms: C_14  and  C_16
REMARK    8  A    between atoms: N_21  and  C_23
REMARK    9  A    between atoms: C_23  and  C_24
REMARK   10  A    between atoms: C_26  and  C_29
REMARK                            x       y       z     vdW  Elec       q    Type
REMARK                         _______ _______ _______ _____ _____    ______ ____
ROOT
ATOM      1  C   UNL     1       3.669   1.815  -0.696  0.00  0.00    +0.058 C 
ATOM      2  C   UNL     1       3.548   3.155  -1.426  0.00  0.00    +0.009 C 
ATOM      3  C   UNL     1       4.934   3.798  -1.531  0.00  0.00    -0.018 C 
ATOM      4  C   UNL     1       5.880   2.841  -2.259  0.00  0.00    -0.078 C 
ATOM      5  N   UNL     1       5.963   1.575  -1.521  0.00  0.00    +0.386 N 
ATOM      6  C   UNL     1       4.652   0.916  -1.448  0.00  0.00    -0.065 C 
ATOM      7  H   UNL     1       6.279   1.806  -0.493  0.00  0.00    -0.081 HD
ENDROOT
BRANCH   1   9
ATOM      8  N   UNL     1       1.288   1.762  -0.025  0.00  0.00    -0.308 N 
ATOM      9  C   UNL     1       2.318   1.148  -0.641  0.00  0.00    +0.215 C 
ATOM     10  O   UNL     1       2.159   0.059  -1.150  0.00  0.00    -0.276 OA
ATOM     11  H   UNL     1       1.433   2.750   0.436  0.00  0.00    +0.149 HD
BRANCH   8  12
ATOM     12  C   UNL     1      -0.024   1.114   0.028  0.00  0.00    +0.106 C 
BRANCH  12  19
ATOM     13  C   UNL     1       0.592   0.152   2.682  0.00  0.00    +0.044 C 
ATOM     14  C   UNL     1      -0.498   1.174   2.485  0.00  0.00    -0.045 A 
ATOM     15  C   UNL     1      -1.201   1.653   3.575  0.00  0.00    +0.004 A 
ATOM     16  C   UNL     1      -2.204   2.587   3.393  0.00  0.00    +0.000 A 
ATOM     17  C   UNL     1      -2.503   3.043   2.123  0.00  0.00    +0.000 A 
ATOM     18  C   UNL     1      -1.798   2.567   1.034  0.00  0.00    +0.006 A 
ATOM     19  C   UNL     1      -0.793   1.634   1.215  0.00  0.00    -0.024 A 
ENDBRANCH  12  19
BRANCH  12  20
ATOM     20  C   UNL     1      -0.798   1.422  -1.255  0.00  0.00    +0.008 C 
ATOM     21  C   UNL     1       0.036   1.003  -2.467  0.00  0.00    +0.009 C 
ATOM     22  C   UNL     1      -2.118   0.649  -1.253  0.00  0.00    +0.009 C 
ENDBRANCH  12  20
ENDBRANCH   8  12
ENDBRANCH   1   9
BRANCH   5  23
ATOM     23  C   UNL     1       6.968   0.683  -2.114  0.00  0.00    +0.022 C 
BRANCH  23  24
ATOM     24  C   UNL     1       8.338   1.287  -1.944  0.00  0.00    +0.211 A 
ATOM     25  N   UNL     1       9.147   1.106  -0.931  0.00  0.00    -0.192 NA
ATOM     26  C   UNL     1      10.252   1.836  -1.212  0.00  0.00    +0.209 A 
ATOM     27  N   UNL     1      10.045   2.419  -2.367  0.00  0.00    -0.056 NA
ATOM     28  O   UNL     1       8.953   2.113  -2.797  0.00  0.00    -0.340 OA
BRANCH  26  29
ATOM     29  C   UNL     1      11.461   1.958  -0.372  0.00  0.00    +0.060 A 
ATOM     30  C   UNL     1      12.601   2.681  -0.600  0.00  0.00    +0.019 A 
ATOM     31  C   UNL     1      13.609   2.641   0.337  0.00  0.00    +0.008 A 
ATOM     32  C   UNL     1      13.443   1.888   1.456  0.00  0.00    +0.046 A 
ATOM     33  S   UNL     1      11.812   1.206   1.209  0.00  0.00    -0.093 S 
ENDBRANCH  26  29
ENDBRANCH  23  24
ENDBRANCH   5  23
TORSDOF 7
