REMARK  Name = ZINC08779731
REMARK  13 active torsions:
REMARK  status: ('A' for Active; 'I' for Inactive)
REMARK    1  A    between atoms: C_1  and  C_2
REMARK    2  A    between atoms: C_2  and  N_3
REMARK    3  A    between atoms: N_3  and  C_4
REMARK    4  A    between atoms: C_4  and  C_5
REMARK    5  A    between atoms: C_15  and  C_17
REMARK    6  A    between atoms: C_17  and  S_18
REMARK    7  A    between atoms: S_18  and  C_19
REMARK    8  A    between atoms: C_22  and  C_31
REMARK    9  A    between atoms: N_23  and  C_24
REMARK   10  A    between atoms: C_31  and  C_33
REMARK   11  A    between atoms: C_31  and  N_65
REMARK   12  A    between atoms: C_34  and  N_65
REMARK   13  A    between atoms: C_35  and  N_65
REMARK                            x       y       z     vdW  Elec       q    Type
REMARK                         _______ _______ _______ _____ _____    ______ ____
ROOT
ATOM      1  S   UNL     1       3.478  -3.891  -4.071  0.00  0.00    -0.076 S 
ENDROOT
BRANCH   1   2
ATOM      2  C   UNL     1       4.105  -3.914  -5.718  0.00  0.00    +0.197 A 
ATOM      3  N   UNL     1       4.846  -2.990  -6.284  0.00  0.00    -0.122 NA
ATOM      4  N   UNL     1       5.123  -3.330  -7.492  0.00  0.00    -0.135 NA
ATOM      5  C   UNL     1       4.581  -4.482  -7.769  0.00  0.00    +0.125 A 
ATOM      6  N   UNL     1       3.915  -4.899  -6.647  0.00  0.00    -0.275 N 
BRANCH   6   7
ATOM      7  C   UNL     1       3.189  -6.089  -6.485  0.00  0.00    +0.050 A 
ATOM      8  C   UNL     1       3.840  -7.314  -6.538  0.00  0.00    +0.029 A 
ATOM      9  C   UNL     1       3.124  -8.483  -6.372  0.00  0.00    +0.040 A 
ATOM     10  C   UNL     1       1.755  -8.435  -6.166  0.00  0.00    +0.124 A 
ATOM     11  C   UNL     1       1.103  -7.214  -6.119  0.00  0.00    +0.040 A 
ATOM     12  C   UNL     1       1.817  -6.042  -6.278  0.00  0.00    +0.029 A 
ATOM     13  F   UNL     1       1.056  -9.580  -6.010  0.00  0.00    -0.205 F 
ENDBRANCH   6   7
BRANCH   5  14
ATOM     14  C   UNL     1       4.673  -5.221  -9.080  0.00  0.00    -0.003 C 
ATOM     15  C   UNL     1       6.063  -5.845  -9.216  0.00  0.00    -0.005 C 
BRANCH  14  18
ATOM     16  C   UNL     1       4.528  -4.969 -11.483  0.00  0.00    -0.096 C 
ATOM     17  C   UNL     1       3.157  -3.594 -10.038  0.00  0.00    -0.096 C 
ATOM     18  N   UNL     1       4.467  -4.263 -10.187  0.00  0.00    +0.382 N 
ATOM     19  H   UNL     1       5.209  -3.554 -10.157  0.00  0.00    -0.082 HD
ENDBRANCH  14  18
ENDBRANCH   5  14
ENDBRANCH   1   2
BRANCH   1  20
ATOM     20  C   UNL     1       4.150  -2.310  -3.501  0.00  0.00    +0.173 C 
BRANCH  20  22
ATOM     21  N   UNL     1       4.117  -0.949  -1.436  0.00  0.00    -0.297 N 
ATOM     22  C   UNL     1       3.730  -2.072  -2.073  0.00  0.00    +0.226 C 
ATOM     23  O   UNL     1       3.045  -2.890  -1.498  0.00  0.00    -0.275 OA
BRANCH  21  25
ATOM     24  C   UNL     1       6.423  -0.287  -1.911  0.00  0.00    +0.024 C 
ATOM     25  C   UNL     1       4.945   0.040  -2.131  0.00  0.00    +0.105 C 
ENDBRANCH  21  25
BRANCH  21  26
ATOM     26  C   UNL     1       3.709  -0.717  -0.048  0.00  0.00    +0.143 C 
BRANCH  26  27
ATOM     27  C   UNL     1       2.397   0.024  -0.027  0.00  0.00    -0.026 A 
ATOM     28  C   UNL     1       1.207  -0.680  -0.016  0.00  0.00    +0.009 A 
ATOM     29  C   UNL     1       0.002  -0.004   0.002  0.00  0.00    +0.050 A 
ATOM     30  C   UNL     1      -0.017   1.383   0.010  0.00  0.00    +0.162 A 
ATOM     31  C   UNL     1       1.179   2.090   0.002  0.00  0.00    +0.162 A 
ATOM     32  C   UNL     1       2.385   1.406  -0.018  0.00  0.00    +0.054 A 
ATOM     33  O   UNL     1       1.184   3.451   0.018  0.00  0.00    -0.485 OA
ATOM     34  C   UNL     1      -0.040   4.103  -0.340  0.00  0.00    +0.270 C 
ATOM     35  C   UNL     1      -1.189   3.413   0.408  0.00  0.00    +0.270 C 
ATOM     36  O   UNL     1      -1.212   2.035   0.019  0.00  0.00    -0.485 OA
ENDBRANCH  26  27
ENDBRANCH  21  26
ENDBRANCH  20  22
ENDBRANCH   1  20
TORSDOF 9
