REMARK  Name = ZINC05482318
REMARK  6 active torsions:
REMARK  status: ('A' for Active; 'I' for Inactive)
REMARK    1  A    between atoms: C_1  and  C_2
REMARK    2  A    between atoms: C_7  and  C_8
REMARK    3  A    between atoms: C_7  and  C_9
REMARK    4  A    between atoms: C_12  and  S_14
REMARK    5  A    between atoms: S_14  and  C_15
REMARK    6  A    between atoms: C_20  and  N_25
REMARK                            x       y       z     vdW  Elec       q    Type
REMARK                         _______ _______ _______ _____ _____    ______ ____
ROOT
ATOM      1  C   UNL     1      -4.019  -0.685   1.078  0.00  0.00    +0.168 A 
ATOM      2  N   UNL     1      -5.154  -0.377   1.772  0.00  0.00    -0.333 N 
ATOM      3  H   UNL     1      -5.252   0.327   2.433  0.00  0.00    +0.168 HD
ATOM      4  C   UNL     1      -6.141  -1.256   1.357  0.00  0.00    +0.069 A 
ATOM      5  C   UNL     1      -7.474  -1.433   1.693  0.00  0.00    +0.060 A 
ATOM      6  C   UNL     1      -8.210  -2.428   1.083  0.00  0.00    +0.128 A 
ATOM      7  C   UNL     1      -7.625  -3.253   0.134  0.00  0.00    +0.035 A 
ATOM      8  C   UNL     1      -6.302  -3.092  -0.212  0.00  0.00    +0.032 A 
ATOM      9  C   UNL     1      -5.543  -2.089   0.396  0.00  0.00    +0.090 A 
ATOM     10  N   UNL     1      -4.251  -1.688   0.267  0.00  0.00    -0.222 NA
ENDROOT
BRANCH   6  11
ATOM     11  N   UNL     1      -9.633  -2.617   1.444  0.00  0.00    +0.056 N 
ATOM     12  O   UNL     1     -10.147  -1.900   2.271  0.00  0.00    -0.126 OA
ATOM     13  O   UNL     1     -10.282  -3.487   0.912  0.00  0.00    -0.126 OA
ENDBRANCH   6  11
BRANCH   1  14
ATOM     14  S   UNL     1      -2.474   0.146   1.243  0.00  0.00    -0.076 S 
BRANCH  14  25
ATOM     15  C   UNL     1      -0.019   1.526   0.010  0.00  0.00    +0.013 C 
ATOM     16  C   UNL     1       0.002  -0.004   0.002  0.00  0.00    -0.007 C 
ATOM     17  C   UNL     1       0.739  -0.673  -1.199  0.00  0.00    +0.009 C 
ATOM     18  C   UNL     1       1.035  -2.112  -0.717  0.00  0.00    +0.012 C 
ATOM     19  C   UNL     1       0.456  -2.169   0.730  0.00  0.00    +0.063 C 
ATOM     20  C   UNL     1       0.726  -0.699   1.209  0.00  0.00    -0.019 C 
ATOM     21  C   UNL     1       2.224  -0.389   1.238  0.00  0.00    +0.012 C 
ATOM     22  C   UNL     1       0.054  -0.379   2.546  0.00  0.00    +0.012 C 
ATOM     23  C   UNL     1      -1.067  -2.155   0.536  0.00  0.00    +0.151 C 
ATOM     24  O   UNL     1      -1.839  -3.063   0.731  0.00  0.00    -0.296 OA
ATOM     25  C   UNL     1      -1.387  -0.710   0.069  0.00  0.00    +0.127 C 
ENDBRANCH  14  25
ENDBRANCH   1  14
TORSDOF 3
