REMARK  Name = ZINC17397882
REMARK  11 active torsions:
REMARK  status: ('A' for Active; 'I' for Inactive)
REMARK    1  A    between atoms: C_1  and  C_2
REMARK    2  A    between atoms: C_2  and  C_3
REMARK    3  A    between atoms: C_3  and  C_4
REMARK    4  A    between atoms: C_4  and  C_5
REMARK    5  A    between atoms: C_5  and  N_6
REMARK    6  A    between atoms: C_15  and  C_17
REMARK    7  A    between atoms: N_19  and  N_20
REMARK    8  A    between atoms: C_21  and  C_23
REMARK    9  A    between atoms: C_23  and  C_24
REMARK   10  A    between atoms: C_24  and  C_25
REMARK   11  A    between atoms: C_25  and  C_26
REMARK                            x       y       z     vdW  Elec       q    Type
REMARK                         _______ _______ _______ _____ _____    ______ ____
ROOT
ATOM      1  C   UNL     1      -0.280  -1.891   4.497  0.00  0.00    +0.281 C 
ATOM      2  O   UNL     1       0.238  -2.390   5.477  0.00  0.00    -0.267 OA
ATOM      3  N   UNL     1      -1.280  -2.534   3.862  0.00  0.00    -0.229 N 
ATOM      4  H   UNL     1      -1.694  -2.135   3.080  0.00  0.00    +0.173 HD
ENDROOT
BRANCH   1  14
ATOM      5  N   UNL     1      -0.020   1.094   2.454  0.00  0.00    -0.228 N 
ATOM      6  C   UNL     1       0.965   1.859   2.966  0.00  0.00    +0.275 A 
ATOM      7  O   UNL     1       1.256   2.925   2.455  0.00  0.00    -0.266 OA
ATOM      8  C   UNL     1       1.676   1.379   4.160  0.00  0.00    +0.050 A 
ATOM      9  C   UNL     1       2.703   2.095   4.767  0.00  0.00    +0.014 A 
ATOM     10  C   UNL     1       3.323   1.572   5.881  0.00  0.00    +0.001 A 
ATOM     11  C   UNL     1       2.934   0.344   6.400  0.00  0.00    +0.001 A 
ATOM     12  C   UNL     1       1.918  -0.381   5.813  0.00  0.00    +0.011 A 
ATOM     13  C   UNL     1       1.279   0.129   4.688  0.00  0.00    +0.020 A 
ATOM     14  C   UNL     1       0.187  -0.581   4.001  0.00  0.00    +0.155 A 
ATOM     15  N   UNL     1      -0.366  -0.036   2.945  0.00  0.00    -0.163 NA
BRANCH   5  16
ATOM     16  C   UNL     1      -0.729   1.579   1.267  0.00  0.00    +0.147 C 
BRANCH  16  17
ATOM     17  C   UNL     1      -0.013   1.086   0.008  0.00  0.00    +0.023 C 
BRANCH  17  18
ATOM     18  C   UNL     1      -0.753   1.593  -1.232  0.00  0.00    +0.002 C 
BRANCH  18  20
ATOM     19  C   UNL     1      -0.777   1.606  -3.730  0.00  0.00    +0.004 C 
ATOM     20  C   UNL     1      -0.037   1.099  -2.490  0.00  0.00    -0.003 C 
ENDBRANCH  18  20
ENDBRANCH  17  18
ENDBRANCH  16  17
ENDBRANCH   5  16
ENDBRANCH   1  14
BRANCH   3  21
ATOM     21  N   UNL     1      -1.723  -3.777   4.332  0.00  0.00    -0.234 N 
ATOM     22  C   UNL     1      -2.724  -4.419   3.698  0.00  0.00    +0.229 C 
ATOM     23  O   UNL     1      -3.241  -3.921   2.720  0.00  0.00    -0.274 OA
ATOM     24  H   UNL     1      -1.310  -4.175   5.114  0.00  0.00    +0.173 HD
BRANCH  22  25
ATOM     25  C   UNL     1      -3.201  -5.756   4.204  0.00  0.00    +0.098 C 
BRANCH  25  26
ATOM     26  C   UNL     1      -4.335  -6.264   3.311  0.00  0.00    +0.016 C 
BRANCH  26  27
ATOM     27  C   UNL     1      -4.819  -7.622   3.825  0.00  0.00    +0.063 C 
BRANCH  27  28
ATOM     28  C   UNL     1      -5.936  -8.122   2.946  0.00  0.00    +0.080 A 
ATOM     29  N   UNL     1      -5.854  -8.860   1.875  0.00  0.00    -0.244 NA
ATOM     30  C   UNL     1      -6.941  -9.243   1.173  0.00  0.00    +0.078 A 
ATOM     31  C   UNL     1      -7.014 -10.033   0.005  0.00  0.00    +0.029 A 
ATOM     32  C   UNL     1      -8.215 -10.318  -0.568  0.00  0.00    +0.002 A 
ATOM     33  C   UNL     1      -9.406  -9.847  -0.033  0.00  0.00    +0.001 A 
ATOM     34  C   UNL     1      -9.377  -9.070   1.109  0.00  0.00    +0.017 A 
ATOM     35  C   UNL     1      -8.170  -8.778   1.695  0.00  0.00    +0.039 A 
ATOM     36  S   UNL     1      -7.644  -7.860   3.121  0.00  0.00    -0.072 S 
ENDBRANCH  27  28
ENDBRANCH  26  27
ENDBRANCH  25  26
ENDBRANCH  22  25
ENDBRANCH   3  21
TORSDOF 10
