REMARK  Name = ZINC16883315
REMARK  6 active torsions:
REMARK  status: ('A' for Active; 'I' for Inactive)
REMARK    1  A    between atoms: C_4  and  C_7
REMARK    2  A    between atoms: C_9  and  O_36
REMARK    3  A    between atoms: C_10  and  C_25
REMARK    4  A    between atoms: N_13  and  C_14
REMARK    5  A    between atoms: C_14  and  C_15
REMARK    6  A    between atoms: C_25  and  C_26
REMARK                            x       y       z     vdW  Elec       q    Type
REMARK                         _______ _______ _______ _____ _____    ______ ____
ROOT
ATOM      1  C   UNL     1      -2.213   1.607  -1.663  0.00  0.00    +0.147 A 
ATOM      2  N   UNL     1      -2.206   1.987  -2.923  0.00  0.00    -0.195 NA
ATOM      3  C   UNL     1      -2.916   1.332  -3.848  0.00  0.00    +0.223 A 
ATOM      4  C   UNL     1      -3.671   0.231  -3.485  0.00  0.00    +0.083 A 
ATOM      5  C   UNL     1      -3.670  -0.173  -2.142  0.00  0.00    +0.262 A 
ATOM      6  O   UNL     1      -4.324  -1.140  -1.784  0.00  0.00    -0.267 OA
ATOM      7  N   UNL     1      -2.934   0.527  -1.252  0.00  0.00    -0.288 N 
ENDROOT
BRANCH   1  11
ATOM      8  C   UNL     1       0.072   3.786   1.177  0.00  0.00    +0.000 A 
ATOM      9  C   UNL     1       0.652   3.388  -0.014  0.00  0.00    +0.001 A 
ATOM     10  C   UNL     1      -0.084   2.680  -0.941  0.00  0.00    +0.011 A 
ATOM     11  C   UNL     1      -1.418   2.365  -0.675  0.00  0.00    +0.018 A 
ATOM     12  C   UNL     1      -1.999   2.774   0.527  0.00  0.00    +0.011 A 
ATOM     13  C   UNL     1      -1.249   3.476   1.448  0.00  0.00    +0.001 A 
ENDBRANCH   1  11
BRANCH   3  14
ATOM     14  O   UNL     1      -2.897   1.747  -5.136  0.00  0.00    -0.492 OA
ATOM     15  H   UNL     1      -2.341   2.523  -5.292  0.00  0.00    +0.294 HD
ENDBRANCH   3  14
BRANCH   7  16
ATOM     16  C   UNL     1      -2.916   0.127   0.157  0.00  0.00    +0.162 C 
BRANCH  16  17
ATOM     17  C   UNL     1      -2.322  -1.252   0.281  0.00  0.00    -0.020 A 
ATOM     18  C   UNL     1      -3.133  -2.341   0.379  0.00  0.00    +0.006 A 
ATOM     19  C   UNL     1      -2.602  -3.623   0.494  0.00  0.00    +0.001 A 
ATOM     20  C   UNL     1      -1.256  -3.826   0.512  0.00  0.00    +0.008 A 
ATOM     21  C   UNL     1      -0.387  -2.726   0.413  0.00  0.00    -0.018 A 
ATOM     22  C   UNL     1      -0.927  -1.421   0.296  0.00  0.00    -0.013 A 
ATOM     23  C   UNL     1      -0.057  -0.322   0.196  0.00  0.00    +0.009 A 
ATOM     24  C   UNL     1       1.288  -0.524   0.214  0.00  0.00    +0.001 A 
ATOM     25  C   UNL     1       1.820  -1.808   0.329  0.00  0.00    +0.001 A 
ATOM     26  C   UNL     1       1.008  -2.896   0.428  0.00  0.00    +0.008 A 
ENDBRANCH  16  17
ENDBRANCH   7  16
BRANCH   4  27
ATOM     27  C   UNL     1      -4.478  -0.519  -4.513  0.00  0.00    +0.081 C 
BRANCH  27  28
ATOM     28  C   UNL     1      -3.676  -1.688  -5.026  0.00  0.00    -0.035 A 
ATOM     29  C   UNL     1      -2.381  -1.851  -4.639  0.00  0.00    +0.004 A 
ATOM     30  C   UNL     1      -1.624  -2.925  -5.102  0.00  0.00    +0.001 A 
ATOM     31  C   UNL     1      -2.158  -3.842  -5.956  0.00  0.00    +0.008 A 
ATOM     32  C   UNL     1      -3.491  -3.707  -6.377  0.00  0.00    -0.018 A 
ATOM     33  C   UNL     1      -4.263  -2.617  -5.901  0.00  0.00    -0.014 A 
ATOM     34  C   UNL     1      -5.595  -2.478  -6.327  0.00  0.00    +0.009 A 
ATOM     35  C   UNL     1      -6.128  -3.395  -7.179  0.00  0.00    +0.001 A 
ATOM     36  C   UNL     1      -5.371  -4.469  -7.644  0.00  0.00    +0.001 A 
ATOM     37  C   UNL     1      -4.077  -4.633  -7.257  0.00  0.00    +0.008 A 
ENDBRANCH  27  28
ENDBRANCH   4  27
TORSDOF 6
