REMARK  Name = ZINC23506666
REMARK  4 active torsions:
REMARK  status: ('A' for Active; 'I' for Inactive)
REMARK    1  A    between atoms: C_5  and  C_7
REMARK    2  A    between atoms: C_9  and  C_13
REMARK    3  A    between atoms: C_19  and  C_21
REMARK    4  A    between atoms: C_24  and  C_26
REMARK                            x       y       z     vdW  Elec       q    Type
REMARK                         _______ _______ _______ _____ _____    ______ ____
ROOT
ATOM      1  C   UNL     1      -0.125  -5.556  -0.037  0.00  0.00    +0.265 C 
ATOM      2  O   UNL     1      -1.340  -5.528   0.008  0.00  0.00    -0.268 OA
ATOM      3  N   UNL     1       0.518  -6.736  -0.149  0.00  0.00    -0.289 N 
ATOM      4  C   UNL     1       1.980  -6.919  -0.165  0.00  0.00    +0.109 C 
ATOM      5  C   UNL     1       2.204  -8.260  -0.908  0.00  0.00    +0.021 C 
ATOM      6  C   UNL     1       1.002  -9.101  -0.402  0.00  0.00    +0.029 C 
ATOM      7  C   UNL     1      -0.124  -8.053  -0.270  0.00  0.00    +0.113 C 
ENDROOT
BRANCH   1  10
ATOM      8  C   UNL     1       1.257  -2.174   0.094  0.00  0.00    +0.096 A 
ATOM      9  C   UNL     1       0.137  -3.018  -0.004  0.00  0.00    +0.062 A 
ATOM     10  C   UNL     1       0.644  -4.303   0.033  0.00  0.00    +0.121 A 
ATOM     11  N   UNL     1       2.000  -4.181   0.147  0.00  0.00    -0.272 N 
ATOM     12  H   UNL     1       2.624  -4.921   0.196  0.00  0.00    +0.189 HD
ATOM     13  N   UNL     1       2.326  -2.939   0.175  0.00  0.00    -0.173 NA
BRANCH   8  18
ATOM     14  C   UNL     1       0.018   1.375   0.009  0.00  0.00    +0.001 A 
ATOM     15  C   UNL     1       1.205   2.080   0.106  0.00  0.00    +0.003 A 
ATOM     16  C   UNL     1       2.409   1.408   0.200  0.00  0.00    +0.039 A 
ATOM     17  C   UNL     1       2.433   0.025   0.197  0.00  0.00    +0.133 A 
ATOM     18  C   UNL     1       1.239  -0.690   0.099  0.00  0.00    +0.037 A 
ATOM     19  C   UNL     1       0.030  -0.005   0.005  0.00  0.00    +0.013 A 
ATOM     20  F   UNL     1       3.610  -0.632   0.287  0.00  0.00    -0.205 F 
ENDBRANCH   8  18
ENDBRANCH   1  10
BRANCH   7  21
ATOM     21  C   UNL     1      -0.950  -8.336   0.958  0.00  0.00    +0.011 A 
ATOM     22  C   UNL     1      -2.155  -8.953   1.028  0.00  0.00    +0.014 A 
ATOM     23  C   UNL     1      -2.751  -9.118   2.256  0.00  0.00    +0.021 A 
ATOM     24  C   UNL     1      -2.043  -8.622   3.340  0.00  0.00    +0.074 A 
ATOM     25  S   UNL     1      -0.584  -7.965   2.555  0.00  0.00    -0.087 S 
BRANCH  24  26
ATOM     26  C   UNL     1      -2.400  -8.639   4.762  0.00  0.00    +0.248 C 
ATOM     27  O   UNL     1      -3.449  -9.141   5.120  0.00  0.00    -0.270 OA
ATOM     28  N   UNL     1      -1.566  -8.098   5.672  0.00  0.00    -0.325 N 
ATOM     29  H   UNL     1      -0.730  -7.698   5.387  0.00  0.00    +0.145 HD
ATOM     30  H   UNL     1      -1.802  -8.110   6.613  0.00  0.00    +0.145 HD
ENDBRANCH  24  26
ENDBRANCH   7  21
TORSDOF 4
