REMARK  Name = ZINC27685787
REMARK  8 active torsions:
REMARK  status: ('A' for Active; 'I' for Inactive)
REMARK    1  A    between atoms: C_2  and  C_3
REMARK    2  A    between atoms: C_3  and  N_4
REMARK    3  A    between atoms: C_6  and  C_14
REMARK    4  A    between atoms: C_14  and  C_15
REMARK    5  A    between atoms: C_15  and  C_16
REMARK    6  A    between atoms: C_16  and  N_17
REMARK    7  A    between atoms: C_18  and  C_20
REMARK    8  A    between atoms: C_20  and  C_25
REMARK                            x       y       z     vdW  Elec       q    Type
REMARK                         _______ _______ _______ _____ _____    ______ ____
ROOT
ATOM      1  C   UNL     1      -0.686   6.938   0.478  0.00  0.00    +0.104 C 
ENDROOT
BRANCH   1   2
ATOM      2  N   UNL     1       0.024   8.196   0.720  0.00  0.00    -0.315 N 
ATOM      3  C   UNL     1      -0.421   9.339   0.163  0.00  0.00    +0.224 C 
ATOM      4  O   UNL     1      -1.355   9.313  -0.611  0.00  0.00    -0.275 OA
ATOM      5  H   UNL     1       0.921   8.208   1.357  0.00  0.00    +0.149 HD
BRANCH   3   6
ATOM      6  C   UNL     1       0.241  10.650   0.500  0.00  0.00    +0.072 C 
ATOM      7  C   UNL     1       0.244  10.862   2.024  0.00  0.00    +0.021 C 
ATOM      8  C   UNL     1      -0.558  12.154   2.290  0.00  0.00    +0.001 C 
ATOM      9  C   UNL     1      -1.476  12.293   1.050  0.00  0.00    +0.001 C 
ATOM     10  C   UNL     1      -0.562  11.819  -0.107  0.00  0.00    +0.021 C 
BRANCH   6  11
ATOM     11  C   UNL     1       1.653  10.666  -0.027  0.00  0.00    -0.032 A 
ATOM     12  C   UNL     1       2.491  11.724   0.272  0.00  0.00    +0.004 A 
ATOM     13  C   UNL     1       3.787  11.735  -0.207  0.00  0.00    +0.000 A 
ATOM     14  C   UNL     1       4.243  10.694  -0.993  0.00  0.00    +0.000 A 
ATOM     15  C   UNL     1       3.404   9.638  -1.296  0.00  0.00    +0.000 A 
ATOM     16  C   UNL     1       2.108   9.624  -0.813  0.00  0.00    +0.004 A 
ENDBRANCH   6  11
ENDBRANCH   3   6
ENDBRANCH   1   2
BRANCH   1  17
ATOM     17  C   UNL     1       0.021   5.802   1.221  0.00  0.00    +0.019 C 
BRANCH  17  18
ATOM     18  C   UNL     1      -0.721   4.488   0.969  0.00  0.00    +0.011 C 
BRANCH  18  21
ATOM     19  N   UNL     1      -0.016   1.454   0.306  0.00  0.00    -0.325 N 
ATOM     20  C   UNL     1      -0.738   2.008   1.473  0.00  0.00    +0.113 C 
ATOM     21  C   UNL     1      -0.014   3.353   1.711  0.00  0.00    +0.038 C 
ATOM     22  C   UNL     1       1.362   3.102   1.125  0.00  0.00    -0.022 A 
ATOM     23  C   UNL     1       1.284   1.972   0.319  0.00  0.00    +0.033 A 
ATOM     24  C   UNL     1       2.432   1.525  -0.333  0.00  0.00    +0.023 A 
ATOM     25  C   UNL     1       3.625   2.203  -0.181  0.00  0.00    +0.002 A 
ATOM     26  C   UNL     1       3.690   3.328   0.619  0.00  0.00    +0.000 A 
ATOM     27  C   UNL     1       2.555   3.776   1.272  0.00  0.00    +0.006 A 
BRANCH  19  28
ATOM     28  C   UNL     1       0.002  -0.015   0.347  0.00  0.00    +0.131 C 
BRANCH  28  30
ATOM     29  C   UNL     1      -0.270  -1.295   2.409  0.00  0.00    +0.005 C 
ATOM     30  C   UNL     1       0.469  -0.473   1.705  0.00  0.00    -0.016 C 
ENDBRANCH  28  30
ENDBRANCH  19  28
ENDBRANCH  18  21
ENDBRANCH  17  18
ENDBRANCH   1  17
TORSDOF 8
