REMARK  Name = ZINC08659312
REMARK  7 active torsions:
REMARK  status: ('A' for Active; 'I' for Inactive)
REMARK    1  A    between atoms: C_6  and  C_7
REMARK    2  A    between atoms: C_10  and  S_13
REMARK    3  A    between atoms: N_11  and  N_12
REMARK    4  A    between atoms: S_13  and  C_14
REMARK    5  A    between atoms: C_14  and  C_15
REMARK    6  A    between atoms: N_17  and  C_18
REMARK    7  A    between atoms: C_23  and  N_24
REMARK                            x       y       z     vdW  Elec       q    Type
REMARK                         _______ _______ _______ _____ _____    ______ ____
ROOT
ATOM      1  C   UNL     1       1.193   2.289   0.305  0.00  0.00    +0.173 C 
ENDROOT
BRANCH   1   2
ATOM      2  C   UNL     1      -0.095   1.517   0.173  0.00  0.00    +0.228 C 
ATOM      3  O   UNL     1      -0.067   0.319  -0.014  0.00  0.00    -0.275 OA
ATOM      4  N   UNL     1      -1.277   2.159   0.259  0.00  0.00    -0.283 N 
ATOM      5  H   UNL     1      -1.300   3.106   0.470  0.00  0.00    +0.155 HD
BRANCH   4   6
ATOM      6  C   UNL     1      -2.470   1.460   0.043  0.00  0.00    +0.061 A 
ATOM      7  C   UNL     1      -2.543   0.104   0.328  0.00  0.00    +0.045 A 
ATOM      8  C   UNL     1      -3.724  -0.584   0.119  0.00  0.00    +0.043 A 
ATOM      9  C   UNL     1      -4.833   0.075  -0.385  0.00  0.00    +0.022 A 
ATOM     10  C   UNL     1      -4.766   1.424  -0.676  0.00  0.00    +0.031 A 
ATOM     11  C   UNL     1      -3.587   2.123  -0.464  0.00  0.00    +0.088 A 
ATOM     12 CL   UNL     1      -3.815  -2.279   0.481  0.00  0.00    -0.083 Cl
BRANCH  11  13
ATOM     13  N   UNL     1      -3.518   3.492  -0.759  0.00  0.00    -0.218 N 
ATOM     14  C   UNL     1      -4.534   4.288  -1.144  0.00  0.00    +0.225 A 
ATOM     15  N   UNL     1      -4.060   5.495  -1.317  0.00  0.00    -0.222 NA
ATOM     16  C   UNL     1      -2.752   5.509  -1.064  0.00  0.00    +0.245 A 
ATOM     17  N   UNL     1      -2.373   4.306  -0.718  0.00  0.00    -0.153 NA
ENDBRANCH  11  13
ENDBRANCH   4   6
ENDBRANCH   1   2
BRANCH   1  18
ATOM     18  S   UNL     1       2.595   1.156   0.138  0.00  0.00    -0.075 S 
BRANCH  18  22
ATOM     19  C   UNL     1       5.918   3.183   0.482  0.00  0.00    +0.182 A 
ATOM     20  N   UNL     1       4.999   4.111   0.620  0.00  0.00    -0.127 NA
ATOM     21  N   UNL     1       3.829   3.587   0.523  0.00  0.00    -0.121 NA
ATOM     22  C   UNL     1       3.929   2.291   0.327  0.00  0.00    +0.209 A 
ATOM     23  N   UNL     1       5.261   1.990   0.290  0.00  0.00    -0.224 N 
BRANCH  19  29
ATOM     24  C   UNL     1       7.912   4.563   1.051  0.00  0.00    +0.013 A 
ATOM     25  C   UNL     1       9.279   4.742   1.093  0.00  0.00    +0.021 A 
ATOM     26  C   UNL     1      10.124   3.760   0.604  0.00  0.00    +0.041 A 
ATOM     27  C   UNL     1       9.604   2.590   0.076  0.00  0.00    +0.021 A 
ATOM     28  C   UNL     1       8.239   2.397   0.034  0.00  0.00    +0.013 A 
ATOM     29  C   UNL     1       7.382   3.384   0.525  0.00  0.00    +0.021 A 
ATOM     30 CL   UNL     1      11.844   3.996   0.653  0.00  0.00    -0.084 Cl
ENDBRANCH  19  29
BRANCH  23  31
ATOM     31  N   UNL     1       5.824   0.759   0.103  0.00  0.00    -0.295 N 
ATOM     32  H   UNL     1       6.064   0.615  -0.867  0.00  0.00    +0.163 HD
ATOM     33  H   UNL     1       6.629   0.635   0.697  0.00  0.00    +0.163 HD
ENDBRANCH  23  31
ENDBRANCH  18  22
ENDBRANCH   1  18
TORSDOF 7
