REMARK  Name = ZINC39596389
REMARK  9 active torsions:
REMARK  status: ('A' for Active; 'I' for Inactive)
REMARK    1  A    between atoms: C_1  and  C_2
REMARK    2  A    between atoms: C_2  and  C_4
REMARK    3  A    between atoms: C_2  and  O_34
REMARK    4  A    between atoms: C_4  and  N_5
REMARK    5  A    between atoms: C_6  and  C_8
REMARK    6  A    between atoms: C_19  and  C_21
REMARK    7  A    between atoms: C_24  and  O_27
REMARK    8  A    between atoms: O_27  and  C_28
REMARK    9  A    between atoms: O_34  and  C_35
REMARK                            x       y       z     vdW  Elec       q    Type
REMARK                         _______ _______ _______ _____ _____    ______ ____
ROOT
ATOM      1  C   UNL     1       0.911  -4.198  -2.572  0.00  0.00    +0.100 C 
ATOM      2  C   UNL     1      -0.532  -4.644  -2.896  0.00  0.00    +0.121 C 
ATOM      3  N   UNL     1      -0.547  -4.825  -4.367  0.00  0.00    -0.296 N 
ATOM      4  C   UNL     1       0.765  -5.443  -4.675  0.00  0.00    +0.115 C 
ATOM      5  C   UNL     1       1.760  -4.727  -3.740  0.00  0.00    -0.004 C 
ATOM      6  C   UNL     1       2.431  -3.569  -4.472  0.00  0.00    -0.010 C 
ATOM      7  C   UNL     1       3.314  -4.123  -5.594  0.00  0.00    -0.082 C 
ATOM      8  N   UNL     1       4.326  -5.021  -5.024  0.00  0.00    +0.379 N 
ATOM      9  C   UNL     1       3.675  -6.180  -4.401  0.00  0.00    -0.082 C 
ATOM     10  C   UNL     1       2.807  -5.712  -3.230  0.00  0.00    -0.010 C 
ATOM     11  C   UNL     1      -1.531  -4.501  -5.229  0.00  0.00    +0.248 C 
ATOM     12  O   UNL     1      -2.509  -3.896  -4.835  0.00  0.00    -0.270 OA
ATOM     13  H   UNL     1       4.944  -5.337  -5.756  0.00  0.00    -0.086 HD
ATOM     14  H   UNL     1       4.861  -4.523  -4.327  0.00  0.00    -0.086 HD
ENDROOT
BRANCH  11  15
ATOM     15  C   UNL     1      -1.420  -4.879  -6.652  0.00  0.00    +0.055 A 
ATOM     16  C   UNL     1      -0.622  -5.966  -7.039  0.00  0.00    +0.020 A 
ATOM     17  C   UNL     1      -0.550  -6.281  -8.380  0.00  0.00    +0.068 A 
ATOM     18  C   UNL     1      -1.265  -5.517  -9.298  0.00  0.00    +0.220 A 
ATOM     19  N   UNL     1      -2.009  -4.496  -8.900  0.00  0.00    -0.220 NA
ATOM     20  C   UNL     1      -2.111  -4.165  -7.630  0.00  0.00    +0.127 A 
BRANCH  18  21
ATOM     21  O   UNL     1      -1.198  -5.822 -10.616  0.00  0.00    -0.438 OA
BRANCH  21  22
ATOM     22  C   UNL     1      -1.823  -4.995 -11.495  0.00  0.00    +0.130 A 
ATOM     23  C   UNL     1      -1.263  -3.765 -11.810  0.00  0.00    +0.046 A 
ATOM     24  C   UNL     1      -1.901  -2.926 -12.703  0.00  0.00    +0.004 A 
ATOM     25  C   UNL     1      -3.095  -3.310 -13.283  0.00  0.00    +0.000 A 
ATOM     26  C   UNL     1      -3.656  -4.535 -12.970  0.00  0.00    +0.004 A 
ATOM     27  C   UNL     1      -3.019  -5.381 -12.082  0.00  0.00    +0.046 A 
ENDBRANCH  21  22
ENDBRANCH  18  21
ENDBRANCH  11  15
BRANCH   1  29
ATOM     28  N   UNL     1       2.009  -2.105  -1.843  0.00  0.00    -0.312 N 
ATOM     29  C   UNL     1       0.993  -2.695  -2.502  0.00  0.00    +0.218 C 
ATOM     30  O   UNL     1       0.143  -2.016  -3.039  0.00  0.00    -0.275 OA
ATOM     31  H   UNL     1       2.689  -2.648  -1.414  0.00  0.00    +0.149 HD
BRANCH  28  32
ATOM     32  C   UNL     1       2.089  -0.644  -1.775  0.00  0.00    +0.148 C 
BRANCH  32  34
ATOM     33  C   UNL     1       3.344   1.283  -0.799  0.00  0.00    +0.053 C 
ATOM     34  C   UNL     1       3.328  -0.237  -0.976  0.00  0.00    +0.187 C 
BRANCH  34  35
ATOM     35  O   UNL     1       4.503  -0.647  -1.678  0.00  0.00    -0.488 OA
BRANCH  35  36
ATOM     36  C   UNL     1       5.626  -0.845  -0.938  0.00  0.00    +0.121 A 
ATOM     37  C   UNL     1       5.572  -0.751   0.445  0.00  0.00    +0.048 A 
ATOM     38  C   UNL     1       6.714  -0.952   1.196  0.00  0.00    +0.042 A 
ATOM     39  C   UNL     1       7.913  -1.247   0.569  0.00  0.00    +0.124 A 
ATOM     40  C   UNL     1       7.968  -1.341  -0.811  0.00  0.00    +0.042 A 
ATOM     41  C   UNL     1       6.827  -1.147  -1.564  0.00  0.00    +0.048 A 
ATOM     42  F   UNL     1       9.029  -1.443   1.304  0.00  0.00    -0.205 F 
ENDBRANCH  35  36
ENDBRANCH  34  35
ENDBRANCH  32  34
ENDBRANCH  28  32
ENDBRANCH   1  29
TORSDOF 8
