REMARK  Name = ZINC04590128
REMARK  12 active torsions:
REMARK  status: ('A' for Active; 'I' for Inactive)
REMARK    1  A    between atoms: C_1  and  C_2
REMARK    2  A    between atoms: C_2  and  C_4
REMARK    3  A    between atoms: C_2  and  N_7
REMARK    4  A    between atoms: C_4  and  C_5
REMARK    5  A    between atoms: C_4  and  C_6
REMARK    6  A    between atoms: N_7  and  C_8
REMARK    7  A    between atoms: C_8  and  C_9
REMARK    8  A    between atoms: N_13  and  C_14
REMARK    9  A    between atoms: C_14  and  C_15
REMARK   10  A    between atoms: C_22  and  C_24
REMARK   11  A    between atoms: C_24  and  C_25
REMARK   12  A    between atoms: C_24  and  C_26
REMARK                            x       y       z     vdW  Elec       q    Type
REMARK                         _______ _______ _______ _____ _____    ______ ____
ROOT
ATOM      1  C   UNL     1      -2.828  -0.897  -3.102  0.00  0.00    +0.036 A 
ATOM      2  C   UNL     1      -3.435  -1.941  -2.501  0.00  0.00    +0.024 A 
ATOM      3  C   UNL     1      -4.449  -2.395  -3.367  0.00  0.00    +0.019 A 
ATOM      4  C   UNL     1      -4.424  -1.610  -4.464  0.00  0.00    +0.086 A 
ATOM      5  N   UNL     1      -3.435  -0.686  -4.304  0.00  0.00    -0.345 N 
ENDROOT
BRANCH   1   6
ATOM      6  C   UNL     1      -1.682  -0.098  -2.538  0.00  0.00    +0.161 C 
BRANCH   6   7
ATOM      7  N   UNL     1      -1.521  -0.409  -1.116  0.00  0.00    -0.292 N 
ATOM      8  C   UNL     1      -2.290   0.211  -0.199  0.00  0.00    +0.219 C 
ATOM      9  O   UNL     1      -3.154   0.984  -0.555  0.00  0.00    -0.275 OA
BRANCH   8  10
ATOM     10  C   UNL     1      -2.077  -0.057   1.268  0.00  0.00    +0.069 C 
ATOM     11  C   UNL     1      -1.016   0.902   1.813  0.00  0.00    +0.017 C 
ATOM     12  C   UNL     1      -3.392   0.157   2.022  0.00  0.00    +0.017 C 
ENDBRANCH   8  10
BRANCH   7  14
ATOM     13  C   UNL     1      -1.165  -2.785  -0.658  0.00  0.00    +0.028 C 
ATOM     14  C   UNL     1      -0.525  -1.396  -0.690  0.00  0.00    +0.076 C 
BRANCH  14  15
ATOM     15  C   UNL     1       0.646  -1.395  -1.674  0.00  0.00    +0.003 C 
ATOM     16  C   UNL     1       0.230  -2.108  -2.962  0.00  0.00    +0.009 C 
ATOM     17  C   UNL     1       1.042   0.047  -1.995  0.00  0.00    +0.009 C 
ENDBRANCH  14  15
ENDBRANCH   7  14
ENDBRANCH   6   7
ENDBRANCH   1   6
BRANCH   5  18
ATOM     18  C   UNL     1      -3.081   0.360  -5.267  0.00  0.00    +0.156 C 
BRANCH  18  19
ATOM     19  C   UNL     1      -1.961  -0.129  -6.149  0.00  0.00    -0.026 A 
ATOM     20  C   UNL     1      -0.647   0.018  -5.744  0.00  0.00    +0.005 A 
ATOM     21  C   UNL     1       0.380  -0.430  -6.553  0.00  0.00    +0.002 A 
ATOM     22  C   UNL     1       0.095  -1.024  -7.768  0.00  0.00    +0.020 A 
ATOM     23  C   UNL     1      -1.219  -1.172  -8.174  0.00  0.00    +0.041 A 
ATOM     24  C   UNL     1      -2.248  -0.729  -7.361  0.00  0.00    +0.025 A 
ATOM     25 CL   UNL     1      -1.578  -1.918  -9.699  0.00  0.00    -0.084 Cl
ENDBRANCH  18  19
ENDBRANCH   5  18
TORSDOF 7
