REMARK  Name = ZINC39726040
REMARK  9 active torsions:
REMARK  status: ('A' for Active; 'I' for Inactive)
REMARK    1  A    between atoms: C_1  and  C_2
REMARK    2  A    between atoms: C_5  and  O_37
REMARK    3  A    between atoms: C_6  and  N_8
REMARK    4  A    between atoms: C_9  and  S_23
REMARK    5  A    between atoms: S_23  and  C_24
REMARK    6  A    between atoms: C_24  and  C_25
REMARK    7  A    between atoms: N_27  and  C_28
REMARK    8  A    between atoms: C_31  and  C_34
REMARK    9  A    between atoms: O_37  and  C_38
REMARK                            x       y       z     vdW  Elec       q    Type
REMARK                         _______ _______ _______ _____ _____    ______ ____
ROOT
ATOM      1  N   UNL     1       0.180  -2.563   2.243  0.00  0.00    -0.231 N 
ATOM      2  C   UNL     1       1.303  -3.206   2.931  0.00  0.00    +0.259 C 
ATOM      3  N   UNL     1       1.068  -4.015   4.130  0.00  0.00    -0.248 NA
ATOM      4  C   UNL     1      -0.125  -4.172   4.594  0.00  0.00    +0.101 C 
ATOM      5  C   UNL     1      -0.713  -4.897   5.745  0.00  0.00    +0.028 A 
ATOM      6  C   UNL     1      -0.194  -5.683   6.757  0.00  0.00    +0.012 A 
ATOM      7  C   UNL     1      -1.042  -6.231   7.708  0.00  0.00    +0.001 A 
ATOM      8  C   UNL     1      -2.404  -5.994   7.646  0.00  0.00    +0.002 A 
ATOM      9  C   UNL     1      -2.938  -5.211   6.641  0.00  0.00    +0.028 A 
ATOM     10  C   UNL     1      -2.101  -4.648   5.671  0.00  0.00    +0.074 A 
ATOM     11  N   UNL     1      -2.364  -3.858   4.600  0.00  0.00    -0.240 NA
ATOM     12  C   UNL     1      -1.294  -3.537   3.926  0.00  0.00    +0.152 C 
ATOM     13  C   UNL     1      -1.074  -2.713   2.720  0.00  0.00    +0.274 C 
ATOM     14  O   UNL     1      -2.012  -2.180   2.160  0.00  0.00    -0.268 OA
ENDROOT
BRANCH   1  20
ATOM     15  C   UNL     1       0.743  -2.289  -2.633  0.00  0.00    +0.044 C 
ATOM     16  C   UNL     1       0.687  -1.631  -1.278  0.00  0.00    -0.048 A 
ATOM     17  C   UNL     1       0.860  -0.264  -1.168  0.00  0.00    +0.007 A 
ATOM     18  C   UNL     1       0.810   0.346   0.072  0.00  0.00    +0.048 A 
ATOM     19  C   UNL     1       0.584  -0.413   1.209  0.00  0.00    +0.141 A 
ATOM     20  C   UNL     1       0.408  -1.791   1.098  0.00  0.00    +0.081 A 
ATOM     21  C   UNL     1       0.456  -2.395  -0.150  0.00  0.00    +0.030 A 
BRANCH  19  22
ATOM     22  O   UNL     1       0.534   0.185   2.429  0.00  0.00    -0.493 OA
ATOM     23  C   UNL     1       0.723   1.601   2.465  0.00  0.00    +0.277 C 
ENDBRANCH  19  22
ENDBRANCH   1  20
BRANCH   2  24
ATOM     24  S   UNL     1       2.139  -4.268   1.721  0.00  0.00    -0.106 S 
BRANCH  24  25
ATOM     25  C   UNL     1       0.912  -5.550   1.341  0.00  0.00    +0.168 C 
BRANCH  25  26
ATOM     26  C   UNL     1       1.515  -6.557   0.396  0.00  0.00    +0.227 C 
ATOM     27  O   UNL     1       2.658  -6.423   0.015  0.00  0.00    -0.275 OA
ATOM     28  N   UNL     1       0.782  -7.606  -0.028  0.00  0.00    -0.285 N 
ATOM     29  H   UNL     1      -0.108  -7.752   0.329  0.00  0.00    +0.155 HD
BRANCH  28  30
ATOM     30  C   UNL     1       1.304  -8.483  -0.978  0.00  0.00    +0.033 A 
ATOM     31  C   UNL     1       2.661  -8.789  -0.969  0.00  0.00    +0.024 A 
ATOM     32  C   UNL     1       3.180  -9.654  -1.906  0.00  0.00    +0.015 A 
ATOM     33  C   UNL     1       2.341 -10.225  -2.867  0.00  0.00    +0.037 A 
ATOM     34  C   UNL     1       0.979  -9.915  -2.873  0.00  0.00    +0.015 A 
ATOM     35  C   UNL     1       0.466  -9.053  -1.931  0.00  0.00    +0.024 A 
BRANCH  33  36
ATOM     36  C   UNL     1       2.894 -11.152  -3.874  0.00  0.00    +0.242 C 
ATOM     37  O   UNL     1       4.080 -11.420  -3.868  0.00  0.00    -0.270 OA
ATOM     38  N   UNL     1       2.084 -11.702  -4.800  0.00  0.00    -0.325 N 
ATOM     39  H   UNL     1       1.138 -11.488  -4.805  0.00  0.00    +0.145 HD
ATOM     40  H   UNL     1       2.447 -12.311  -5.462  0.00  0.00    +0.145 HD
ENDBRANCH  33  36
ENDBRANCH  28  30
ENDBRANCH  25  26
ENDBRANCH  24  25
ENDBRANCH   2  24
TORSDOF 7
