REMARK  Name = ZINC01898749
REMARK  12 active torsions:
REMARK  status: ('A' for Active; 'I' for Inactive)
REMARK    1  A    between atoms: C_1  and  C_2
REMARK    2  A    between atoms: C_2  and  C_3
REMARK    3  A    between atoms: C_2  and  C_4
REMARK    4  A    between atoms: C_2  and  C_5
REMARK    5  A    between atoms: C_8  and  C_11
REMARK    6  A    between atoms: C_14  and  S_22
REMARK    7  A    between atoms: N_15  and  C_16
REMARK    8  A    between atoms: S_22  and  C_23
REMARK    9  A    between atoms: C_23  and  C_24
REMARK   10  A    between atoms: N_26  and  N_27
REMARK   11  A    between atoms: N_27  and  C_28
REMARK   12  A    between atoms: C_28  and  C_30
REMARK                            x       y       z     vdW  Elec       q    Type
REMARK                         _______ _______ _______ _____ _____    ______ ____
ROOT
ATOM      1  C   UNL     1       2.696  -1.860  -4.732  0.00  0.00    +0.169 A 
ATOM      2  N   UNL     1       2.293  -2.818  -5.534  0.00  0.00    -0.128 NA
ATOM      3  N   UNL     1       3.134  -2.972  -6.493  0.00  0.00    -0.122 NA
ATOM      4  C   UNL     1       4.128  -2.121  -6.364  0.00  0.00    +0.197 A 
ATOM      5  N   UNL     1       3.882  -1.379  -5.242  0.00  0.00    -0.270 N 
ENDROOT
BRANCH   1   9
ATOM      6  C   UNL     1       0.707  -0.490  -1.238  0.00  0.00    -0.042 A 
ATOM      7  C   UNL     1       0.033  -1.285  -2.147  0.00  0.00    +0.005 A 
ATOM      8  C   UNL     1       0.672  -1.733  -3.284  0.00  0.00    +0.012 A 
ATOM      9  C   UNL     1       2.003  -1.383  -3.517  0.00  0.00    +0.020 A 
ATOM     10  C   UNL     1       2.678  -0.580  -2.595  0.00  0.00    +0.012 A 
ATOM     11  C   UNL     1       2.025  -0.135  -1.464  0.00  0.00    +0.005 A 
BRANCH   6  13
ATOM     12  C   UNL     1      -0.019   1.526   0.010  0.00  0.00    +0.015 C 
ATOM     13  C   UNL     1       0.002  -0.004   0.002  0.00  0.00    -0.013 C 
ATOM     14  C   UNL     1       0.742  -0.511   1.242  0.00  0.00    +0.015 C 
ATOM     15  C   UNL     1      -1.433  -0.534   0.013  0.00  0.00    +0.015 C 
ENDBRANCH   6  13
ENDBRANCH   1   9
BRANCH   5  16
ATOM     16  C   UNL     1       4.673  -0.347  -4.718  0.00  0.00    +0.051 A 
ATOM     17  C   UNL     1       4.181   0.951  -4.670  0.00  0.00    +0.026 A 
ATOM     18  C   UNL     1       4.963   1.965  -4.153  0.00  0.00    +0.002 A 
ATOM     19  C   UNL     1       6.234   1.690  -3.684  0.00  0.00    +0.000 A 
ATOM     20  C   UNL     1       6.727   0.399  -3.730  0.00  0.00    +0.002 A 
ATOM     21  C   UNL     1       5.947  -0.621  -4.240  0.00  0.00    +0.026 A 
ENDBRANCH   5  16
BRANCH   4  22
ATOM     22  S   UNL     1       5.514  -1.962  -7.440  0.00  0.00    -0.076 S 
BRANCH  22  23
ATOM     23  C   UNL     1       5.228  -3.220  -8.714  0.00  0.00    +0.174 C 
BRANCH  23  24
ATOM     24  C   UNL     1       6.357  -3.191  -9.712  0.00  0.00    +0.239 C 
ATOM     25  O   UNL     1       7.265  -2.399  -9.577  0.00  0.00    -0.273 OA
ATOM     26  N   UNL     1       6.357  -4.045 -10.755  0.00  0.00    -0.236 N 
ATOM     27  H   UNL     1       5.630  -4.678 -10.863  0.00  0.00    +0.173 HD
BRANCH  26  28
ATOM     28  N   UNL     1       7.406  -4.018 -11.683  0.00  0.00    -0.264 N 
ATOM     29  H   UNL     1       8.133  -3.384 -11.575  0.00  0.00    +0.170 HD
BRANCH  28  30
ATOM     30  C   UNL     1       7.406  -4.902 -12.762  0.00  0.00    +0.044 C 
ATOM     31  C   UNL     1       6.407  -5.772 -12.911  0.00  0.00    +0.035 C 
BRANCH  30  32
ATOM     32  C   UNL     1       8.515  -4.873 -13.743  0.00  0.00    -0.003 A 
ATOM     33  C   UNL     1       9.568  -3.957 -13.577  0.00  0.00    +0.010 A 
ATOM     34  C   UNL     1      10.597  -3.910 -14.463  0.00  0.00    +0.009 A 
ATOM     35  C   UNL     1      10.618  -4.787 -15.563  0.00  0.00    -0.018 A 
ATOM     36  C   UNL     1      11.671  -4.758 -16.492  0.00  0.00    +0.008 A 
ATOM     37  C   UNL     1      11.664  -5.619 -17.547  0.00  0.00    +0.001 A 
ATOM     38  C   UNL     1      10.625  -6.532 -17.721  0.00  0.00    +0.001 A 
ATOM     39  C   UNL     1       9.588  -6.589 -16.842  0.00  0.00    +0.008 A 
ATOM     40  C   UNL     1       9.561  -5.715 -15.740  0.00  0.00    -0.017 A 
ATOM     41  C   UNL     1       8.510  -5.751 -14.811  0.00  0.00    +0.018 A 
ENDBRANCH  30  32
ENDBRANCH  28  30
ENDBRANCH  26  28
ENDBRANCH  23  24
ENDBRANCH  22  23
ENDBRANCH   4  22
TORSDOF 9
