REMARK  Name = ZINC03335556
REMARK  13 active torsions:
REMARK  status: ('A' for Active; 'I' for Inactive)
REMARK    1  A    between atoms: C_1  and  C_2
REMARK    2  A    between atoms: C_2  and  C_3
REMARK    3  A    between atoms: C_3  and  C_4
REMARK    4  A    between atoms: C_4  and  N_5
REMARK    5  A    between atoms: N_5  and  C_6
REMARK    6  A    between atoms: C_7  and  N_29
REMARK    7  A    between atoms: N_8  and  C_26
REMARK    8  A    between atoms: N_11  and  C_14
REMARK    9  A    between atoms: C_14  and  C_15
REMARK   10  A    between atoms: N_17  and  C_18
REMARK   11  A    between atoms: C_26  and  C_27
REMARK   12  A    between atoms: C_27  and  C_28
REMARK   13  A    between atoms: C_30  and  C_32
REMARK                            x       y       z     vdW  Elec       q    Type
REMARK                         _______ _______ _______ _____ _____    ______ ____
ROOT
ATOM      1  C   UNL     1      -3.494  -2.791  -0.938  0.00  0.00    +0.140 A 
ATOM      2  C   UNL     1      -4.824  -3.139  -1.055  0.00  0.00    +0.127 A 
ATOM      3  N   UNL     1      -5.352  -3.363  -2.305  0.00  0.00    -0.280 N 
ATOM      4  C   UNL     1      -4.581  -3.244  -3.401  0.00  0.00    +0.334 A 
ATOM      5  O   UNL     1      -5.067  -3.446  -4.497  0.00  0.00    -0.246 OA
ATOM      6  N   UNL     1      -3.283  -2.905  -3.306  0.00  0.00    -0.250 N 
ATOM      7  C   UNL     1      -2.718  -2.670  -2.106  0.00  0.00    +0.280 A 
ATOM      8  O   UNL     1      -1.542  -2.358  -2.031  0.00  0.00    -0.265 OA
ENDROOT
BRANCH   1   9
ATOM      9  N   UNL     1      -2.923  -2.555   0.331  0.00  0.00    -0.264 N 
ATOM     10  C   UNL     1      -2.481  -1.322   0.653  0.00  0.00    +0.217 C 
ATOM     11  O   UNL     1      -2.666  -0.394  -0.106  0.00  0.00    -0.276 OA
ATOM     12  C   UNL     1      -1.759  -1.097   1.956  0.00  0.00    +0.109 C 
BRANCH   9  13
ATOM     13  C   UNL     1      -2.810  -3.650   1.298  0.00  0.00    +0.114 C 
BRANCH  13  14
ATOM     14  C   UNL     1      -1.520  -4.431   1.036  0.00  0.00    +0.019 C 
BRANCH  14  16
ATOM     15  C   UNL     1      -0.113  -6.354   1.784  0.00  0.00    +0.004 C 
ATOM     16  C   UNL     1      -1.402  -5.574   2.046  0.00  0.00    -0.002 C 
ENDBRANCH  14  16
ENDBRANCH  13  14
ENDBRANCH   9  13
ENDBRANCH   1   9
BRANCH   2  17
ATOM     17  N   UNL     1      -5.612  -3.262   0.065  0.00  0.00    -0.343 N 
ATOM     18  H   UNL     1      -5.218  -3.175   0.947  0.00  0.00    +0.144 HD
ATOM     19  H   UNL     1      -6.562  -3.436  -0.027  0.00  0.00    +0.144 HD
ENDBRANCH   2  17
BRANCH   6  20
ATOM     20  C   UNL     1      -2.476  -2.785  -4.522  0.00  0.00    +0.226 C 
BRANCH  20  21
ATOM     21  C   UNL     1      -2.550  -1.370  -5.037  0.00  0.00    +0.237 C 
ATOM     22  O   UNL     1      -3.212  -0.544  -4.446  0.00  0.00    -0.274 OA
ATOM     23  N   UNL     1      -1.880  -1.024  -6.154  0.00  0.00    -0.284 N 
ATOM     24  H   UNL     1      -1.415  -1.700  -6.670  0.00  0.00    +0.155 HD
BRANCH  23  25
ATOM     25  C   UNL     1      -1.857   0.312  -6.570  0.00  0.00    +0.036 A 
ATOM     26  C   UNL     1      -1.860   0.620  -7.924  0.00  0.00    +0.043 A 
ATOM     27  C   UNL     1      -1.838   1.940  -8.332  0.00  0.00    +0.044 A 
ATOM     28  C   UNL     1      -1.813   2.956  -7.392  0.00  0.00    +0.040 A 
ATOM     29  C   UNL     1      -1.809   2.652  -6.042  0.00  0.00    +0.044 A 
ATOM     30  C   UNL     1      -1.837   1.333  -5.629  0.00  0.00    +0.043 A 
ATOM     31 CL   UNL     1      -1.777   3.929  -4.866  0.00  0.00    -0.083 Cl
ATOM     32 CL   UNL     1      -1.841   2.325 -10.024  0.00  0.00    -0.083 Cl
ENDBRANCH  23  25
ENDBRANCH  20  21
ENDBRANCH   6  20
BRANCH   3  33
ATOM     33  C   UNL     1      -6.763  -3.733  -2.444  0.00  0.00    +0.128 C 
BRANCH  33  34
ATOM     34  C   UNL     1      -7.610  -2.468  -2.591  0.00  0.00    +0.018 C 
ATOM     35  C   UNL     1      -9.084  -2.855  -2.736  0.00  0.00    +0.005 C 
ENDBRANCH  33  34
ENDBRANCH   3  33
TORSDOF 10
