REMARK  Name = ZINC28568417
REMARK  4 active torsions:
REMARK  status: ('A' for Active; 'I' for Inactive)
REMARK    1  A    between atoms: C_1  and  C_2
REMARK    2  A    between atoms: C_10  and  O_31
REMARK    3  A    between atoms: C_21  and  C_22
REMARK    4  A    between atoms: C_28  and  O_30
REMARK                            x       y       z     vdW  Elec       q    Type
REMARK                         _______ _______ _______ _____ _____    ______ ____
ROOT
ATOM      1  C   UNL     1       6.323   2.840   1.174  0.00  0.00    +0.014 C 
ATOM      2  C   UNL     1       5.944   2.472  -0.262  0.00  0.00    +0.001 C 
ATOM      3  C   UNL     1       7.189   2.382  -1.122  0.00  0.00    +0.010 C 
ATOM      4  C   UNL     1       7.939   3.717  -0.976  0.00  0.00    +0.009 C 
ATOM      5  C   UNL     1       7.061   4.900  -1.367  0.00  0.00    +0.023 C 
ATOM      6  C   UNL     1       6.809   4.886  -2.851  0.00  0.00    -0.041 A 
ATOM      7  C   UNL     1       7.852   4.490  -3.679  0.00  0.00    +0.008 A 
ATOM      8  C   UNL     1       7.689   4.457  -5.048  0.00  0.00    +0.046 A 
ATOM      9  C   UNL     1       6.472   4.823  -5.604  0.00  0.00    +0.117 A 
ATOM     10  C   UNL     1       5.433   5.217  -4.779  0.00  0.00    +0.049 A 
ATOM     11  C   UNL     1       5.600   5.247  -3.401  0.00  0.00    -0.040 A 
ATOM     12  C   UNL     1       4.425   5.681  -2.564  0.00  0.00    +0.036 C 
ATOM     13  C   UNL     1       4.877   6.056  -1.154  0.00  0.00    +0.009 C 
ATOM     14  C   UNL     1       5.732   4.910  -0.601  0.00  0.00    +0.001 C 
ATOM     15  C   UNL     1       5.046   3.583  -0.872  0.00  0.00    +0.005 C 
ATOM     16  C   UNL     1       3.727   3.342  -0.138  0.00  0.00    +0.037 C 
ATOM     17  C   UNL     1       3.610   1.817  -0.122  0.00  0.00    -0.040 C 
ATOM     18  C   UNL     1       2.491   1.113  -0.015  0.00  0.00    +0.010 C 
ATOM     19  C   UNL     1       5.023   1.258  -0.259  0.00  0.00    +0.147 C 
ENDROOT
BRANCH  18  20
ATOM     20  C   UNL     1       1.216   1.795   0.291  0.00  0.00    -0.022 A 
ATOM     21  C   UNL     1       1.190   3.152   0.633  0.00  0.00    +0.027 A 
ATOM     22  C   UNL     1      -0.022   3.748   0.916  0.00  0.00    +0.111 A 
ATOM     23  N   UNL     1      -1.145   3.058   0.858  0.00  0.00    -0.263 NA
ATOM     24  C   UNL     1      -1.165   1.778   0.540  0.00  0.00    +0.111 A 
ATOM     25  C   UNL     1       0.001   1.102   0.248  0.00  0.00    +0.027 A 
ENDBRANCH  18  20
BRANCH  19  26
ATOM     26  O   UNL     1       5.327   0.407   0.848  0.00  0.00    -0.387 OA
ATOM     27  H   UNL     1       4.755  -0.520   1.003  0.00  0.00    +0.210 HD
ENDBRANCH  19  26
BRANCH   9  28
ATOM     28  O   UNL     1       6.301   4.795  -6.952  0.00  0.00    -0.507 OA
ATOM     29  H   UNL     1       5.335   5.086  -7.390  0.00  0.00    +0.292 HD
ENDBRANCH   9  28
TORSDOF 3
