REMARK  Name = ZINC10698255
REMARK  12 active torsions:
REMARK  status: ('A' for Active; 'I' for Inactive)
REMARK    1  A    between atoms: C_1  and  C_2
REMARK    2  A    between atoms: C_2  and  O_3
REMARK    3  A    between atoms: O_3  and  C_4
REMARK    4  A    between atoms: N_13  and  C_14
REMARK    5  A    between atoms: C_14  and  C_15
REMARK    6  A    between atoms: C_15  and  N_58
REMARK    7  A    between atoms: C_16  and  N_58
REMARK    8  A    between atoms: C_17  and  N_58
REMARK    9  A    between atoms: C_18  and  C_20
REMARK   10  A    between atoms: C_20  and  C_21
REMARK   11  A    between atoms: C_23  and  C_28
REMARK   12  A    between atoms: C_26  and  C_27
REMARK                            x       y       z     vdW  Elec       q    Type
REMARK                         _______ _______ _______ _____ _____    ______ ____
ROOT
ATOM      1  C   UNL     1      -5.289  -3.431   0.036  0.00  0.00    +0.122 A 
ATOM      2  C   UNL     1      -4.245  -4.351   0.021  0.00  0.00    +0.048 A 
ATOM      3  C   UNL     1      -2.936  -3.946   0.011  0.00  0.00    +0.032 A 
ATOM      4  C   UNL     1      -2.603  -2.572   0.014  0.00  0.00    +0.081 A 
ATOM      5  C   UNL     1      -3.687  -1.665   0.030  0.00  0.00    +0.044 A 
ATOM      6  C   UNL     1      -4.997  -2.075   0.041  0.00  0.00    +0.063 A 
ATOM      7  S   UNL     1      -2.864  -0.091   0.036  0.00  0.00    -0.052 S 
ATOM      8  C   UNL     1      -1.189  -0.713   0.010  0.00  0.00    +0.168 A 
ATOM      9  N   UNL     1      -1.373  -2.012   0.005  0.00  0.00    -0.224 NA
ATOM     10  N   UNL     1       0.002  -0.004   0.002  0.00  0.00    -0.252 N 
ATOM     11  C   UNL     1      -0.016   1.344   0.009  0.00  0.00    +0.225 C 
ATOM     12  O   UNL     1      -1.075   1.936   0.018  0.00  0.00    -0.275 OA
ENDROOT
BRANCH   1  13
ATOM     13  O   UNL     1      -6.581  -3.857   0.048  0.00  0.00    -0.492 OA
BRANCH  13  15
ATOM     14  C   UNL     1      -8.302  -5.554   0.057  0.00  0.00    +0.048 C 
ATOM     15  C   UNL     1      -6.798  -5.269   0.043  0.00  0.00    +0.225 C 
ENDBRANCH  13  15
ENDBRANCH   1  13
BRANCH  10  16
ATOM     16  C   UNL     1       1.281  -0.719  -0.014  0.00  0.00    +0.097 C 
BRANCH  16  17
ATOM     17  C   UNL     1       1.739  -0.976   1.423  0.00  0.00    -0.060 C 
BRANCH  17  20
ATOM     18  C   UNL     1       3.610  -1.749   2.752  0.00  0.00    -0.097 C 
ATOM     19  C   UNL     1       2.864  -3.041   0.844  0.00  0.00    -0.097 C 
ATOM     20  N   UNL     1       3.039  -1.678   1.390  0.00  0.00    +0.377 N 
ATOM     21  H   UNL     1       3.685  -1.157   0.784  0.00  0.00    -0.083 HD
ENDBRANCH  17  20
ENDBRANCH  16  17
ENDBRANCH  10  16
BRANCH  11  22
ATOM     22  C   UNL     1       1.278   2.115   0.001  0.00  0.00    +0.131 C 
BRANCH  22  23
ATOM     23  C   UNL     1       0.983   3.592   0.012  0.00  0.00    -0.035 A 
ATOM     24  C   UNL     1       0.939   4.297  -1.177  0.00  0.00    +0.007 A 
ATOM     25  C   UNL     1       0.667   5.652  -1.167  0.00  0.00    -0.050 A 
ATOM     26  C   UNL     1       0.440   6.303   0.032  0.00  0.00    +0.003 A 
ATOM     27  C   UNL     1       0.485   5.599   1.220  0.00  0.00    +0.004 A 
ATOM     28  C   UNL     1       0.751   4.242   1.210  0.00  0.00    -0.047 A 
ATOM     29  C   UNL     1       0.794   3.473   2.505  0.00  0.00    +0.044 C 
ATOM     30  C   UNL     1       0.618   6.420  -2.462  0.00  0.00    +0.044 C 
ENDBRANCH  22  23
ENDBRANCH  11  22
TORSDOF 7
