REMARK  Name = ZINC47999238
REMARK  8 active torsions:
REMARK  status: ('A' for Active; 'I' for Inactive)
REMARK    1  A    between atoms: C_1  and  C_2
REMARK    2  A    between atoms: C_5  and  C_26
REMARK    3  A    between atoms: N_8  and  C_10
REMARK    4  A    between atoms: C_10  and  C_11
REMARK    5  A    between atoms: C_11  and  N_12
REMARK    6  A    between atoms: C_13  and  C_15
REMARK    7  A    between atoms: N_17  and  C_18
REMARK    8  A    between atoms: C_19  and  C_23
REMARK                            x       y       z     vdW  Elec       q    Type
REMARK                         _______ _______ _______ _____ _____    ______ ____
ROOT
ATOM      1  N   UNL     1       2.819  -0.203   4.893  0.00  0.00    -0.309 N 
ATOM      2  C   UNL     1       2.398   0.248   6.091  0.00  0.00    +0.299 C 
ATOM      3  O   UNL     1       1.452   1.006   6.155  0.00  0.00    -0.265 OA
ATOM      4  H   UNL     1       3.575  -0.809   4.842  0.00  0.00    +0.149 HD
ENDROOT
BRANCH   2   5
ATOM      5  C   UNL     1       3.094  -0.184   7.339  0.00  0.00    +0.304 C 
ATOM      6  O   UNL     1       4.040  -0.942   7.274  0.00  0.00    -0.265 OA
ATOM      7  N   UNL     1       2.673   0.267   8.537  0.00  0.00    -0.272 N 
ATOM      8  H   UNL     1       1.917   0.873   8.588  0.00  0.00    +0.156 HD
BRANCH   7   9
ATOM      9  C   UNL     1       3.318  -0.134   9.693  0.00  0.00    +0.084 A 
ATOM     10  C   UNL     1       3.022   0.222  11.002  0.00  0.00    +0.065 A 
ATOM     11  C   UNL     1       3.863  -0.345  12.031  0.00  0.00    +0.022 A 
ATOM     12  C   UNL     1       4.846  -1.160  11.603  0.00  0.00    +0.048 A 
ATOM     13  S   UNL     1       4.633  -1.166   9.836  0.00  0.00    -0.081 S 
BRANCH  10  14
ATOM     14  C   UNL     1       1.914   1.126  11.324  0.00  0.00    +0.244 C 
ATOM     15  O   UNL     1       1.225   1.586  10.432  0.00  0.00    -0.270 OA
ATOM     16  N   UNL     1       1.657   1.447  12.608  0.00  0.00    -0.325 N 
ATOM     17  H   UNL     1       2.206   1.081  13.319  0.00  0.00    +0.145 HD
ATOM     18  H   UNL     1       0.924   2.046  12.821  0.00  0.00    +0.145 HD
ENDBRANCH  10  14
ENDBRANCH   7   9
ENDBRANCH   2   5
BRANCH   1  19
ATOM     19  C   UNL     1       2.136   0.221   3.668  0.00  0.00    +0.086 C 
BRANCH  19  20
ATOM     20  C   UNL     1       2.808  -0.431   2.458  0.00  0.00    -0.060 C 
BRANCH  20  26
ATOM     21  C   UNL     1      -0.019   1.526   0.010  0.00  0.00    +0.005 C 
ATOM     22  C   UNL     1       0.002  -0.004   0.002  0.00  0.00    -0.031 C 
ATOM     23  C   UNL     1       0.721  -0.499  -1.257  0.00  0.00    +0.003 C 
ATOM     24  C   UNL     1       2.177  -0.027  -1.220  0.00  0.00    -0.031 C 
ATOM     25  C   UNL     1       2.839  -0.534   0.063  0.00  0.00    -0.076 C 
ATOM     26  N   UNL     1       2.123  -0.005   1.230  0.00  0.00    +0.381 N 
ATOM     27  C   UNL     1       0.744  -0.512   1.240  0.00  0.00    -0.076 C 
ATOM     28  C   UNL     1       2.924  -0.581  -2.434  0.00  0.00    +0.005 C 
ATOM     29  H   UNL     1       2.109   1.003   1.187  0.00  0.00    -0.082 HD
ENDBRANCH  20  26
ENDBRANCH  19  20
ENDBRANCH   1  19
TORSDOF 6
