REMARK  Name = ZINC12640850
REMARK  11 active torsions:
REMARK  status: ('A' for Active; 'I' for Inactive)
REMARK    1  A    between atoms: C_1  and  C_2
REMARK    2  A    between atoms: C_2  and  C_3
REMARK    3  A    between atoms: C_2  and  C_4
REMARK    4  A    between atoms: N_6  and  N_7
REMARK    5  A    between atoms: C_8  and  C_10
REMARK    6  A    between atoms: C_10  and  S_11
REMARK    7  A    between atoms: S_11  and  C_12
REMARK    8  A    between atoms: C_25  and  C_29
REMARK    9  A    between atoms: C_29  and  C_30
REMARK   10  A    between atoms: C_29  and  C_31
REMARK   11  A    between atoms: C_29  and  C_32
REMARK                            x       y       z     vdW  Elec       q    Type
REMARK                         _______ _______ _______ _____ _____    ______ ____
ROOT
ATOM      1  C   UNL     1       5.779   0.467  -0.049  0.00  0.00    +0.198 A 
ATOM      2  N   UNL     1       5.769   1.780  -0.044  0.00  0.00    -0.122 NA
ATOM      3  N   UNL     1       4.558   2.219  -0.032  0.00  0.00    -0.128 NA
ATOM      4  C   UNL     1       3.725   1.208  -0.028  0.00  0.00    +0.173 A 
ATOM      5  N   UNL     1       4.476   0.053  -0.039  0.00  0.00    -0.260 N 
ATOM      6  C   UNL     1       3.869  -1.169  -0.039  0.00  0.00    +0.208 A 
ATOM      7  N   UNL     1       2.571  -1.283  -0.028  0.00  0.00    -0.230 NA
ATOM      8  C   UNL     1       1.764  -0.226  -0.016  0.00  0.00    +0.114 A 
ATOM      9  C   UNL     1       2.250   1.090  -0.014  0.00  0.00    +0.056 A 
ATOM     10  C   UNL     1       1.283   2.127   0.001  0.00  0.00    -0.024 A 
ATOM     11  C   UNL     1      -0.022   1.769   0.012  0.00  0.00    -0.004 A 
ATOM     12  S   UNL     1       0.002  -0.004   0.002  0.00  0.00    -0.073 S 
ATOM     13  C   UNL     1      -1.215   2.673   0.023  0.00  0.00    +0.046 C 
ATOM     14  C   UNL     1      -0.753   4.091  -0.339  0.00  0.00    -0.000 C 
ATOM     15  C   UNL     1       0.489   4.431   0.489  0.00  0.00    +0.009 C 
ATOM     16  C   UNL     1       1.680   3.602   0.007  0.00  0.00    +0.037 C 
ENDROOT
BRANCH  14  17
ATOM     17  C   UNL     1      -1.868   5.091  -0.026  0.00  0.00    -0.035 C 
ATOM     18  C   UNL     1      -1.397   6.505  -0.374  0.00  0.00    +0.011 C 
ATOM     19  C   UNL     1      -3.107   4.748  -0.855  0.00  0.00    +0.011 C 
ATOM     20  C   UNL     1      -2.214   5.020   1.462  0.00  0.00    +0.011 C 
ENDBRANCH  14  17
BRANCH   1  21
ATOM     21  S   UNL     1       7.205  -0.568  -0.065  0.00  0.00    -0.076 S 
BRANCH  21  22
ATOM     22  C   UNL     1       8.594   0.598  -0.073  0.00  0.00    +0.174 C 
BRANCH  22  24
ATOM     23  N   UNL     1      11.065   0.497  -0.095  0.00  0.00    -0.234 N 
ATOM     24  C   UNL     1       9.892  -0.167  -0.087  0.00  0.00    +0.239 C 
ATOM     25  O   UNL     1       9.881  -1.379  -0.091  0.00  0.00    -0.273 OA
ATOM     26  H   UNL     1      11.074   1.467  -0.092  0.00  0.00    +0.173 HD
BRANCH  23  29
ATOM     27  C   UNL     1      13.445   0.449  -0.117  0.00  0.00    +0.232 C 
ATOM     28  O   UNL     1      13.456   1.662  -0.113  0.00  0.00    -0.274 OA
ATOM     29  N   UNL     1      12.272  -0.214  -0.108  0.00  0.00    -0.234 N 
ATOM     30  H   UNL     1      12.264  -1.184  -0.112  0.00  0.00    +0.173 HD
BRANCH  27  32
ATOM     31  C   UNL     1      15.915   0.668  -0.138  0.00  0.00    +0.017 C 
ATOM     32  C   UNL     1      14.744  -0.316  -0.131  0.00  0.00    +0.070 C 
ATOM     33  C   UNL     1      14.828  -1.200   1.115  0.00  0.00    +0.017 C 
ENDBRANCH  27  32
ENDBRANCH  23  29
ENDBRANCH  22  24
ENDBRANCH  21  22
ENDBRANCH   1  21
TORSDOF 6
