REMARK  Name = ZINC06077811
REMARK  13 active torsions:
REMARK  status: ('A' for Active; 'I' for Inactive)
REMARK    1  A    between atoms: C_1  and  C_2
REMARK    2  A    between atoms: C_2  and  C_3
REMARK    3  A    between atoms: C_3  and  C_4
REMARK    4  A    between atoms: C_3  and  C_5
REMARK    5  A    between atoms: C_3  and  N_6
REMARK    6  A    between atoms: C_7  and  C_11
REMARK    7  A    between atoms: C_11  and  C_13
REMARK    8  A    between atoms: C_11  and  N_73
REMARK    9  A    between atoms: C_18  and  O_25
REMARK   10  A    between atoms: O_25  and  C_26
REMARK   11  A    between atoms: N_29  and  C_32
REMARK   12  A    between atoms: C_37  and  O_38
REMARK   13  A    between atoms: O_38  and  C_39
REMARK                            x       y       z     vdW  Elec       q    Type
REMARK                         _______ _______ _______ _____ _____    ______ ____
ROOT
ATOM      1  C   UNL     1      -2.476   1.654   0.528  0.00  0.00    +0.039 C 
ENDROOT
BRANCH   1   2
ATOM      2  C   UNL     1      -2.966   2.040  -0.844  0.00  0.00    +0.011 A 
ATOM      3  C   UNL     1      -3.345   1.078  -1.722  0.00  0.00    +0.017 A 
ATOM      4  C   UNL     1      -3.820   1.485  -3.044  0.00  0.00    -0.001 A 
ATOM      5  C   UNL     1      -4.229   0.537  -3.990  0.00  0.00    +0.013 A 
ATOM      6  C   UNL     1      -4.663   0.947  -5.216  0.00  0.00    +0.046 A 
ATOM      7  C   UNL     1      -4.704   2.303  -5.536  0.00  0.00    +0.122 A 
ATOM      8  C   UNL     1      -4.305   3.256  -4.615  0.00  0.00    +0.072 A 
ATOM      9  C   UNL     1      -3.859   2.857  -3.362  0.00  0.00    +0.053 A 
ATOM     10  N   UNL     1      -3.455   3.785  -2.425  0.00  0.00    -0.322 N 
ATOM     11  H   UNL     1      -3.483   4.759  -2.652  0.00  0.00    +0.169 HD
ATOM     12  C   UNL     1      -3.024   3.400  -1.211  0.00  0.00    +0.251 A 
ATOM     13  O   UNL     1      -2.675   4.248  -0.408  0.00  0.00    -0.268 OA
BRANCH   7  14
ATOM     14  O   UNL     1      -5.139   2.692  -6.762  0.00  0.00    -0.495 OA
ATOM     15  C   UNL     1      -5.537   1.661  -7.667  0.00  0.00    +0.277 C 
ENDBRANCH   7  14
ENDBRANCH   1   2
BRANCH   1  21
ATOM     16  C   UNL     1      -2.759   2.074   2.896  0.00  0.00    -0.058 C 
ATOM     17  C   UNL     1      -3.557   2.885   3.920  0.00  0.00    +0.086 C 
ATOM     18  N   UNL     1      -4.981   2.538   3.813  0.00  0.00    -0.331 N 
ATOM     19  C   UNL     1      -5.489   2.821   2.463  0.00  0.00    +0.086 C 
ATOM     20  C   UNL     1      -4.691   2.010   1.440  0.00  0.00    -0.058 C 
ATOM     21  N   UNL     1      -3.265   2.384   1.542  0.00  0.00    +0.391 N 
ATOM     22  H   UNL     1      -3.172   3.393   1.375  0.00  0.00    -0.080 HD
BRANCH  18  23
ATOM     23  C   UNL     1      -5.735   3.207   4.783  0.00  0.00    +0.072 A 
ATOM     24  C   UNL     1      -5.157   4.220   5.536  0.00  0.00    +0.027 A 
ATOM     25  C   UNL     1      -5.905   4.883   6.491  0.00  0.00    +0.002 A 
ATOM     26  C   UNL     1      -7.225   4.533   6.705  0.00  0.00    +0.004 A 
ATOM     27  C   UNL     1      -7.806   3.522   5.962  0.00  0.00    +0.047 A 
ATOM     28  C   UNL     1      -7.065   2.856   5.000  0.00  0.00    +0.141 A 
BRANCH  28  29
ATOM     29  O   UNL     1      -7.635   1.860   4.269  0.00  0.00    -0.493 OA
ATOM     30  C   UNL     1      -9.003   1.553   4.546  0.00  0.00    +0.277 C 
ENDBRANCH  28  29
ENDBRANCH  18  23
ENDBRANCH   1  21
BRANCH   1  32
ATOM     31  N   UNL     1       0.019   1.192   0.789  0.00  0.00    -0.225 N 
ATOM     32  C   UNL     1      -1.024   2.034   0.668  0.00  0.00    +0.143 A 
ATOM     33  N   UNL     1      -0.533   3.249   0.699  0.00  0.00    -0.115 NA
ATOM     34  N   UNL     1       0.746   3.157   0.824  0.00  0.00    -0.023 NA
ATOM     35  N   UNL     1       1.083   1.916   0.879  0.00  0.00    -0.043 NA
BRANCH  31  36
ATOM     36  C   UNL     1      -0.042  -0.272   0.809  0.00  0.00    +0.061 C 
ATOM     37  C   UNL     1      -0.880  -0.731   2.004  0.00  0.00    +0.036 C 
ATOM     38  C   UNL     1      -0.684  -0.773  -0.486  0.00  0.00    +0.036 C 
BRANCH  36  40
ATOM     39  C   UNL     1       1.310  -2.368   0.951  0.00  0.00    +0.006 C 
ATOM     40  C   UNL     1       1.374  -0.839   0.930  0.00  0.00    +0.026 C 
ENDBRANCH  36  40
ENDBRANCH  31  36
ENDBRANCH   1  32
TORSDOF 8
