REMARK  Name = ZINC03903296
REMARK  9 active torsions:
REMARK  status: ('A' for Active; 'I' for Inactive)
REMARK    1  A    between atoms: C_1  and  C_2
REMARK    2  A    between atoms: C_2  and  C_3
REMARK    3  A    between atoms: C_2  and  C_4
REMARK    4  A    between atoms: C_2  and  C_5
REMARK    5  A    between atoms: C_12  and  N_26
REMARK    6  A    between atoms: C_13  and  C_24
REMARK    7  A    between atoms: C_14  and  C_16
REMARK    8  A    between atoms: C_19  and  S_22
REMARK    9  A    between atoms: S_22  and  C_23
REMARK                            x       y       z     vdW  Elec       q    Type
REMARK                         _______ _______ _______ _____ _____    ______ ____
ROOT
ATOM      1  C   UNL     1       0.690  -0.819  -2.050  0.00  0.00    +0.076 A 
ATOM      2  C   UNL     1       0.911  -2.190  -2.069  0.00  0.00    +0.050 A 
ATOM      3  C   UNL     1       1.542  -2.500  -3.241  0.00  0.00    +0.222 A 
ATOM      4  N   UNL     1       1.706  -1.359  -3.929  0.00  0.00    -0.246 N 
ATOM      5  H   UNL     1       2.124  -1.272  -4.800  0.00  0.00    +0.192 HD
ATOM      6  N   UNL     1       1.159  -0.315  -3.166  0.00  0.00    -0.175 NA
ATOM      7  O   UNL     1       1.903  -3.767  -3.565  0.00  0.00    -0.423 OA
ATOM      8  C   UNL     1       1.875  -4.694  -2.586  0.00  0.00    +0.200 C 
ATOM      9  C   UNL     1       1.272  -4.508  -1.391  0.00  0.00    +0.098 C 
ATOM     10  C   UNL     1       0.558  -3.228  -1.036  0.00  0.00    +0.101 C 
ENDROOT
BRANCH  10  11
ATOM     11  C   UNL     1      -0.932  -3.459  -1.036  0.00  0.00    -0.034 A 
ATOM     12  C   UNL     1      -1.595  -3.679  -2.230  0.00  0.00    +0.005 A 
ATOM     13  C   UNL     1      -2.960  -3.891  -2.234  0.00  0.00    +0.015 A 
ATOM     14  C   UNL     1      -3.666  -3.882  -1.037  0.00  0.00    +0.008 A 
ATOM     15  C   UNL     1      -2.996  -3.661   0.160  0.00  0.00    +0.015 A 
ATOM     16  C   UNL     1      -1.631  -3.455   0.157  0.00  0.00    +0.005 A 
BRANCH  14  17
ATOM     17  S   UNL     1      -5.408  -4.151  -1.038  0.00  0.00    -0.129 S 
ATOM     18  C   UNL     1      -5.868  -4.050   0.714  0.00  0.00    +0.090 C 
ENDBRANCH  14  17
ENDBRANCH  10  11
BRANCH   1  20
ATOM     19  C   UNL     1      -1.466  -0.407  -0.895  0.00  0.00    +0.017 C 
ATOM     20  C   UNL     1       0.020  -0.047  -0.943  0.00  0.00    +0.007 C 
ATOM     21  C   UNL     1       0.173   1.453  -1.203  0.00  0.00    +0.017 C 
ATOM     22  C   UNL     1       0.674  -0.401   0.394  0.00  0.00    +0.017 C 
ENDBRANCH   1  20
BRANCH   8  23
ATOM     23  N   UNL     1       2.496  -5.897  -2.817  0.00  0.00    -0.328 N 
ATOM     24  H   UNL     1       2.937  -6.060  -3.665  0.00  0.00    +0.145 HD
ATOM     25  H   UNL     1       2.493  -6.583  -2.132  0.00  0.00    +0.145 HD
ENDBRANCH   8  23
BRANCH   9  26
ATOM     26  C   UNL     1       1.313  -5.566  -0.427  0.00  0.00    +0.101 C 
ATOM     27  N   UNL     1       1.345  -6.405   0.339  0.00  0.00    -0.191 NA
ENDBRANCH   9  26
TORSDOF 5
