REMARK  Name = ZINC11124030
REMARK  13 active torsions:
REMARK  status: ('A' for Active; 'I' for Inactive)
REMARK    1  A    between atoms: C_1  and  C_2
REMARK    2  A    between atoms: C_2  and  O_3
REMARK    3  A    between atoms: O_3  and  C_4
REMARK    4  A    between atoms: C_4  and  C_5
REMARK    5  A    between atoms: C_5  and  C_6
REMARK    6  A    between atoms: C_6  and  N_7
REMARK    7  A    between atoms: C_11  and  C_35
REMARK    8  A    between atoms: C_12  and  C_34
REMARK    9  A    between atoms: C_16  and  S_17
REMARK   10  A    between atoms: S_17  and  C_18
REMARK   11  A    between atoms: C_18  and  C_19
REMARK   12  A    between atoms: N_24  and  C_25
REMARK   13  A    between atoms: C_31  and  C_33
REMARK                            x       y       z     vdW  Elec       q    Type
REMARK                         _______ _______ _______ _____ _____    ______ ____
ROOT
ATOM      1  N   UNL     1      -0.198   1.202  -4.033  0.00  0.00    -0.287 N 
ATOM      2  C   UNL     1       0.552   0.691  -5.027  0.00  0.00    +0.263 A 
ATOM      3  O   UNL     1       0.256   0.894  -6.191  0.00  0.00    -0.267 OA
ATOM      4  C   UNL     1       1.700  -0.097  -4.698  0.00  0.00    +0.075 A 
ATOM      5  C   UNL     1       2.651  -0.750  -5.582  0.00  0.00    -0.026 A 
ATOM      6  C   UNL     1       3.667  -1.446  -5.051  0.00  0.00    -0.008 A 
ATOM      7  S   UNL     1       3.416  -1.272  -3.294  0.00  0.00    -0.073 S 
ATOM      8  C   UNL     1       1.953  -0.268  -3.324  0.00  0.00    +0.117 A 
ATOM      9  N   UNL     1       1.173   0.268  -2.392  0.00  0.00    -0.216 NA
ATOM     10  C   UNL     1       0.122   0.990  -2.724  0.00  0.00    +0.173 A 
ATOM     11  C   UNL     1       4.760  -2.196  -5.768  0.00  0.00    +0.052 C 
ATOM     12  C   UNL     1       2.497  -0.646  -7.077  0.00  0.00    +0.045 C 
ENDROOT
BRANCH   1  13
ATOM     13  C   UNL     1      -1.378   2.004  -4.364  0.00  0.00    +0.129 C 
BRANCH  13  14
ATOM     14  C   UNL     1      -0.977   3.475  -4.485  0.00  0.00    +0.050 C 
BRANCH  14  15
ATOM     15  C   UNL     1      -2.209   4.314  -4.830  0.00  0.00    +0.161 C 
BRANCH  15  16
ATOM     16  O   UNL     1      -1.835   5.688  -4.943  0.00  0.00    -0.380 OA
BRANCH  16  18
ATOM     17  C   UNL     1      -2.404   7.999  -5.361  0.00  0.00    +0.034 C 
ATOM     18  C   UNL     1      -2.919   6.561  -5.265  0.00  0.00    +0.156 C 
ENDBRANCH  16  18
ENDBRANCH  15  16
ENDBRANCH  14  15
ENDBRANCH  13  14
ENDBRANCH   1  13
BRANCH  10  19
ATOM     19  S   UNL     1      -0.888   1.685  -1.458  0.00  0.00    -0.078 S 
BRANCH  19  20
ATOM     20  C   UNL     1      -0.013   1.086   0.008  0.00  0.00    +0.173 C 
BRANCH  20  21
ATOM     21  C   UNL     1      -0.718   1.572   1.248  0.00  0.00    +0.231 C 
ATOM     22  O   UNL     1      -1.714   2.256   1.150  0.00  0.00    -0.274 OA
ATOM     23  N   UNL     1      -0.242   1.246   2.466  0.00  0.00    -0.239 N 
ATOM     24  C   UNL     1      -0.872   1.681   3.575  0.00  0.00    +0.306 C 
ATOM     25  O   UNL     1      -1.871   2.366   3.476  0.00  0.00    -0.252 OA
ATOM     26  N   UNL     1      -0.396   1.355   4.793  0.00  0.00    -0.296 N 
ATOM     27  H   UNL     1       0.555   0.699   2.544  0.00  0.00    +0.159 HD
ATOM     28  H   UNL     1       0.401   0.807   4.871  0.00  0.00    +0.151 HD
BRANCH  26  29
ATOM     29  C   UNL     1      -1.082   1.827   5.998  0.00  0.00    +0.077 C 
ATOM     30  C   UNL     1      -2.219   0.866   6.347  0.00  0.00    +0.022 C 
ATOM     31  C   UNL     1      -2.935   1.359   7.606  0.00  0.00    +0.002 C 
ATOM     32  C   UNL     1      -1.942   1.418   8.768  0.00  0.00    +0.000 C 
ATOM     33  C   UNL     1      -0.804   2.379   8.419  0.00  0.00    +0.005 C 
ATOM     34  C   UNL     1      -0.088   1.886   7.160  0.00  0.00    +0.006 C 
ATOM     35  C   UNL     1       1.050   2.847   6.810  0.00  0.00    +0.009 C 
ENDBRANCH  26  29
ENDBRANCH  20  21
ENDBRANCH  19  20
ENDBRANCH  10  19
TORSDOF 9
