REMARK  Name = ZINC36560526
REMARK  18 active torsions:
REMARK  status: ('A' for Active; 'I' for Inactive)
REMARK    1  A    between atoms: C_1  and  C_2
REMARK    2  A    between atoms: C_2  and  C_3
REMARK    3  A    between atoms: C_3  and  N_4
REMARK    4  A    between atoms: N_4  and  C_5
REMARK    5  A    between atoms: C_5  and  C_7
REMARK    6  A    between atoms: C_5  and  C_16
REMARK    7  A    between atoms: C_8  and  O_15
REMARK    8  A    between atoms: C_10  and  O_14
REMARK    9  A    between atoms: C_12  and  O_13
REMARK   10  A    between atoms: N_18  and  C_19
REMARK   11  A    between atoms: C_19  and  C_20
REMARK   12  A    between atoms: C_19  and  C_21
REMARK   13  A    between atoms: C_19  and  C_22
REMARK   14  A    between atoms: C_22  and  C_23
REMARK   15  A    between atoms: C_23  and  C_24
REMARK   16  A    between atoms: C_23  and  C_25
REMARK   17  A    between atoms: C_23  and  C_26
REMARK   18  A    between atoms: C_27  and  C_29
REMARK                            x       y       z     vdW  Elec       q    Type
REMARK                         _______ _______ _______ _____ _____    ______ ____
ROOT
ATOM      1  C   UNL     1      -2.663  -2.892   3.304  0.00  0.00    +0.199 C 
ENDROOT
BRANCH   1   2
ATOM      2  C   UNL     1      -3.578  -2.215   4.292  0.00  0.00    +0.065 A 
ATOM      3  C   UNL     1      -3.054  -1.637   5.439  0.00  0.00    +0.129 A 
ATOM      4  C   UNL     1      -3.895  -1.014   6.348  0.00  0.00    +0.091 A 
ATOM      5  C   UNL     1      -5.261  -0.968   6.110  0.00  0.00    +0.124 A 
ATOM      6  C   UNL     1      -5.785  -1.545   4.962  0.00  0.00    +0.091 A 
ATOM      7  C   UNL     1      -4.942  -2.164   4.051  0.00  0.00    +0.129 A 
BRANCH   7   8
ATOM      8  O   UNL     1      -5.455  -2.725   2.924  0.00  0.00    -0.506 OA
ATOM      9  H   UNL     1      -5.707  -3.653   3.027  0.00  0.00    +0.292 HD
ENDBRANCH   7   8
BRANCH   5  10
ATOM     10  O   UNL     1      -6.086  -0.358   7.001  0.00  0.00    -0.507 OA
ATOM     11  H   UNL     1      -6.224   0.583   6.829  0.00  0.00    +0.292 HD
ENDBRANCH   5  10
BRANCH   3  12
ATOM     12  O   UNL     1      -1.716  -1.682   5.672  0.00  0.00    -0.506 OA
ATOM     13  H   UNL     1      -1.240  -0.889   5.389  0.00  0.00    +0.292 HD
ENDBRANCH   3  12
ENDBRANCH   1   2
BRANCH   1  14
ATOM     14  C   UNL     1      -1.233  -2.727   3.749  0.00  0.00    +0.239 C 
ATOM     15  O   UNL     1      -0.562  -1.816   3.310  0.00  0.00    -0.273 OA
ATOM     16  N   UNL     1      -0.698  -3.592   4.634  0.00  0.00    -0.308 N 
ATOM     17  H   UNL     1      -1.216  -4.352   4.941  0.00  0.00    +0.149 HD
BRANCH  16  18
ATOM     18  C   UNL     1       0.664  -3.383   5.131  0.00  0.00    +0.030 C 
ATOM     19  C   UNL     1       1.616  -3.201   3.948  0.00  0.00    +0.031 C 
ATOM     20  C   UNL     1       0.699  -2.132   6.011  0.00  0.00    +0.031 C 
BRANCH  18  21
ATOM     21  C   UNL     1       1.098  -4.598   5.954  0.00  0.00    +0.031 C 
BRANCH  21  22
ATOM     22  C   UNL     1       1.244  -5.811   5.033  0.00  0.00    -0.036 C 
ATOM     23  C   UNL     1       2.523  -5.672   4.206  0.00  0.00    +0.010 C 
ATOM     24  C   UNL     1       1.319  -7.085   5.877  0.00  0.00    +0.010 C 
ATOM     25  C   UNL     1       0.037  -5.889   4.097  0.00  0.00    +0.010 C 
ENDBRANCH  21  22
ENDBRANCH  18  21
ENDBRANCH  16  18
ENDBRANCH   1  14
BRANCH   1  26
ATOM     26  N   UNL     1      -2.836  -2.284   1.982  0.00  0.00    -0.285 N 
ATOM     27  C   UNL     1      -2.697  -0.952   1.829  0.00  0.00    +0.220 C 
ATOM     28  O   UNL     1      -2.519  -0.246   2.799  0.00  0.00    -0.275 OA
BRANCH  27  29
ATOM     29  C   UNL     1      -2.764  -0.340   0.454  0.00  0.00    +0.075 C 
ATOM     30  C   UNL     1      -1.504  -0.711  -0.331  0.00  0.00    +0.013 C 
ATOM     31  C   UNL     1      -1.572  -0.090  -1.728  0.00  0.00    +0.001 C 
ATOM     32  C   UNL     1      -1.667   1.432  -1.605  0.00  0.00    +0.000 C 
ATOM     33  C   UNL     1      -2.927   1.803  -0.820  0.00  0.00    +0.001 C 
ATOM     34  C   UNL     1      -2.859   1.182   0.576  0.00  0.00    +0.013 C 
ENDBRANCH  27  29
BRANCH  26  35
ATOM     35  C   UNL     1      -3.160  -3.124   0.826  0.00  0.00    +0.108 C 
BRANCH  35  37
ATOM     36  C   UNL     1      -2.274  -4.851  -0.747  0.00  0.00    +0.005 C 
ATOM     37  C   UNL     1      -1.910  -3.888   0.385  0.00  0.00    +0.016 C 
ENDBRANCH  35  37
ENDBRANCH  26  35
ENDBRANCH   1  26
TORSDOF 12
