REMARK  Name = ZINC57608381
REMARK  13 active torsions:
REMARK  status: ('A' for Active; 'I' for Inactive)
REMARK    1  A    between atoms: C_1  and  C_2
REMARK    2  A    between atoms: C_2  and  C_3
REMARK    3  A    between atoms: C_3  and  C_4
REMARK    4  A    between atoms: C_3  and  C_5
REMARK    5  A    between atoms: C_3  and  N_6
REMARK    6  A    between atoms: C_7  and  C_11
REMARK    7  A    between atoms: C_11  and  C_13
REMARK    8  A    between atoms: C_11  and  N_26
REMARK    9  A    between atoms: C_18  and  C_25
REMARK   10  A    between atoms: N_26  and  C_27
REMARK   11  A    between atoms: N_26  and  C_35
REMARK   12  A    between atoms: C_27  and  C_28
REMARK   13  A    between atoms: C_35  and  C_36
REMARK                            x       y       z     vdW  Elec       q    Type
REMARK                         _______ _______ _______ _____ _____    ______ ____
ROOT
ATOM      1  C   UNL     1       2.732  -2.293  -3.131  0.00  0.00    +0.163 C 
ENDROOT
BRANCH   1   2
ATOM      2  C   UNL     1       1.637  -2.076  -4.144  0.00  0.00    +0.042 A 
ATOM      3  C   UNL     1       0.341  -2.246  -3.785  0.00  0.00    +0.021 A 
ATOM      4  C   UNL     1      -0.698  -2.027  -4.792  0.00  0.00    -0.001 A 
ATOM      5  C   UNL     1      -2.053  -2.186  -4.481  0.00  0.00    +0.010 A 
ATOM      6  C   UNL     1      -2.998  -1.974  -5.444  0.00  0.00    +0.004 A 
ATOM      7  C   UNL     1      -2.627  -1.602  -6.729  0.00  0.00    -0.048 A 
ATOM      8  C   UNL     1      -1.299  -1.440  -7.058  0.00  0.00    +0.029 A 
ATOM      9  C   UNL     1      -0.318  -1.650  -6.094  0.00  0.00    +0.049 A 
ATOM     10  N   UNL     1       1.018  -1.494  -6.395  0.00  0.00    -0.322 N 
ATOM     11  H   UNL     1       1.278  -1.234  -7.293  0.00  0.00    +0.169 HD
ATOM     12  C   UNL     1       1.965  -1.692  -5.462  0.00  0.00    +0.254 A 
ATOM     13  O   UNL     1       3.137  -1.540  -5.762  0.00  0.00    -0.268 OA
ATOM     14  C   UNL     1      -3.688  -1.373  -7.775  0.00  0.00    +0.044 C 
ENDBRANCH   1   2
BRANCH   1  16
ATOM     15  N   UNL     1       2.028  -1.771  -0.736  0.00  0.00    -0.222 N 
ATOM     16  C   UNL     1       2.120  -2.604  -1.789  0.00  0.00    +0.174 A 
ATOM     17  N   UNL     1       1.573  -3.737  -1.422  0.00  0.00    -0.111 NA
ATOM     18  N   UNL     1       1.167  -3.607  -0.206  0.00  0.00    -0.023 NA
ATOM     19  N   UNL     1       1.445  -2.422   0.213  0.00  0.00    -0.043 NA
BRANCH  15  20
ATOM     20  C   UNL     1       2.505  -0.388  -0.676  0.00  0.00    +0.062 C 
ATOM     21  C   UNL     1       1.887   0.415  -1.822  0.00  0.00    +0.036 C 
ATOM     22  C   UNL     1       4.030  -0.368  -0.804  0.00  0.00    +0.036 C 
BRANCH  20  24
ATOM     23  C   UNL     1       2.597   1.680   0.723  0.00  0.00    +0.006 C 
ATOM     24  C   UNL     1       2.098   0.235   0.661  0.00  0.00    +0.026 C 
ENDBRANCH  20  24
ENDBRANCH  15  20
ENDBRANCH   1  16
BRANCH   1  25
ATOM     25  N   UNL     1       3.576  -3.418  -3.556  0.00  0.00    -0.277 NA
BRANCH  25  26
ATOM     26  C   UNL     1       4.659  -3.656  -2.592  0.00  0.00    +0.121 C 
BRANCH  26  27
ATOM     27  C   UNL     1       5.715  -4.524  -3.227  0.00  0.00    -0.033 A 
ATOM     28  C   UNL     1       5.635  -5.900  -3.119  0.00  0.00    +0.008 A 
ATOM     29  C   UNL     1       6.602  -6.697  -3.702  0.00  0.00    +0.038 A 
ATOM     30  C   UNL     1       7.652  -6.117  -4.394  0.00  0.00    +0.123 A 
ATOM     31  C   UNL     1       7.731  -4.739  -4.501  0.00  0.00    +0.038 A 
ATOM     32  C   UNL     1       6.760  -3.944  -3.923  0.00  0.00    +0.008 A 
ATOM     33  F   UNL     1       8.598  -6.895  -4.963  0.00  0.00    -0.205 F 
ENDBRANCH  26  27
ENDBRANCH  25  26
BRANCH  25  34
ATOM     34  C   UNL     1       2.775  -4.632  -3.758  0.00  0.00    +0.160 C 
BRANCH  34  35
ATOM     35  C   UNL     1       2.218  -4.639  -5.158  0.00  0.00    +0.119 A 
ATOM     36  C   UNL     1       2.873  -5.039  -6.263  0.00  0.00    +0.046 A 
ATOM     37  C   UNL     1       1.981  -4.879  -7.348  0.00  0.00    +0.041 A 
ATOM     38  C   UNL     1       0.834  -4.390  -6.842  0.00  0.00    +0.195 A 
ATOM     39  O   UNL     1       0.982  -4.252  -5.514  0.00  0.00    -0.467 OA
ENDBRANCH  34  35
ENDBRANCH  25  34
ENDBRANCH   1  25
TORSDOF 9
