REMARK  Name = ZINC41584951
REMARK  13 active torsions:
REMARK  status: ('A' for Active; 'I' for Inactive)
REMARK    1  A    between atoms: C_1  and  C_2
REMARK    2  A    between atoms: C_2  and  C_3
REMARK    3  A    between atoms: C_3  and  O_4
REMARK    4  A    between atoms: O_4  and  C_5
REMARK    5  A    between atoms: C_5  and  C_7
REMARK    6  A    between atoms: C_7  and  C_8
REMARK    7  A    between atoms: C_8  and  C_9
REMARK    8  A    between atoms: C_12  and  C_35
REMARK    9  A    between atoms: C_18  and  C_21
REMARK   10  A    between atoms: C_19  and  O_20
REMARK   11  A    between atoms: C_21  and  N_22
REMARK   12  A    between atoms: N_25  and  C_28
REMARK   13  A    between atoms: C_28  and  C_29
REMARK                            x       y       z     vdW  Elec       q    Type
REMARK                         _______ _______ _______ _____ _____    ______ ____
ROOT
ATOM      1  C   UNL     1      -4.179  -6.053   0.009  0.00  0.00    -0.004 A 
ATOM      2  C   UNL     1      -4.315  -6.721  -1.174  0.00  0.00    +0.019 A 
ATOM      3  C   UNL     1      -4.369  -8.119  -1.181  0.00  0.00    +0.021 A 
ATOM      4  C   UNL     1      -4.513  -8.862  -2.435  0.00  0.00    -0.033 A 
ATOM      5  C   UNL     1      -4.559 -10.218  -2.376  0.00  0.00    +0.096 A 
ATOM      6  C   UNL     1      -4.469 -10.869  -1.128  0.00  0.00    +0.337 A 
ATOM      7  O   UNL     1      -4.511 -12.086  -1.089  0.00  0.00    -0.245 OA
ATOM      8  O   UNL     1      -4.336 -10.183   0.018  0.00  0.00    -0.422 OA
ATOM      9  C   UNL     1      -4.284  -8.834   0.029  0.00  0.00    +0.144 A 
ATOM     10  C   UNL     1      -4.148  -8.140   1.221  0.00  0.00    +0.021 A 
ATOM     11  C   UNL     1      -4.090  -6.756   1.210  0.00  0.00    +0.125 A 
ATOM     12  C   UNL     1      -4.608  -8.141  -3.755  0.00  0.00    +0.045 C 
ENDROOT
BRANCH  11  13
ATOM     13  O   UNL     1      -3.950  -6.078   2.377  0.00  0.00    -0.506 OA
ATOM     14  H   UNL     1      -4.788  -5.848   2.801  0.00  0.00    +0.292 HD
ENDBRANCH  11  13
BRANCH   1  15
ATOM     15  C   UNL     1      -4.121  -4.548   0.017  0.00  0.00    +0.050 C 
BRANCH  15  16
ATOM     16  C   UNL     1      -2.660  -4.094   0.005  0.00  0.00    +0.125 C 
BRANCH  16  17
ATOM     17  C   UNL     1      -2.602  -2.588   0.013  0.00  0.00    +0.307 C 
ATOM     18  O   UNL     1      -3.624  -1.944   0.026  0.00  0.00    -0.251 OA
BRANCH  17  19
ATOM     19  O   UNL     1      -1.414  -1.962   0.005  0.00  0.00    -0.465 OA
BRANCH  19  20
ATOM     20  C   UNL     1      -1.433  -0.534   0.013  0.00  0.00    +0.232 C 
BRANCH  20  22
ATOM     21  C   UNL     1      -0.019   1.526   0.010  0.00  0.00    +0.007 C 
ATOM     22  C   UNL     1       0.002  -0.004   0.002  0.00  0.00    +0.038 C 
ENDBRANCH  20  22
ENDBRANCH  19  20
ENDBRANCH  17  19
ENDBRANCH  16  17
ENDBRANCH  15  16
ENDBRANCH   1  15
BRANCH  10  23
ATOM     23  C   UNL     1      -4.056  -8.889   2.526  0.00  0.00    -0.035 C 
BRANCH  23  24
ATOM     24  N   UNL     1      -2.648  -9.185   2.822  0.00  0.00    +0.384 N 
ATOM     25  C   UNL     1      -2.117 -10.104   1.807  0.00  0.00    -0.063 C 
ATOM     26  C   UNL     1      -0.645 -10.398   2.105  0.00  0.00    +0.066 C 
ATOM     27  N   UNL     1      -0.529 -10.998   3.441  0.00  0.00    -0.302 NA
ATOM     28  C   UNL     1      -1.080 -10.101   4.466  0.00  0.00    +0.066 C 
ATOM     29  C   UNL     1      -2.548  -9.809   4.149  0.00  0.00    -0.063 C 
ATOM     30  H   UNL     1      -2.115  -8.329   2.813  0.00  0.00    -0.081 HD
BRANCH  27  31
ATOM     31  C   UNL     1       0.865 -11.348   3.742  0.00  0.00    +0.119 C 
BRANCH  31  32
ATOM     32  C   UNL     1       0.915 -12.176   5.000  0.00  0.00    -0.033 A 
ATOM     33  C   UNL     1       1.042 -11.557   6.230  0.00  0.00    +0.005 A 
ATOM     34  C   UNL     1       1.088 -12.316   7.384  0.00  0.00    +0.000 A 
ATOM     35  C   UNL     1       1.006 -13.694   7.309  0.00  0.00    +0.000 A 
ATOM     36  C   UNL     1       0.879 -14.313   6.079  0.00  0.00    +0.000 A 
ATOM     37  C   UNL     1       0.829 -13.553   4.926  0.00  0.00    +0.005 A 
ENDBRANCH  31  32
ENDBRANCH  27  31
ENDBRANCH  23  24
ENDBRANCH  10  23
TORSDOF 11
