REMARK  Name = ZINC08942710
REMARK  14 active torsions:
REMARK  status: ('A' for Active; 'I' for Inactive)
REMARK    1  A    between atoms: C_1  and  C_2
REMARK    2  A    between atoms: C_2  and  C_3
REMARK    3  A    between atoms: C_2  and  C_4
REMARK    4  A    between atoms: C_4  and  N_5
REMARK    5  A    between atoms: N_10  and  C_17
REMARK    6  A    between atoms: C_13  and  S_15
REMARK    7  A    between atoms: S_15  and  C_16
REMARK    8  A    between atoms: C_17  and  C_18
REMARK    9  A    between atoms: C_18  and  N_19
REMARK   10  A    between atoms: C_20  and  C_22
REMARK   11  A    between atoms: C_22  and  C_23
REMARK   12  A    between atoms: C_22  and  C_24
REMARK   13  A    between atoms: C_22  and  O_25
REMARK   14  A    between atoms: O_25  and  C_26
REMARK                            x       y       z     vdW  Elec       q    Type
REMARK                         _______ _______ _______ _____ _____    ______ ____
ROOT
ATOM      1  N   UNL     1       4.742  14.144   1.632  0.00  0.00    -0.328 N 
ATOM      2  C   UNL     1       4.819  12.801   1.947  0.00  0.00    +0.134 A 
ATOM      3  C   UNL     1       4.800  11.822   0.934  0.00  0.00    +0.078 A 
ATOM      4  C   UNL     1       4.714  11.854  -0.475  0.00  0.00    +0.148 A 
ATOM      5  N   UNL     1       4.746  10.630  -0.919  0.00  0.00    -0.177 NA
ATOM      6  N   UNL     1       4.844   9.740   0.158  0.00  0.00    -0.245 N 
ATOM      7  C   UNL     1       4.882  10.467   1.311  0.00  0.00    +0.164 A 
ATOM      8  N   UNL     1       4.974  10.162   2.604  0.00  0.00    -0.202 NA
ATOM      9  C   UNL     1       4.987  11.115   3.521  0.00  0.00    +0.192 A 
ATOM     10  N   UNL     1       4.912  12.405   3.210  0.00  0.00    -0.206 NA
ATOM     11  H   UNL     1       4.674  14.421   0.705  0.00  0.00    +0.147 HD
ENDROOT
BRANCH   9  12
ATOM     12  S   UNL     1       5.110  10.658   5.218  0.00  0.00    -0.089 S 
ATOM     13  C   UNL     1       5.085  12.296   5.988  0.00  0.00    +0.093 C 
ENDBRANCH   9  12
BRANCH   1  14
ATOM     14  C   UNL     1       4.762  15.148   2.698  0.00  0.00    +0.106 C 
BRANCH  14  16
ATOM     15  C   UNL     1       3.306  16.709   1.400  0.00  0.00    +0.009 C 
ATOM     16  C   UNL     1       4.665  16.546   2.084  0.00  0.00    -0.000 C 
ATOM     17  C   UNL     1       4.812  17.599   3.185  0.00  0.00    +0.009 C 
ENDBRANCH  14  16
ENDBRANCH   1  14
BRANCH   6  18
ATOM     18  C   UNL     1       4.902   8.280   0.062  0.00  0.00    +0.164 C 
BRANCH  18  19
ATOM     19  C   UNL     1       3.484   7.708   0.115  0.00  0.00    +0.127 C 
BRANCH  19  20
ATOM     20  N   UNL     1       3.543   6.247   0.019  0.00  0.00    -0.310 N 
ATOM     21  C   UNL     1       2.405   5.524   0.045  0.00  0.00    +0.256 C 
ATOM     22  O   UNL     1       1.334   6.083   0.148  0.00  0.00    -0.271 OA
ATOM     23  H   UNL     1       4.400   5.800  -0.064  0.00  0.00    +0.149 HD
BRANCH  21  24
ATOM     24  C   UNL     1       2.465   4.022  -0.054  0.00  0.00    +0.180 C 
ATOM     25  C   UNL     1       3.284   3.466   1.113  0.00  0.00    +0.065 C 
ATOM     26  C   UNL     1       3.126   3.624  -1.375  0.00  0.00    +0.065 C 
BRANCH  24  27
ATOM     27  O   UNL     1       1.141   3.488  -0.004  0.00  0.00    -0.477 OA
BRANCH  27  28
ATOM     28  C   UNL     1       0.288   3.858  -0.996  0.00  0.00    +0.122 A 
ATOM     29  C   UNL     1      -0.974   3.287  -1.076  0.00  0.00    +0.047 A 
ATOM     30  C   UNL     1      -1.839   3.666  -2.084  0.00  0.00    +0.023 A 
ATOM     31  C   UNL     1      -1.448   4.613  -3.014  0.00  0.00    +0.041 A 
ATOM     32  C   UNL     1      -0.189   5.183  -2.935  0.00  0.00    +0.023 A 
ATOM     33  C   UNL     1       0.679   4.807  -1.929  0.00  0.00    +0.047 A 
ATOM     34 CL   UNL     1      -2.537   5.087  -4.280  0.00  0.00    -0.084 Cl
ENDBRANCH  27  28
ENDBRANCH  24  27
ENDBRANCH  21  24
ENDBRANCH  19  20
ENDBRANCH  18  19
ENDBRANCH   6  18
TORSDOF 9
