REMARK  Name = ZINC39638135
REMARK  10 active torsions:
REMARK  status: ('A' for Active; 'I' for Inactive)
REMARK    1  A    between atoms: C_1  and  C_2
REMARK    2  A    between atoms: C_2  and  C_3
REMARK    3  A    between atoms: C_3  and  C_5
REMARK    4  A    between atoms: C_3  and  N_8
REMARK    5  A    between atoms: C_5  and  O_6
REMARK    6  A    between atoms: O_6  and  C_7
REMARK    7  A    between atoms: C_9  and  C_11
REMARK    8  A    between atoms: C_22  and  C_24
REMARK    9  A    between atoms: C_29  and  S_30
REMARK   10  A    between atoms: S_30  and  C_31
REMARK                            x       y       z     vdW  Elec       q    Type
REMARK                         _______ _______ _______ _____ _____    ______ ____
ROOT
ATOM      1  C   UNL     1      -1.208   1.904  -4.414  0.00  0.00    +0.100 C 
ATOM      2  C   UNL     1      -0.856   0.695  -5.311  0.00  0.00    +0.121 C 
ATOM      3  N   UNL     1      -0.554   1.287  -6.635  0.00  0.00    -0.296 N 
ATOM      4  C   UNL     1       0.194   2.529  -6.322  0.00  0.00    +0.115 C 
ATOM      5  C   UNL     1      -0.516   3.105  -5.081  0.00  0.00    -0.004 C 
ATOM      6  C   UNL     1      -1.551   4.144  -5.500  0.00  0.00    -0.010 C 
ATOM      7  C   UNL     1      -0.835   5.353  -6.109  0.00  0.00    -0.082 C 
ATOM      8  N   UNL     1       0.090   5.924  -5.122  0.00  0.00    +0.379 N 
ATOM      9  C   UNL     1       1.136   4.949  -4.793  0.00  0.00    -0.082 C 
ATOM     10  C   UNL     1       0.504   3.723  -4.129  0.00  0.00    -0.010 C 
ATOM     11  C   UNL     1      -0.884   0.806  -7.850  0.00  0.00    +0.249 C 
ATOM     12  O   UNL     1      -0.472   1.355  -8.854  0.00  0.00    -0.270 OA
ATOM     13  H   UNL     1       0.515   6.756  -5.503  0.00  0.00    -0.086 HD
ATOM     14  H   UNL     1      -0.420   6.164  -4.285  0.00  0.00    -0.086 HD
ENDROOT
BRANCH  11  15
ATOM     15  C   UNL     1      -1.744  -0.386  -7.962  0.00  0.00    +0.069 A 
ATOM     16  C   UNL     1      -1.625  -1.438  -7.046  0.00  0.00    +0.017 A 
ATOM     17  C   UNL     1      -2.456  -2.535  -7.194  0.00  0.00    +0.020 A 
ATOM     18  C   UNL     1      -3.372  -2.561  -8.232  0.00  0.00    +0.112 A 
ATOM     19  N   UNL     1      -3.468  -1.560  -9.084  0.00  0.00    -0.248 NA
ATOM     20  C   UNL     1      -2.701  -0.484  -8.986  0.00  0.00    +0.114 A 
BRANCH  20  21
ATOM     21  S   UNL     1      -2.878   0.827 -10.149  0.00  0.00    -0.069 S 
BRANCH  21  22
ATOM     22  C   UNL     1      -4.262   0.346 -11.128  0.00  0.00    +0.014 A 
ATOM     23  C   UNL     1      -5.532   0.817 -10.818  0.00  0.00    +0.015 A 
ATOM     24  C   UNL     1      -6.614   0.438 -11.587  0.00  0.00    +0.001 A 
ATOM     25  C   UNL     1      -6.436  -0.410 -12.664  0.00  0.00    +0.000 A 
ATOM     26  C   UNL     1      -5.173  -0.882 -12.975  0.00  0.00    +0.001 A 
ATOM     27  C   UNL     1      -4.085  -0.502 -12.214  0.00  0.00    +0.015 A 
ENDBRANCH  21  22
ENDBRANCH  20  21
ENDBRANCH  11  15
BRANCH   1  29
ATOM     28  N   UNL     1      -1.308   2.244  -1.966  0.00  0.00    -0.310 N 
ATOM     29  C   UNL     1      -0.672   1.697  -3.021  0.00  0.00    +0.218 C 
ATOM     30  O   UNL     1       0.332   1.038  -2.849  0.00  0.00    -0.275 OA
ATOM     31  H   UNL     1      -2.075   2.821  -2.108  0.00  0.00    +0.149 HD
BRANCH  28  32
ATOM     32  C   UNL     1      -0.842   1.966  -0.605  0.00  0.00    +0.098 C 
BRANCH  32  34
ATOM     33  C   UNL     1       1.393   3.004  -1.017  0.00  0.00    +0.006 C 
ATOM     34  C   UNL     1       0.126   3.067  -0.164  0.00  0.00    +0.021 C 
ENDBRANCH  32  34
BRANCH  32  35
ATOM     35  C   UNL     1      -2.039   1.928   0.347  0.00  0.00    +0.181 C 
BRANCH  35  36
ATOM     36  O   UNL     1      -2.640   3.223   0.409  0.00  0.00    -0.381 OA
ATOM     37  C   UNL     1      -3.774   3.297   1.276  0.00  0.00    +0.194 C 
ENDBRANCH  35  36
ENDBRANCH  32  35
ENDBRANCH  28  32
ENDBRANCH   1  29
TORSDOF 8
