REMARK  Name = ZINC60042719
REMARK  9 active torsions:
REMARK  status: ('A' for Active; 'I' for Inactive)
REMARK    1  A    between atoms: C_4  and  C_7
REMARK    2  A    between atoms: N_9  and  C_10
REMARK    3  A    between atoms: C_10  and  C_11
REMARK    4  A    between atoms: C_11  and  C_12
REMARK    5  A    between atoms: N_20  and  C_21
REMARK    6  A    between atoms: C_21  and  C_22
REMARK    7  A    between atoms: C_22  and  C_24
REMARK    8  A    between atoms: C_22  and  O_35
REMARK    9  A    between atoms: C_24  and  N_25
REMARK                            x       y       z     vdW  Elec       q    Type
REMARK                         _______ _______ _______ _____ _____    ______ ____
ROOT
ATOM      1  C   UNL     1       6.059  -4.985  -0.084  0.00  0.00    +0.112 A 
ATOM      2  N   UNL     1       6.703  -5.337  -1.158  0.00  0.00    -0.232 NA
ATOM      3  C   UNL     1       7.850  -5.976  -0.815  0.00  0.00    +0.089 A 
ATOM      4  C   UNL     1       8.890  -6.551  -1.550  0.00  0.00    +0.030 A 
ATOM      5  C   UNL     1       9.939  -7.139  -0.900  0.00  0.00    +0.002 A 
ATOM      6  C   UNL     1       9.984  -7.172   0.486  0.00  0.00    +0.002 A 
ATOM      7  C   UNL     1       8.969  -6.612   1.232  0.00  0.00    +0.028 A 
ATOM      8  C   UNL     1       7.895  -6.010   0.589  0.00  0.00    +0.069 A 
ATOM      9  N   UNL     1       6.751  -5.370   1.023  0.00  0.00    -0.325 N 
ENDROOT
BRANCH   1  10
ATOM     10  C   UNL     1       4.742  -4.253  -0.067  0.00  0.00    +0.093 C 
BRANCH  10  11
ATOM     11  C   UNL     1       4.997  -2.744  -0.061  0.00  0.00    +0.112 C 
BRANCH  11  14
ATOM     12  C   UNL     1       3.696  -0.685  -0.037  0.00  0.00    +0.244 C 
ATOM     13  O   UNL     1       4.738  -0.060  -0.044  0.00  0.00    -0.270 OA
ATOM     14  N   UNL     1       3.717  -2.032  -0.045  0.00  0.00    -0.311 N 
ATOM     15  H   UNL     1       2.885  -2.531  -0.039  0.00  0.00    +0.149 HD
BRANCH  12  19
ATOM     16  C   UNL     1      -0.017   1.379   0.010  0.00  0.00    +0.000 A 
ATOM     17  C   UNL     1       1.168   2.094   0.002  0.00  0.00    +0.001 A 
ATOM     18  C   UNL     1       2.377   1.429  -0.013  0.00  0.00    +0.013 A 
ATOM     19  C   UNL     1       2.403   0.034  -0.021  0.00  0.00    +0.037 A 
ATOM     20  C   UNL     1       1.204  -0.681  -0.013  0.00  0.00    +0.013 A 
ATOM     21  C   UNL     1       0.002  -0.004   0.002  0.00  0.00    +0.001 A 
ENDBRANCH  12  19
ENDBRANCH  11  14
ENDBRANCH  10  11
ENDBRANCH   1  10
BRANCH   9  22
ATOM     22  C   UNL     1       6.355  -5.148   2.415  0.00  0.00    +0.153 C 
BRANCH  22  23
ATOM     23  C   UNL     1       5.515  -6.332   2.901  0.00  0.00    +0.118 C 
BRANCH  23  24
ATOM     24  O   UNL     1       4.293  -6.383   2.163  0.00  0.00    -0.392 OA
ATOM     25  H   UNL     1       3.746  -5.590   2.252  0.00  0.00    +0.210 HD
ENDBRANCH  23  24
BRANCH  23  26
ATOM     26  C   UNL     1       5.206  -6.161   4.390  0.00  0.00    -0.045 C 
BRANCH  26  27
ATOM     27  N   UNL     1       4.504  -7.353   4.883  0.00  0.00    +0.384 N 
ATOM     28  C   UNL     1       4.110  -7.147   6.286  0.00  0.00    -0.074 C 
ATOM     29  C   UNL     1       3.127  -8.248   6.684  0.00  0.00    +0.017 C 
ATOM     30  C   UNL     1       3.699  -9.596   6.324  0.00  0.00    -0.048 A 
ATOM     31  C   UNL     1       3.143 -10.729   6.898  0.00  0.00    +0.004 A 
ATOM     32  C   UNL     1       3.638 -11.980   6.590  0.00  0.00    +0.000 A 
ATOM     33  C   UNL     1       4.693 -12.104   5.705  0.00  0.00    +0.000 A 
ATOM     34  C   UNL     1       5.248 -10.976   5.134  0.00  0.00    +0.002 A 
ATOM     35  C   UNL     1       4.753  -9.718   5.444  0.00  0.00    -0.061 A 
ATOM     36  C   UNL     1       5.394  -8.515   4.804  0.00  0.00    -0.043 C 
ATOM     37  H   UNL     1       3.682  -7.518   4.322  0.00  0.00    -0.081 HD
ENDBRANCH  26  27
ENDBRANCH  23  26
ENDBRANCH  22  23
ENDBRANCH   9  22
TORSDOF 9
