REMARK  Name = ZINC14746800
REMARK  11 active torsions:
REMARK  status: ('A' for Active; 'I' for Inactive)
REMARK    1  A    between atoms: C_1  and  O_2
REMARK    2  A    between atoms: O_2  and  C_3
REMARK    3  A    between atoms: C_5  and  C_12
REMARK    4  A    between atoms: C_12  and  N_69
REMARK    5  A    between atoms: C_14  and  O_30
REMARK    6  A    between atoms: N_17  and  C_21
REMARK    7  A    between atoms: C_21  and  C_22
REMARK    8  A    between atoms: C_22  and  C_23
REMARK    9  A    between atoms: C_23  and  N_24
REMARK   10  A    between atoms: O_30  and  C_31
REMARK   11  A    between atoms: C_31  and  C_32
REMARK                            x       y       z     vdW  Elec       q    Type
REMARK                         _______ _______ _______ _____ _____    ______ ____
ROOT
ATOM      1  C   UNL     1       5.343   3.316  -6.054  0.00  0.00    -0.044 C 
ATOM      2  C   UNL     1       5.018   3.624  -4.605  0.00  0.00    +0.119 C 
ATOM      3  C   UNL     1       6.160   3.180  -3.687  0.00  0.00    +0.137 C 
ATOM      4  N   UNL     1       5.967   1.758  -3.360  0.00  0.00    -0.301 N 
ATOM      5  C   UNL     1       6.147   0.828  -4.303  0.00  0.00    +0.199 C 
ATOM      6  O   UNL     1       5.984  -0.343  -4.036  0.00  0.00    -0.278 OA
ATOM      7  C   UNL     1       6.550   1.234  -5.705  0.00  0.00    +0.019 C 
ATOM      8  N   UNL     1       5.376   1.870  -6.351  0.00  0.00    +0.390 N 
ATOM      9  H   UNL     1       4.521   1.438  -5.981  0.00  0.00    -0.081 HD
ENDROOT
BRANCH   8  10
ATOM     10  C   UNL     1       5.424   1.661  -7.806  0.00  0.00    -0.042 C 
BRANCH  10  13
ATOM     11  C   UNL     1       4.997  -2.042  -8.430  0.00  0.00    +0.166 A 
ATOM     12  C   UNL     1       4.712  -0.709  -8.177  0.00  0.00    +0.051 A 
ATOM     13  C   UNL     1       5.738   0.212  -8.081  0.00  0.00    -0.057 A 
ATOM     14  C   UNL     1       7.051  -0.190  -8.241  0.00  0.00    +0.051 A 
ATOM     15  C   UNL     1       7.345  -1.522  -8.489  0.00  0.00    +0.170 A 
ATOM     16  C   UNL     1       6.315  -2.452  -8.587  0.00  0.00    +0.208 A 
ATOM     17  O   UNL     1       6.858  -3.680  -8.838  0.00  0.00    -0.449 OA
ATOM     18  C   UNL     1       8.198  -3.421  -9.297  0.00  0.00    +0.467 C 
ATOM     19  O   UNL     1       8.534  -2.165  -8.678  0.00  0.00    -0.452 OA
BRANCH  11  21
ATOM     20  C   UNL     1       2.656  -2.456  -8.352  0.00  0.00    +0.277 C 
ATOM     21  O   UNL     1       3.987  -2.948  -8.525  0.00  0.00    -0.491 OA
ENDBRANCH  11  21
ENDBRANCH  10  13
ENDBRANCH   8  10
BRANCH   4  22
ATOM     22  C   UNL     1       5.585   1.361  -2.003  0.00  0.00    +0.109 C 
BRANCH  22  23
ATOM     23  C   UNL     1       4.059   1.329  -1.891  0.00  0.00    +0.038 C 
BRANCH  23  24
ATOM     24  C   UNL     1       3.660   0.915  -0.474  0.00  0.00    +0.109 C 
BRANCH  24  25
ATOM     25  N   UNL     1       2.199   0.884  -0.367  0.00  0.00    -0.301 N 
ATOM     26  C   UNL     1       1.373  -0.297  -0.647  0.00  0.00    +0.108 C 
ATOM     27  C   UNL     1       0.002  -0.004   0.002  0.00  0.00    +0.028 C 
ATOM     28  C   UNL     1      -0.019   1.542   0.011  0.00  0.00    +0.097 C 
ATOM     29  C   UNL     1       1.442   1.933  -0.001  0.00  0.00    +0.216 C 
ATOM     30  O   UNL     1       1.869   3.033   0.278  0.00  0.00    -0.276 OA
ENDBRANCH  24  25
ENDBRANCH  23  24
ENDBRANCH  22  23
ENDBRANCH   4  22
BRANCH   2  31
ATOM     31  O   UNL     1       4.815   5.031  -4.457  0.00  0.00    -0.377 OA
BRANCH  31  32
ATOM     32  C   UNL     1       3.875   5.380  -3.438  0.00  0.00    +0.163 C 
BRANCH  32  33
ATOM     33  C   UNL     1       3.739   6.902  -3.369  0.00  0.00    +0.015 C 
ATOM     34  C   UNL     1       4.174   7.592  -2.075  0.00  0.00    +0.006 C 
ATOM     35  C   UNL     1       2.688   7.474  -2.417  0.00  0.00    +0.006 C 
ENDBRANCH  32  33
ENDBRANCH  31  32
ENDBRANCH   2  31
TORSDOF 10
