REMARK  Name = ZINC39668952
REMARK  4 active torsions:
REMARK  status: ('A' for Active; 'I' for Inactive)
REMARK    1  A    between atoms: C_10  and  C_12
REMARK    2  A    between atoms: C_12  and  N_13
REMARK    3  A    between atoms: C_14  and  C_16
REMARK    4  A    between atoms: C_27  and  C_29
REMARK                            x       y       z     vdW  Elec       q    Type
REMARK                         _______ _______ _______ _____ _____    ______ ____
ROOT
ATOM      1  C   UNL     1       7.969  -0.960   2.032  0.00  0.00    +0.100 C 
ATOM      2  C   UNL     1       8.171  -2.473   2.271  0.00  0.00    +0.121 C 
ATOM      3  N   UNL     1       9.504  -2.577   2.911  0.00  0.00    -0.296 N 
ATOM      4  C   UNL     1       9.558  -1.420   3.837  0.00  0.00    +0.115 C 
ATOM      5  C   UNL     1       8.881  -0.272   3.062  0.00  0.00    -0.004 C 
ATOM      6  C   UNL     1       9.930   0.578   2.354  0.00  0.00    -0.010 C 
ATOM      7  C   UNL     1      10.789   1.296   3.399  0.00  0.00    -0.082 C 
ATOM      8  N   UNL     1       9.933   2.141   4.241  0.00  0.00    +0.379 N 
ATOM      9  C   UNL     1       8.986   1.305   4.990  0.00  0.00    -0.082 C 
ATOM     10  C   UNL     1       8.052   0.587   4.012  0.00  0.00    -0.010 C 
ATOM     11  C   UNL     1      10.451  -3.511   2.700  0.00  0.00    +0.247 C 
ATOM     12  O   UNL     1      10.311  -4.329   1.811  0.00  0.00    -0.270 OA
ATOM     13  H   UNL     1      10.507   2.659   4.889  0.00  0.00    -0.086 HD
ATOM     14  H   UNL     1       9.421   2.786   3.658  0.00  0.00    -0.086 HD
ENDROOT
BRANCH  11  15
ATOM     15  C   UNL     1      11.661  -3.541   3.547  0.00  0.00    +0.037 A 
ATOM     16  C   UNL     1      11.654  -2.928   4.802  0.00  0.00    +0.014 A 
ATOM     17  C   UNL     1      12.786  -2.960   5.588  0.00  0.00    +0.021 A 
ATOM     18  C   UNL     1      13.929  -3.599   5.137  0.00  0.00    +0.041 A 
ATOM     19  C   UNL     1      13.942  -4.209   3.893  0.00  0.00    +0.021 A 
ATOM     20  C   UNL     1      12.815  -4.189   3.100  0.00  0.00    +0.014 A 
ATOM     21 CL   UNL     1      15.351  -3.634   6.132  0.00  0.00    -0.084 Cl
ENDBRANCH  11  15
BRANCH   1  23
ATOM     22  N   UNL     1       5.984   0.447   1.587  0.00  0.00    -0.312 N 
ATOM     23  C   UNL     1       6.530  -0.579   2.268  0.00  0.00    +0.218 C 
ATOM     24  O   UNL     1       5.863  -1.196   3.072  0.00  0.00    -0.275 OA
ATOM     25  H   UNL     1       6.517   0.941   0.944  0.00  0.00    +0.149 HD
BRANCH  22  26
ATOM     26  C   UNL     1       4.585   0.818   1.816  0.00  0.00    +0.140 C 
BRANCH  26  36
ATOM     27  C   UNL     1       0.270   3.305   1.921  0.00  0.00    +0.000 A 
ATOM     28  C   UNL     1       1.174   2.981   2.916  0.00  0.00    +0.000 A 
ATOM     29  C   UNL     1       2.446   2.561   2.580  0.00  0.00    +0.006 A 
ATOM     30  C   UNL     1       2.821   2.461   1.249  0.00  0.00    -0.014 A 
ATOM     31  C   UNL     1       1.917   2.781   0.257  0.00  0.00    -0.040 A 
ATOM     32  C   UNL     1       0.642   3.205   0.595  0.00  0.00    +0.004 A 
ATOM     33  C   UNL     1       2.283   2.672  -1.201  0.00  0.00    +0.063 C 
ATOM     34  C   UNL     1       3.804   2.603  -1.349  0.00  0.00    +0.165 C 
ATOM     35  O   UNL     1       4.304   1.610  -0.446  0.00  0.00    -0.370 OA
ATOM     36  C   UNL     1       4.219   2.005   0.923  0.00  0.00    +0.165 C 
ENDBRANCH  26  36
ENDBRANCH  22  26
ENDBRANCH   1  23
TORSDOF 4
