REMARK  Name = ZINC27520235
REMARK  8 active torsions:
REMARK  status: ('A' for Active; 'I' for Inactive)
REMARK    1  A    between atoms: C_1  and  C_2
REMARK    2  A    between atoms: C_2  and  O_3
REMARK    3  A    between atoms: O_3  and  C_4
REMARK    4  A    between atoms: C_4  and  C_6
REMARK    5  A    between atoms: C_10  and  N_11
REMARK    6  A    between atoms: C_13  and  C_22
REMARK    7  A    between atoms: N_24  and  C_25
REMARK    8  A    between atoms: C_28  and  C_31
REMARK                            x       y       z     vdW  Elec       q    Type
REMARK                         _______ _______ _______ _____ _____    ______ ____
ROOT
ATOM      1  N   UNL     1       2.682   0.050   0.469  0.00  0.00    -0.319 N 
ATOM      2  C   UNL     1       2.554   1.276  -0.005  0.00  0.00    +0.212 A 
ATOM      3  C   UNL     1       1.251   1.966   0.007  0.00  0.00    +0.098 A 
ATOM      4  C   UNL     1       1.264   3.354   0.024  0.00  0.00    +0.030 A 
ATOM      5  C   UNL     1       2.522   4.012  -0.010  0.00  0.00    +0.018 A 
ATOM      6  C   UNL     1       2.607   5.394   0.206  0.00  0.00    +0.011 A 
ATOM      7  C   UNL     1       3.828   6.007   0.211  0.00  0.00    +0.001 A 
ATOM      8  C   UNL     1       4.986   5.273  -0.001  0.00  0.00    +0.004 A 
ATOM      9  C   UNL     1       4.924   3.914  -0.235  0.00  0.00    +0.047 A 
ATOM     10  C   UNL     1       3.694   3.272  -0.253  0.00  0.00    +0.137 A 
ATOM     11  O   UNL     1       3.616   1.946  -0.524  0.00  0.00    -0.439 OA
ATOM     12  H   UNL     1       1.807  -0.474   0.881  0.00  0.00    +0.169 HD
ENDROOT
BRANCH   1  17
ATOM     13  C   UNL     1       4.229  -1.839   0.900  0.00  0.00    +0.093 A 
ATOM     14  C   UNL     1       5.614  -2.253   0.749  0.00  0.00    -0.021 A 
ATOM     15  C   UNL     1       6.452  -1.352   0.191  0.00  0.00    -0.004 A 
ATOM     16  S   UNL     1       5.442   0.061  -0.159  0.00  0.00    -0.075 S 
ATOM     17  C   UNL     1       3.883  -0.558   0.447  0.00  0.00    +0.095 A 
ATOM     18  C   UNL     1       7.918  -1.518  -0.070  0.00  0.00    +0.043 C 
ATOM     19  C   UNL     1       8.419  -2.730   0.728  0.00  0.00    +0.005 C 
ATOM     20  C   UNL     1       7.458  -3.900   0.498  0.00  0.00    +0.005 C 
ATOM     21  C   UNL     1       6.125  -3.621   1.193  0.00  0.00    +0.037 C 
BRANCH  13  22
ATOM     22  C   UNL     1       3.263  -2.700   1.479  0.00  0.00    +0.342 C 
ATOM     23  O   UNL     1       2.630  -3.466   0.776  0.00  0.00    -0.245 OA
BRANCH  22  24
ATOM     24  O   UNL     1       3.045  -2.671   2.811  0.00  0.00    -0.461 OA
BRANCH  24  26
ATOM     25  C   UNL     1       1.951  -3.389   4.842  0.00  0.00    +0.048 C 
ATOM     26  C   UNL     1       2.057  -3.566   3.326  0.00  0.00    +0.229 C 
ENDBRANCH  24  26
ENDBRANCH  22  24
ENDBRANCH  13  22
ENDBRANCH   1  17
BRANCH   3  27
ATOM     27  C   UNL     1      -0.014   1.212   0.007  0.00  0.00    +0.253 C 
ATOM     28  O   UNL     1       0.002  -0.004  -0.009  0.00  0.00    -0.270 OA
ATOM     29  N   UNL     1      -1.191   1.870   0.018  0.00  0.00    -0.281 N 
ATOM     30  H   UNL     1      -1.207   2.966   0.109  0.00  0.00    +0.155 HD
BRANCH  29  31
ATOM     31  C   UNL     1      -2.390   1.159  -0.086  0.00  0.00    +0.034 A 
ATOM     32  C   UNL     1      -3.468   1.708  -0.769  0.00  0.00    +0.023 A 
ATOM     33  C   UNL     1      -4.650   1.001  -0.874  0.00  0.00    +0.005 A 
ATOM     34  C   UNL     1      -4.764  -0.247  -0.291  0.00  0.00    -0.050 A 
ATOM     35  C   UNL     1      -3.695  -0.794   0.395  0.00  0.00    +0.005 A 
ATOM     36  C   UNL     1      -2.509  -0.095   0.499  0.00  0.00    +0.023 A 
ATOM     37  C   UNL     1      -6.057  -1.014  -0.402  0.00  0.00    +0.044 C 
ENDBRANCH  29  31
ENDBRANCH   3  27
TORSDOF 6
