REMARK  Name = ZINC36945526
REMARK  7 active torsions:
REMARK  status: ('A' for Active; 'I' for Inactive)
REMARK    1  A    between atoms: C_1  and  C_2
REMARK    2  A    between atoms: C_5  and  C_7
REMARK    3  A    between atoms: C_7  and  C_9
REMARK    4  A    between atoms: C_7  and  N_10
REMARK    5  A    between atoms: N_10  and  C_11
REMARK    6  A    between atoms: C_11  and  C_13
REMARK    7  A    between atoms: C_11  and  C_14
REMARK                            x       y       z     vdW  Elec       q    Type
REMARK                         _______ _______ _______ _____ _____    ______ ____
ROOT
ATOM      1  N   UNL     1       2.205  -4.137  -0.923  0.00  0.00    +0.388 N 
ATOM      2  H   UNL     1       1.946  -3.798  -1.837  0.00  0.00    -0.084 HD
ATOM      3  H   UNL     1       2.952  -3.570  -0.553  0.00  0.00    -0.084 HD
ENDROOT
BRANCH   1   4
ATOM      4  C   UNL     1       1.043  -4.062  -0.027  0.00  0.00    -0.036 C 
ATOM      5  C   UNL     1       1.465  -4.458   1.389  0.00  0.00    -0.008 C 
BRANCH   4  10
ATOM      6  C   UNL     1      -0.018   1.503   0.010  0.00  0.00    +0.051 C 
ATOM      7  C   UNL     1       0.002  -0.004   0.002  0.00  0.00    -0.013 A 
ATOM      8  C   UNL     1      -1.039  -0.872   0.002  0.00  0.00    +0.011 A 
ATOM      9  C   UNL     1      -0.780  -2.230  -0.007  0.00  0.00    +0.010 A 
ATOM     10  C   UNL     1       0.507  -2.653  -0.016  0.00  0.00    -0.024 A 
ATOM     11  S   UNL     1       1.404  -1.109  -0.018  0.00  0.00    -0.100 S 
ENDBRANCH   4  10
ENDBRANCH   1   4
BRANCH   1  12
ATOM     12  C   UNL     1       2.653  -5.532  -1.027  0.00  0.00    -0.042 C 
ATOM     13  C   UNL     1       1.565  -6.369  -1.703  0.00  0.00    -0.009 C 
BRANCH  12  14
ATOM     14  C   UNL     1       3.917  -5.593  -1.846  0.00  0.00    -0.048 A 
ATOM     15  C   UNL     1       4.245  -4.549  -2.690  0.00  0.00    +0.003 A 
ATOM     16  C   UNL     1       5.404  -4.605  -3.441  0.00  0.00    +0.000 A 
ATOM     17  C   UNL     1       6.235  -5.706  -3.349  0.00  0.00    +0.001 A 
ATOM     18  C   UNL     1       5.908  -6.751  -2.506  0.00  0.00    +0.015 A 
ATOM     19  C   UNL     1       4.750  -6.693  -1.750  0.00  0.00    +0.019 A 
ATOM     20 BR   UNL     1       4.305  -8.119  -0.591  0.00  0.00    -0.050 Br
ENDBRANCH  12  14
ENDBRANCH   1  12
TORSDOF 4
