REMARK  Name = ZINC06302571
REMARK  5 active torsions:
REMARK  status: ('A' for Active; 'I' for Inactive)
REMARK    1  A    between atoms: C_1  and  C_2
REMARK    2  A    between atoms: C_6  and  N_9
REMARK    3  A    between atoms: C_7  and  C_8
REMARK    4  A    between atoms: N_20  and  C_23
REMARK    5  A    between atoms: C_23  and  O_24
REMARK                            x       y       z     vdW  Elec       q    Type
REMARK                         _______ _______ _______ _____ _____    ______ ____
ROOT
ATOM      1  N   UNL     1       0.053  -2.835   2.374  0.00  0.00    -0.223 N 
ATOM      2  C   UNL     1      -1.094  -3.195   2.925  0.00  0.00    +0.263 C 
ATOM      3  O   UNL     1      -2.162  -2.965   2.392  0.00  0.00    -0.269 OA
ATOM      4  C   UNL     1      -1.005  -3.896   4.234  0.00  0.00    +0.090 C 
ATOM      5  C   UNL     1      -2.013  -4.387   5.042  0.00  0.00    +0.065 C 
ATOM      6  C   UNL     1      -3.469  -4.201   4.875  0.00  0.00    +0.010 A 
ATOM      7  C   UNL     1      -4.244  -3.529   3.933  0.00  0.00    +0.010 A 
ATOM      8  C   UNL     1      -5.619  -3.536   4.048  0.00  0.00    +0.001 A 
ATOM      9  C   UNL     1      -6.225  -4.208   5.096  0.00  0.00    +0.002 A 
ATOM     10  C   UNL     1      -5.467  -4.878   6.035  0.00  0.00    +0.024 A 
ATOM     11  C   UNL     1      -4.080  -4.883   5.938  0.00  0.00    +0.047 A 
ATOM     12  N   UNL     1      -3.100  -5.466   6.733  0.00  0.00    -0.243 N 
ATOM     13  C   UNL     1      -1.869  -5.216   6.256  0.00  0.00    +0.254 C 
ATOM     14  O   UNL     1      -0.821  -5.602   6.739  0.00  0.00    -0.270 OA
ATOM     15  S   UNL     1       0.766  -3.929   4.474  0.00  0.00    -0.060 S 
ATOM     16  C   UNL     1       1.235  -3.096   2.966  0.00  0.00    +0.125 C 
ATOM     17  S   UNL     1       2.808  -2.719   2.408  0.00  0.00    -0.027 S 
ENDROOT
BRANCH   1  23
ATOM     18  C   UNL     1      -0.098   1.373  -0.167  0.00  0.00    +0.044 C 
ATOM     19  C   UNL     1      -0.034  -0.132  -0.120  0.00  0.00    -0.046 A 
ATOM     20  C   UNL     1       0.012  -0.859  -1.296  0.00  0.00    +0.004 A 
ATOM     21  C   UNL     1       0.071  -2.239  -1.256  0.00  0.00    +0.002 A 
ATOM     22  C   UNL     1       0.084  -2.897  -0.042  0.00  0.00    +0.024 A 
ATOM     23  C   UNL     1       0.039  -2.170   1.140  0.00  0.00    +0.046 A 
ATOM     24  C   UNL     1      -0.015  -0.783   1.097  0.00  0.00    -0.026 A 
ATOM     25  C   UNL     1      -0.057   0.010   2.378  0.00  0.00    +0.046 C 
ENDBRANCH   1  23
BRANCH  12  26
ATOM     26  C   UNL     1      -3.375  -6.258   7.934  0.00  0.00    +0.272 C 
BRANCH  26  27
ATOM     27  O   UNL     1      -3.177  -7.644   7.647  0.00  0.00    -0.377 OA
ATOM     28  H   UNL     1      -3.341  -8.229   8.399  0.00  0.00    +0.211 HD
ENDBRANCH  26  27
ENDBRANCH  12  26
TORSDOF 3
