REMARK  Name = ZINC01366071
REMARK  8 active torsions:
REMARK  status: ('A' for Active; 'I' for Inactive)
REMARK    1  A    between atoms: C_1  and  C_2
REMARK    2  A    between atoms: C_2  and  O_3
REMARK    3  A    between atoms: O_3  and  C_4
REMARK    4  A    between atoms: C_4  and  C_6
REMARK    5  A    between atoms: C_6  and  C_8
REMARK    6  A    between atoms: C_6  and  S_9
REMARK    7  A    between atoms: S_9  and  C_10
REMARK    8  A    between atoms: C_16  and  C_22
REMARK                            x       y       z     vdW  Elec       q    Type
REMARK                         _______ _______ _______ _____ _____    ______ ____
ROOT
ATOM      1  C   UNL     1      -0.551   2.357   6.295  0.00  0.00    +0.212 A 
ATOM      2  N   UNL     1       0.004   2.549   7.485  0.00  0.00    -0.201 NA
ATOM      3  C   UNL     1      -0.727   3.066   8.467  0.00  0.00    +0.162 A 
ATOM      4  C   UNL     1      -2.073   3.391   8.200  0.00  0.00    +0.137 A 
ATOM      5  C   UNL     1      -2.624   3.936   9.454  0.00  0.00    +0.029 A 
ATOM      6  C   UNL     1      -3.876   4.423   9.821  0.00  0.00    +0.015 A 
ATOM      7  C   UNL     1      -4.085   4.875  11.106  0.00  0.00    -0.050 A 
ATOM      8  C   UNL     1      -3.054   4.846  12.033  0.00  0.00    +0.005 A 
ATOM      9  C   UNL     1      -1.810   4.365  11.683  0.00  0.00    +0.026 A 
ATOM     10  C   UNL     1      -1.580   3.905  10.391  0.00  0.00    +0.050 A 
ATOM     11  N   UNL     1      -0.455   3.380   9.776  0.00  0.00    -0.338 N 
ATOM     12  H   UNL     1       0.404   3.252  10.208  0.00  0.00    +0.167 HD
ATOM     13  C   UNL     1      -5.438   5.403  11.506  0.00  0.00    +0.044 C 
ATOM     14  N   UNL     1      -2.568   3.174   6.991  0.00  0.00    -0.143 NA
ATOM     15  N   UNL     1      -1.821   2.675   6.067  0.00  0.00    -0.122 NA
ENDROOT
BRANCH   1  16
ATOM     16  S   UNL     1       0.416   1.672   4.991  0.00  0.00    -0.070 S 
BRANCH  16  17
ATOM     17  C   UNL     1      -0.817   1.643   3.667  0.00  0.00    +0.160 C 
ATOM     18  C   UNL     1      -1.939   0.670   4.037  0.00  0.00    +0.031 C 
BRANCH  17  19
ATOM     19  C   UNL     1      -0.166   1.194   2.384  0.00  0.00    +0.320 C 
ATOM     20  O   UNL     1       0.829   0.510   2.418  0.00  0.00    -0.250 OA
BRANCH  19  21
ATOM     21  O   UNL     1      -0.692   1.554   1.203  0.00  0.00    -0.464 OA
BRANCH  21  23
ATOM     22  C   UNL     1      -0.753   1.593  -1.232  0.00  0.00    +0.048 C 
ATOM     23  C   UNL     1      -0.013   1.086   0.008  0.00  0.00    +0.229 C 
ENDBRANCH  21  23
ENDBRANCH  19  21
ENDBRANCH  17  19
ENDBRANCH  16  17
ENDBRANCH   1  16
TORSDOF 5
