REMARK  Name = ZINC39762093
REMARK  6 active torsions:
REMARK  status: ('A' for Active; 'I' for Inactive)
REMARK    1  A    between atoms: C_1  and  C_2
REMARK    2  A    between atoms: C_10  and  S_12
REMARK    3  A    between atoms: S_12  and  C_13
REMARK    4  A    between atoms: C_13  and  C_15
REMARK    5  A    between atoms: C_13  and  C_16
REMARK    6  A    between atoms: C_16  and  N_18
REMARK                            x       y       z     vdW  Elec       q    Type
REMARK                         _______ _______ _______ _____ _____    ______ ____
ROOT
ATOM      1  S   UNL     1       0.096  -5.820   2.394  0.00  0.00    -0.075 S 
ENDROOT
BRANCH   1  11
ATOM      2  C   UNL     1      -0.018   1.503   0.010  0.00  0.00    +0.044 C 
ATOM      3  C   UNL     1       0.002  -0.004   0.002  0.00  0.00    -0.048 A 
ATOM      4  C   UNL     1       0.006  -0.686  -1.206  0.00  0.00    +0.005 A 
ATOM      5  C   UNL     1       0.024  -2.063  -1.230  0.00  0.00    +0.030 A 
ATOM      6  C   UNL     1       0.040  -2.778  -0.030  0.00  0.00    +0.090 A 
ATOM      7  C   UNL     1       0.037  -2.082   1.190  0.00  0.00    +0.067 A 
ATOM      8  C   UNL     1       0.023  -0.696   1.196  0.00  0.00    +0.031 A 
ATOM      9  N   UNL     1       0.055  -3.047   2.184  0.00  0.00    -0.333 N 
ATOM     10  H   UNL     1       0.058  -2.887   3.141  0.00  0.00    +0.168 HD
ATOM     11  C   UNL     1       0.069  -4.265   1.566  0.00  0.00    +0.168 A 
ATOM     12  N   UNL     1       0.060  -4.104   0.266  0.00  0.00    -0.222 NA
ENDBRANCH   1  11
BRANCH   1  13
ATOM     13  C   UNL     1       0.105  -7.035   1.047  0.00  0.00    +0.139 C 
ATOM     14  C   UNL     1       1.406  -6.905   0.252  0.00  0.00    +0.029 C 
BRANCH  13  15
ATOM     15  C   UNL     1       0.004  -8.424   1.622  0.00  0.00    +0.251 C 
ATOM     16  O   UNL     1       0.294  -8.623   2.786  0.00  0.00    -0.272 OA
BRANCH  15  17
ATOM     17  N   UNL     1      -0.402  -9.434   0.856  0.00  0.00    -0.158 NA
ATOM     18  C   UNL     1      -0.490 -10.658   1.363  0.00  0.00    +0.146 C 
ATOM     19  N   UNL     1      -0.881 -11.769   0.699  0.00  0.00    -0.325 N 
ATOM     20  C   UNL     1      -0.930 -13.044   1.385  0.00  0.00    +0.114 C 
ATOM     21  C   UNL     1      -0.496 -12.900   2.858  0.00  0.00    +0.095 C 
ATOM     22  S   UNL     1      -0.131 -11.103   2.938  0.00  0.00    -0.092 S 
ATOM     23  H   UNL     1      -1.129 -11.713  -0.237  0.00  0.00    +0.148 HD
ENDBRANCH  15  17
ENDBRANCH  13  15
ENDBRANCH   1  13
TORSDOF 4
