REMARK  Name = ZINC38702391
REMARK  5 active torsions:
REMARK  status: ('A' for Active; 'I' for Inactive)
REMARK    1  A    between atoms: C_1  and  C_2
REMARK    2  A    between atoms: C_2  and  O_3
REMARK    3  A    between atoms: O_3  and  C_4
REMARK    4  A    between atoms: C_7  and  C_10
REMARK    5  A    between atoms: C_17  and  C_26
REMARK                            x       y       z     vdW  Elec       q    Type
REMARK                         _______ _______ _______ _____ _____    ______ ____
ROOT
ATOM      1  C   UNL     1       1.109  -6.040  -1.847  0.00  0.00    +0.141 C 
ATOM      2  C   UNL     1       0.086  -6.523  -2.822  0.00  0.00    +0.072 A 
ATOM      3  C   UNL     1      -1.379  -6.478  -2.787  0.00  0.00    +0.199 A 
ATOM      4  O   UNL     1      -2.008  -5.842  -1.960  0.00  0.00    -0.287 OA
ATOM      5  C   UNL     1      -2.024  -7.281  -3.857  0.00  0.00    +0.065 A 
ATOM      6  C   UNL     1      -3.401  -7.502  -3.841  0.00  0.00    +0.018 A 
ATOM      7  C   UNL     1      -3.979  -8.248  -4.830  0.00  0.00    -0.050 A 
ATOM      8  C   UNL     1      -3.201  -8.784  -5.846  0.00  0.00    +0.007 A 
ATOM      9  C   UNL     1      -1.840  -8.574  -5.879  0.00  0.00    +0.047 A 
ATOM     10  C   UNL     1      -1.227  -7.815  -4.882  0.00  0.00    +0.139 A 
ATOM     11  O   UNL     1       0.109  -7.613  -4.939  0.00  0.00    -0.450 OA
ATOM     12  C   UNL     1       0.749  -7.084  -3.877  0.00  0.00    +0.199 A 
ATOM     13  C   UNL     1       2.196  -6.989  -3.617  0.00  0.00    +0.281 C 
ATOM     14  O   UNL     1       3.065  -7.399  -4.361  0.00  0.00    -0.267 OA
ATOM     15  N   UNL     1       2.416  -6.379  -2.433  0.00  0.00    -0.298 N 
ATOM     16  C   UNL     1      -5.467  -8.489  -4.817  0.00  0.00    +0.044 C 
ATOM     17  H   UNL     1       3.283  -6.197  -2.037  0.00  0.00    +0.150 HD
ENDROOT
BRANCH   1  21
ATOM     18  C   UNL     1       0.777  -1.810  -1.336  0.00  0.00    +0.121 A 
ATOM     19  C   UNL     1       0.243  -2.669  -0.386  0.00  0.00    +0.046 A 
ATOM     20  C   UNL     1       0.351  -4.036  -0.554  0.00  0.00    +0.009 A 
ATOM     21  C   UNL     1       0.992  -4.548  -1.667  0.00  0.00    -0.022 A 
ATOM     22  C   UNL     1       1.525  -3.694  -2.615  0.00  0.00    +0.009 A 
ATOM     23  C   UNL     1       1.414  -2.327  -2.455  0.00  0.00    +0.046 A 
BRANCH  18  24
ATOM     24  O   UNL     1       0.671  -0.465  -1.174  0.00  0.00    -0.492 OA
BRANCH  24  26
ATOM     25  C   UNL     1      -0.019   1.526   0.010  0.00  0.00    +0.048 C 
ATOM     26  C   UNL     1       0.002  -0.004   0.002  0.00  0.00    +0.225 C 
ENDBRANCH  24  26
ENDBRANCH  18  24
ENDBRANCH   1  21
TORSDOF 3
