REMARK  Name = ZINC09634023
REMARK  9 active torsions:
REMARK  status: ('A' for Active; 'I' for Inactive)
REMARK    1  A    between atoms: C_1  and  C_2
REMARK    2  A    between atoms: C_6  and  C_8
REMARK    3  A    between atoms: C_11  and  S_19
REMARK    4  A    between atoms: N_12  and  C_13
REMARK    5  A    between atoms: C_13  and  C_14
REMARK    6  A    between atoms: S_19  and  C_20
REMARK    7  A    between atoms: C_20  and  C_21
REMARK    8  A    between atoms: C_21  and  C_23
REMARK    9  A    between atoms: C_23  and  C_33
REMARK                            x       y       z     vdW  Elec       q    Type
REMARK                         _______ _______ _______ _____ _____    ______ ____
ROOT
ATOM      1  C   UNL     1       2.691   3.735  -2.267  0.00  0.00    +0.165 A 
ATOM      2  N   UNL     1       2.305   4.424  -3.315  0.00  0.00    -0.128 NA
ATOM      3  N   UNL     1       1.069   4.752  -3.194  0.00  0.00    -0.122 NA
ATOM      4  C   UNL     1       0.588   4.287  -2.063  0.00  0.00    +0.193 A 
ATOM      5  N   UNL     1       1.601   3.621  -1.435  0.00  0.00    -0.295 N 
ENDROOT
BRANCH   1  11
ATOM      6  C   UNL     1       7.161   2.350  -4.000  0.00  0.00    +0.044 C 
ATOM      7  C   UNL     1       6.194   2.515  -2.856  0.00  0.00    -0.050 A 
ATOM      8  C   UNL     1       6.570   2.147  -1.576  0.00  0.00    +0.003 A 
ATOM      9  C   UNL     1       5.688   2.295  -0.521  0.00  0.00    +0.001 A 
ATOM     10  C   UNL     1       4.427   2.810  -0.738  0.00  0.00    +0.011 A 
ATOM     11  C   UNL     1       4.041   3.183  -2.026  0.00  0.00    +0.020 A 
ATOM     12  C   UNL     1       4.934   3.027  -3.088  0.00  0.00    +0.015 A 
ENDBRANCH   1  11
BRANCH   5  13
ATOM     13  C   UNL     1       1.542   2.933  -0.143  0.00  0.00    +0.200 C 
BRANCH  13  14
ATOM     14  C   UNL     1       1.769   3.927   0.966  0.00  0.00    +0.125 A 
ATOM     15  C   UNL     1       0.830   4.713   1.524  0.00  0.00    +0.046 A 
ATOM     16  C   UNL     1       1.478   5.483   2.517  0.00  0.00    +0.041 A 
ATOM     17  C   UNL     1       2.773   5.122   2.507  0.00  0.00    +0.195 A 
ATOM     18  O   UNL     1       2.944   4.180   1.565  0.00  0.00    -0.466 OA
ENDBRANCH  13  14
ENDBRANCH   5  13
BRANCH   4  19
ATOM     19  S   UNL     1      -1.059   4.487  -1.467  0.00  0.00    -0.078 S 
BRANCH  19  20
ATOM     20  C   UNL     1      -1.768   5.454  -2.822  0.00  0.00    +0.157 C 
BRANCH  20  21
ATOM     21  C   UNL     1      -3.215   5.752  -2.523  0.00  0.00    +0.187 C 
ATOM     22  O   UNL     1      -3.718   5.349  -1.492  0.00  0.00    -0.290 OA
BRANCH  21  23
ATOM     23  C   UNL     1      -3.983   6.495  -3.435  0.00  0.00    +0.131 C 
ATOM     24  C   UNL     1      -5.333   6.773  -3.155  0.00  0.00    +0.114 C 
ATOM     25  N   UNL     1      -6.005   6.373  -2.045  0.00  0.00    -0.300 N 
ATOM     26  C   UNL     1      -7.310   6.843  -2.132  0.00  0.00    +0.054 A 
ATOM     27  C   UNL     1      -8.413   6.737  -1.296  0.00  0.00    +0.025 A 
ATOM     28  C   UNL     1      -9.611   7.319  -1.662  0.00  0.00    +0.002 A 
ATOM     29  C   UNL     1      -9.717   8.007  -2.859  0.00  0.00    +0.002 A 
ATOM     30  C   UNL     1      -8.626   8.118  -3.697  0.00  0.00    +0.025 A 
ATOM     31  C   UNL     1      -7.417   7.537  -3.339  0.00  0.00    +0.054 A 
ATOM     32  N   UNL     1      -6.173   7.479  -3.956  0.00  0.00    -0.300 N 
ATOM     33  H   UNL     1      -5.636   5.851  -1.315  0.00  0.00    +0.153 HD
ATOM     34  H   UNL     1      -5.944   7.874  -4.812  0.00  0.00    +0.153 HD
BRANCH  23  35
ATOM     35  C   UNL     1      -3.390   6.970  -4.649  0.00  0.00    +0.106 C 
ATOM     36  N   UNL     1      -2.921   7.346  -5.612  0.00  0.00    -0.191 NA
ENDBRANCH  23  35
ENDBRANCH  21  23
ENDBRANCH  20  21
ENDBRANCH  19  20
ENDBRANCH   4  19
TORSDOF 8
