REMARK  Name = ZINC04266929
REMARK  17 active torsions:
REMARK  status: ('A' for Active; 'I' for Inactive)
REMARK    1  A    between atoms: C_1  and  C_2
REMARK    2  A    between atoms: C_6  and  C_46
REMARK    3  A    between atoms: C_8  and  O_11
REMARK    4  A    between atoms: O_11  and  C_12
REMARK    5  A    between atoms: C_12  and  C_14
REMARK    6  A    between atoms: C_16  and  C_45
REMARK    7  A    between atoms: C_18  and  C_29
REMARK    8  A    between atoms: N_21  and  N_22
REMARK    9  A    between atoms: C_27  and  C_28
REMARK   10  A    between atoms: C_29  and  O_31
REMARK   11  A    between atoms: O_31  and  C_32
REMARK   12  A    between atoms: C_35  and  C_44
REMARK   13  A    between atoms: C_39  and  C_41
REMARK   14  A    between atoms: C_41  and  C_42
REMARK   15  A    between atoms: C_41  and  C_43
REMARK   16  A    between atoms: C_46  and  C_47
REMARK   17  A    between atoms: C_46  and  C_48
REMARK                            x       y       z     vdW  Elec       q    Type
REMARK                         _______ _______ _______ _____ _____    ______ ____
ROOT
ATOM      1  C   UNL     1      -0.683   6.808  -3.310  0.00  0.00    +0.127 C 
ATOM      2  C   UNL     1      -0.657   5.282  -3.222  0.00  0.00    +0.023 C 
ATOM      3  C   UNL     1      -0.093   4.869  -1.855  0.00  0.00    +0.152 C 
ATOM      4  C   UNL     1      -1.033   5.411  -0.797  0.00  0.00    +0.073 C 
ATOM      5  N   UNL     1      -1.364   4.698   0.237  0.00  0.00    -0.183 NA
ATOM      6  C   UNL     1      -1.560   6.773  -0.984  0.00  0.00    +0.025 C 
ATOM      7  C   UNL     1      -1.399   7.406  -2.136  0.00  0.00    -0.057 C 
ATOM      8  C   UNL     1      -1.966   8.795  -2.274  0.00  0.00    +0.040 C 
ATOM      9  C   UNL     1      -2.077   4.736  -3.377  0.00  0.00    +0.010 C 
ENDROOT
BRANCH   5  10
ATOM     10  N   UNL     1      -2.148   5.259   1.253  0.00  0.00    -0.191 N 
ATOM     11  C   UNL     1      -2.405   4.555   2.373  0.00  0.00    +0.317 C 
ATOM     12  O   UNL     1      -3.019   5.070   3.288  0.00  0.00    -0.251 OA
ATOM     13  N   UNL     1      -1.982   3.280   2.479  0.00  0.00    -0.312 N 
ATOM     14  H   UNL     1      -2.507   6.155   1.151  0.00  0.00    +0.179 HD
ATOM     15  H   UNL     1      -1.552   2.847   1.725  0.00  0.00    +0.147 HD
ATOM     16  H   UNL     1      -2.107   2.795   3.310  0.00  0.00    +0.147 HD
ENDBRANCH   5  10
BRANCH   1  17
ATOM     17  C   UNL     1      -1.385   7.217  -4.578  0.00  0.00    +0.315 C 
ATOM     18  O   UNL     1      -2.585   7.364  -4.585  0.00  0.00    -0.250 OA
BRANCH  17  19
ATOM     19  O   UNL     1      -0.679   7.420  -5.701  0.00  0.00    -0.461 OA
BRANCH  19  25
ATOM     20  C   UNL     1      -3.377   6.109  -9.618  0.00  0.00    +0.007 C 
ATOM     21  C   UNL     1      -2.772   7.282  -8.844  0.00  0.00    -0.011 C 
ATOM     22  C   UNL     1      -1.812   8.052  -9.753  0.00  0.00    +0.004 C 
ATOM     23  C   UNL     1      -1.207   9.225  -8.978  0.00  0.00    +0.007 C 
ATOM     24  C   UNL     1      -0.443   8.694  -7.763  0.00  0.00    +0.032 C 
ATOM     25  C   UNL     1      -1.403   7.924  -6.854  0.00  0.00    +0.180 C 
ATOM     26  C   UNL     1      -2.008   6.751  -7.629  0.00  0.00    +0.048 C 
BRANCH  24  27
ATOM     27  C   UNL     1       0.162   9.867  -6.989  0.00  0.00    -0.011 C 
ATOM     28  C   UNL     1       1.235  10.543  -7.844  0.00  0.00    +0.007 C 
ATOM     29  C   UNL     1      -0.936  10.878  -6.655  0.00  0.00    +0.007 C 
ENDBRANCH  24  27
ENDBRANCH  19  25
ENDBRANCH  17  19
ENDBRANCH   1  17
BRANCH   3  30
ATOM     30  C   UNL     1      -0.027   3.366  -1.760  0.00  0.00    +0.317 C 
ATOM     31  O   UNL     1      -0.976   2.745  -1.345  0.00  0.00    -0.250 OA
BRANCH  30  32
ATOM     32  O   UNL     1       1.086   2.719  -2.138  0.00  0.00    -0.461 OA
BRANCH  32  33
ATOM     33  C   UNL     1       1.048   1.268  -2.106  0.00  0.00    +0.180 C 
ATOM     34  C   UNL     1       1.555   0.774  -0.749  0.00  0.00    +0.048 C 
ATOM     35  C   UNL     1       2.993   1.251  -0.538  0.00  0.00    -0.011 C 
ATOM     36  C   UNL     1       3.884   0.692  -1.649  0.00  0.00    +0.004 C 
ATOM     37  C   UNL     1       3.377   1.186  -3.006  0.00  0.00    +0.007 C 
ATOM     38  C   UNL     1       1.938   0.709  -3.217  0.00  0.00    +0.032 C 
ATOM     39  C   UNL     1       3.034   2.780  -0.572  0.00  0.00    +0.007 C 
BRANCH  38  40
ATOM     40  C   UNL     1       1.432   1.203  -4.574  0.00  0.00    -0.011 C 
ATOM     41  C   UNL     1       2.322   0.644  -5.685  0.00  0.00    +0.007 C 
ATOM     42  C   UNL     1      -0.007   0.726  -4.785  0.00  0.00    +0.007 C 
ENDBRANCH  38  40
ENDBRANCH  32  33
ENDBRANCH  30  32
ENDBRANCH   3  30
TORSDOF 9
