REMARK  Name = ZINC20537331
REMARK  4 active torsions:
REMARK  status: ('A' for Active; 'I' for Inactive)
REMARK    1  A    between atoms: C_4  and  O_7
REMARK    2  A    between atoms: O_7  and  C_8
REMARK    3  A    between atoms: C_11  and  C_14
REMARK    4  A    between atoms: C_17  and  C_20
REMARK                            x       y       z     vdW  Elec       q    Type
REMARK                         _______ _______ _______ _____ _____    ______ ____
ROOT
ATOM      1  C   UNL     1       3.882  -6.231   0.069  0.00  0.00    +0.064 A 
ATOM      2  C   UNL     1       2.837  -7.103   0.035  0.00  0.00    +0.110 A 
ATOM      3  N   UNL     1       3.336  -8.344   0.079  0.00  0.00    -0.349 N 
ATOM      4  C   UNL     1       4.639  -8.290   0.139  0.00  0.00    +0.090 A 
ATOM      5  N   UNL     1       5.026  -6.995   0.129  0.00  0.00    -0.343 N 
ATOM      6  H   UNL     1       5.937  -6.665   0.161  0.00  0.00    +0.167 HD
ATOM      7  H   UNL     1       2.810  -9.159   0.068  0.00  0.00    +0.166 HD
ENDROOT
BRANCH   4   8
ATOM      8  C   UNL     1       5.563  -9.479   0.201  0.00  0.00    +0.079 C 
ATOM      9  C   UNL     1       5.781 -10.084  -1.205  0.00  0.00    +0.108 C 
ATOM     10  C   UNL     1       5.844 -11.576  -0.960  0.00  0.00    +0.214 C 
ATOM     11  O   UNL     1       6.277 -12.391  -1.746  0.00  0.00    -0.276 OA
ATOM     12  N   UNL     1       5.349 -11.866   0.256  0.00  0.00    -0.315 N 
ATOM     13  C   UNL     1       4.900 -10.654   0.953  0.00  0.00    +0.115 C 
ATOM     14  H   UNL     1       5.296 -12.761   0.626  0.00  0.00    +0.149 HD
ENDBRANCH   4   8
BRANCH   1  18
ATOM     15  C   UNL     1       3.657  -1.988  -0.010  0.00  0.00    +0.128 A 
ATOM     16  C   UNL     1       2.493  -2.744  -0.046  0.00  0.00    +0.047 A 
ATOM     17  C   UNL     1       2.562  -4.121  -0.021  0.00  0.00    +0.013 A 
ATOM     18  C   UNL     1       3.804  -4.755   0.041  0.00  0.00    -0.000 A 
ATOM     19  C   UNL     1       4.972  -3.992   0.077  0.00  0.00    +0.013 A 
ATOM     20  C   UNL     1       4.895  -2.615   0.046  0.00  0.00    +0.047 A 
BRANCH  15  21
ATOM     21  O   UNL     1       3.586  -0.632  -0.036  0.00  0.00    -0.456 OA
BRANCH  21  25
ATOM     22  C   UNL     1       3.335   1.363   3.566  0.00  0.00    +0.000 A 
ATOM     23  C   UNL     1       3.418  -0.017   3.546  0.00  0.00    +0.004 A 
ATOM     24  C   UNL     1       3.502  -0.687   2.341  0.00  0.00    +0.046 A 
ATOM     25  C   UNL     1       3.503   0.025   1.150  0.00  0.00    +0.128 A 
ATOM     26  C   UNL     1       3.420   1.410   1.174  0.00  0.00    +0.046 A 
ATOM     27  C   UNL     1       3.336   2.076   2.381  0.00  0.00    +0.004 A 
ENDBRANCH  21  25
ENDBRANCH  15  21
ENDBRANCH   1  18
TORSDOF 4
