REMARK  Name = ZINC02755123
REMARK  5 active torsions:
REMARK  status: ('A' for Active; 'I' for Inactive)
REMARK    1  A    between atoms: C_1  and  C_2
REMARK    2  A    between atoms: C_5  and  C_8
REMARK    3  A    between atoms: C_9  and  C_23
REMARK    4  A    between atoms: C_14  and  C_16
REMARK    5  A    between atoms: N_19  and  C_21
REMARK                            x       y       z     vdW  Elec       q    Type
REMARK                         _______ _______ _______ _____ _____    ______ ____
ROOT
ATOM      1  C   UNL     1      -3.310  -5.042   0.005  0.00  0.00    +0.083 A 
ATOM      2  C   UNL     1      -4.478  -4.330   0.020  0.00  0.00    +0.016 A 
ATOM      3  S   UNL     1      -3.846  -2.658   0.030  0.00  0.00    -0.057 S 
ATOM      4  C   UNL     1      -2.109  -3.075   0.004  0.00  0.00    +0.165 A 
ATOM      5  N   UNL     1      -2.155  -4.394  -0.002  0.00  0.00    -0.224 NA
ATOM      6  N   UNL     1      -1.003  -2.235  -0.001  0.00  0.00    -0.259 N 
ATOM      7  C   UNL     1      -1.173  -0.897   0.008  0.00  0.00    +0.271 C 
ATOM      8  O   UNL     1      -2.294  -0.427   0.020  0.00  0.00    -0.268 OA
ATOM      9  C   UNL     1      -5.903  -4.821   0.031  0.00  0.00    +0.054 C 
ATOM     10  H   UNL     1      -0.109  -2.610  -0.011  0.00  0.00    +0.157 HD
ENDROOT
BRANCH   1  15
ATOM     11  C   UNL     1      -3.415 -10.800  -0.022  0.00  0.00    +0.044 C 
ATOM     12  C   UNL     1      -3.387  -9.293  -0.015  0.00  0.00    -0.050 A 
ATOM     13  C   UNL     1      -2.399  -8.618  -0.710  0.00  0.00    +0.004 A 
ATOM     14  C   UNL     1      -2.369  -7.239  -0.707  0.00  0.00    +0.010 A 
ATOM     15  C   UNL     1      -3.337  -6.525  -0.002  0.00  0.00    +0.001 A 
ATOM     16  C   UNL     1      -4.328  -7.210   0.700  0.00  0.00    +0.010 A 
ATOM     17  C   UNL     1      -4.350  -8.589   0.686  0.00  0.00    +0.004 A 
ENDBRANCH   1  15
BRANCH   7  18
ATOM     18  C   UNL     1       0.002  -0.004   0.002  0.00  0.00    +0.161 A 
ATOM     19  C   UNL     1      -0.017   1.411   0.010  0.00  0.00    +0.068 A 
ATOM     20  C   UNL     1       1.283   1.792  -0.001  0.00  0.00    +0.124 A 
ATOM     21  N   UNL     1       2.030   0.660  -0.014  0.00  0.00    -0.273 N 
ATOM     22  N   UNL     1       1.267  -0.374  -0.012  0.00  0.00    -0.166 NA
ATOM     23  C   UNL     1       3.495   0.622  -0.028  0.00  0.00    +0.172 C 
ATOM     24 BR   UNL     1      -1.538   2.535   0.023  0.00  0.00    -0.046 Br
ENDBRANCH   7  18
TORSDOF 2
