REMARK  Name = ZINC22713557
REMARK  6 active torsions:
REMARK  status: ('A' for Active; 'I' for Inactive)
REMARK    1  A    between atoms: C_1  and  O_2
REMARK    2  A    between atoms: O_2  and  C_3
REMARK    3  A    between atoms: C_6  and  O_35
REMARK    4  A    between atoms: C_7  and  N_9
REMARK    5  A    between atoms: N_22  and  C_23
REMARK    6  A    between atoms: O_35  and  C_36
REMARK                            x       y       z     vdW  Elec       q    Type
REMARK                         _______ _______ _______ _____ _____    ______ ____
ROOT
ATOM      1  N   UNL     1      -2.539  -4.066   0.015  0.00  0.00    -0.236 N 
ATOM      2  C   UNL     1      -2.581  -5.079  -0.917  0.00  0.00    +0.195 C 
ATOM      3  N   UNL     1      -3.152  -5.984  -0.050  0.00  0.00    -0.284 N 
ATOM      4  C   UNL     1      -2.576  -5.144   1.004  0.00  0.00    +0.214 C 
ATOM      5  C   UNL     1      -1.250  -5.587   1.554  0.00  0.00    +0.025 A 
ATOM      6  C   UNL     1      -0.054  -5.948   0.973  0.00  0.00    +0.010 A 
ATOM      7  C   UNL     1       1.017  -6.317   1.767  0.00  0.00    +0.001 A 
ATOM      8  C   UNL     1       0.885  -6.323   3.143  0.00  0.00    +0.002 A 
ATOM      9  C   UNL     1      -0.310  -5.962   3.729  0.00  0.00    +0.024 A 
ATOM     10  C   UNL     1      -1.394  -5.588   2.938  0.00  0.00    +0.041 A 
ATOM     11  N   UNL     1      -2.685  -5.186   3.290  0.00  0.00    -0.282 N 
ATOM     12  C   UNL     1      -3.442  -4.907   2.211  0.00  0.00    +0.265 C 
ATOM     13  O   UNL     1      -4.597  -4.536   2.212  0.00  0.00    -0.271 OA
ATOM     14  N   UNL     1      -2.207  -5.154  -2.189  0.00  0.00    -0.182 NA
ATOM     15  H   UNL     1      -3.000  -5.117   4.205  0.00  0.00    +0.155 HD
ATOM     16  H   UNL     1      -3.682  -6.795  -0.109  0.00  0.00    +0.152 HD
ENDROOT
BRANCH  14  17
ATOM     17  C   UNL     1      -2.371  -6.295  -2.867  0.00  0.00    +0.233 C 
ATOM     18  N   UNL     1      -2.917  -7.438  -2.348  0.00  0.00    -0.208 NA
ATOM     19  C   UNL     1      -2.932  -8.357  -3.264  0.00  0.00    +0.119 C 
ATOM     20  C   UNL     1      -3.262  -9.743  -3.674  0.00  0.00    +0.029 A 
ATOM     21  C   UNL     1      -3.827 -10.825  -3.031  0.00  0.00    +0.012 A 
ATOM     22  C   UNL     1      -4.007 -12.025  -3.718  0.00  0.00    +0.001 A 
ATOM     23  C   UNL     1      -3.621 -12.130  -5.036  0.00  0.00    +0.002 A 
ATOM     24  C   UNL     1      -3.050 -11.045  -5.694  0.00  0.00    +0.028 A 
ATOM     25  C   UNL     1      -2.864  -9.841  -5.024  0.00  0.00    +0.076 A 
ATOM     26  N   UNL     1      -2.336  -8.645  -5.431  0.00  0.00    -0.227 NA
ATOM     27  C   UNL     1      -2.336  -7.742  -4.489  0.00  0.00    +0.161 C 
ATOM     28  N   UNL     1      -2.031  -6.473  -4.139  0.00  0.00    -0.307 N 
ATOM     29  H   UNL     1      -1.629  -5.806  -4.718  0.00  0.00    +0.170 HD
ENDBRANCH  14  17
BRANCH   1  34
ATOM     30  C   UNL     1      -1.201  -0.638   0.010  0.00  0.00    +0.122 A 
ATOM     31  C   UNL     1      -2.374   0.103   0.019  0.00  0.00    +0.049 A 
ATOM     32  C   UNL     1      -3.599  -0.538   0.027  0.00  0.00    +0.051 A 
ATOM     33  C   UNL     1      -3.659  -1.922   0.026  0.00  0.00    +0.142 A 
ATOM     34  C   UNL     1      -2.482  -2.668   0.016  0.00  0.00    +0.084 A 
ATOM     35  C   UNL     1      -1.254  -2.023   0.003  0.00  0.00    +0.073 A 
BRANCH  30  37
ATOM     36  C   UNL     1      -0.017   1.425   0.010  0.00  0.00    +0.277 C 
ATOM     37  O   UNL     1       0.002  -0.004   0.002  0.00  0.00    -0.495 OA
ENDBRANCH  30  37
BRANCH  33  38
ATOM     38  O   UNL     1      -4.865  -2.551   0.034  0.00  0.00    -0.493 OA
ATOM     39  C   UNL     1      -6.029  -1.723   0.044  0.00  0.00    +0.277 C 
ENDBRANCH  33  38
ENDBRANCH   1  34
TORSDOF 4
