REMARK  Name = ZINC16491689
REMARK  11 active torsions:
REMARK  status: ('A' for Active; 'I' for Inactive)
REMARK    1  A    between atoms: C_1  and  C_2
REMARK    2  A    between atoms: C_4  and  C_35
REMARK    3  A    between atoms: C_6  and  S_8
REMARK    4  A    between atoms: S_8  and  C_9
REMARK    5  A    between atoms: C_9  and  C_10
REMARK    6  A    between atoms: C_13  and  C_16
REMARK    7  A    between atoms: N_18  and  N_19
REMARK    8  A    between atoms: C_20  and  C_22
REMARK    9  A    between atoms: C_22  and  C_23
REMARK   10  A    between atoms: C_23  and  C_24
REMARK   11  A    between atoms: C_24  and  C_25
REMARK                            x       y       z     vdW  Elec       q    Type
REMARK                         _______ _______ _______ _____ _____    ______ ____
ROOT
ATOM      1  C   UNL     1      -0.345   1.307  -6.060  0.00  0.00    +0.260 C 
ATOM      2  O   UNL     1      -1.343   1.992  -6.158  0.00  0.00    -0.269 OA
ATOM      3  N   UNL     1       0.132   0.981  -4.842  0.00  0.00    -0.230 N 
ATOM      4  H   UNL     1       0.929   0.433  -4.763  0.00  0.00    +0.173 HD
ENDROOT
BRANCH   1   8
ATOM      5  C   UNL     1       1.644  -0.063  -9.555  0.00  0.00    -0.037 A 
ATOM      6  C   UNL     1       0.507   0.718  -9.670  0.00  0.00    +0.005 A 
ATOM      7  C   UNL     1      -0.143   1.165  -8.539  0.00  0.00    +0.013 A 
ATOM      8  C   UNL     1       0.347   0.830  -7.276  0.00  0.00    +0.038 A 
ATOM      9  C   UNL     1       1.498   0.047  -7.167  0.00  0.00    +0.013 A 
ATOM     10  C   UNL     1       2.136  -0.399  -8.306  0.00  0.00    +0.005 A 
BRANCH   5  11
ATOM     11  C   UNL     1       2.349  -0.549 -10.794  0.00  0.00    +0.112 C 
BRANCH  11  12
ATOM     12  S   UNL     1       3.598   0.663 -11.293  0.00  0.00    -0.081 S 
BRANCH  12  18
ATOM     13  C   UNL     1       3.644  -3.270 -14.568  0.00  0.00    +0.066 C 
ATOM     14  C   UNL     1       4.215  -1.937 -14.157  0.00  0.00    +0.043 A 
ATOM     15  C   UNL     1       5.233  -1.353 -14.895  0.00  0.00    +0.046 A 
ATOM     16  C   UNL     1       5.729  -0.126 -14.483  0.00  0.00    +0.043 A 
ATOM     17  N   UNL     1       5.220   0.448 -13.406  0.00  0.00    -0.227 NA
ATOM     18  C   UNL     1       4.247  -0.137 -12.723  0.00  0.00    +0.189 A 
ATOM     19  N   UNL     1       3.753  -1.313 -13.086  0.00  0.00    -0.227 NA
ATOM     20  C   UNL     1       6.836   0.547 -15.255  0.00  0.00    +0.066 C 
ENDBRANCH  12  18
ENDBRANCH  11  12
ENDBRANCH   5  11
ENDBRANCH   1   8
BRANCH   3  21
ATOM     21  N   UNL     1      -0.524   1.433  -3.689  0.00  0.00    -0.234 N 
ATOM     22  C   UNL     1      -0.047   1.107  -2.471  0.00  0.00    +0.229 C 
ATOM     23  O   UNL     1       0.949   0.422  -2.373  0.00  0.00    -0.274 OA
ATOM     24  H   UNL     1      -1.321   1.980  -3.768  0.00  0.00    +0.173 HD
BRANCH  22  25
ATOM     25  C   UNL     1      -0.753   1.593  -1.232  0.00  0.00    +0.097 C 
BRANCH  25  26
ATOM     26  C   UNL     1      -0.013   1.086   0.008  0.00  0.00    +0.014 C 
BRANCH  26  27
ATOM     27  C   UNL     1      -0.729   1.579   1.267  0.00  0.00    +0.038 C 
BRANCH  27  28
ATOM     28  C   UNL     1       0.000   1.080   2.488  0.00  0.00    -0.022 A 
ATOM     29  C   UNL     1      -0.289  -0.024   3.194  0.00  0.00    +0.087 A 
ATOM     30  N   UNL     1       0.591  -0.156   4.234  0.00  0.00    -0.360 N 
ATOM     31  H   UNL     1       0.584  -0.878   4.882  0.00  0.00    +0.165 HD
ATOM     32  C   UNL     1       1.485   0.891   4.226  0.00  0.00    +0.047 A 
ATOM     33  C   UNL     1       1.154   1.711   3.132  0.00  0.00    +0.003 A 
ATOM     34  C   UNL     1       1.901   2.862   2.874  0.00  0.00    +0.010 A 
ATOM     35  C   UNL     1       2.951   3.186   3.686  0.00  0.00    +0.001 A 
ATOM     36  C   UNL     1       3.281   2.381   4.767  0.00  0.00    +0.002 A 
ATOM     37  C   UNL     1       2.558   1.240   5.040  0.00  0.00    +0.026 A 
ENDBRANCH  27  28
ENDBRANCH  26  27
ENDBRANCH  25  26
ENDBRANCH  22  25
ENDBRANCH   3  21
TORSDOF 9
