REMARK  Name = ZINC65965896
REMARK  5 active torsions:
REMARK  status: ('A' for Active; 'I' for Inactive)
REMARK    1  A    between atoms: C_4  and  N_7
REMARK    2  A    between atoms: C_8  and  C_10
REMARK    3  A    between atoms: C_10  and  N_11
REMARK    4  A    between atoms: C_15  and  C_17
REMARK    5  A    between atoms: N_19  and  C_20
REMARK                            x       y       z     vdW  Elec       q    Type
REMARK                         _______ _______ _______ _____ _____    ______ ____
ROOT
ATOM      1  N   UNL     1       4.679  -3.481  -3.480  0.00  0.00    +0.386 N 
ATOM      2  C   UNL     1       5.712  -3.404  -2.441  0.00  0.00    -0.078 C 
ATOM      3  C   UNL     1       6.230  -4.809  -2.126  0.00  0.00    -0.018 C 
ATOM      4  C   UNL     1       6.827  -5.423  -3.396  0.00  0.00    +0.009 C 
ATOM      5  C   UNL     1       5.762  -5.430  -4.497  0.00  0.00    +0.058 C 
ATOM      6  C   UNL     1       5.261  -4.002  -4.723  0.00  0.00    -0.065 C 
ATOM      7  H   UNL     1       3.940  -4.096  -3.173  0.00  0.00    -0.081 HD
ENDROOT
BRANCH   5   8
ATOM      8  C   UNL     1       6.361  -5.962  -5.773  0.00  0.00    +0.215 C 
ATOM      9  O   UNL     1       6.381  -5.269  -6.768  0.00  0.00    -0.276 OA
ATOM     10  N   UNL     1       6.874  -7.208  -5.809  0.00  0.00    -0.312 N 
ATOM     11  H   UNL     1       6.857  -7.762  -5.013  0.00  0.00    +0.149 HD
BRANCH  10  12
ATOM     12  C   UNL     1       7.456  -7.725  -7.050  0.00  0.00    +0.073 C 
ATOM     13  C   UNL     1       6.349  -8.313  -7.927  0.00  0.00    +0.022 C 
ATOM     14  C   UNL     1       6.957  -8.853  -9.223  0.00  0.00    +0.002 C 
ATOM     15  C   UNL     1       7.978  -9.943  -8.892  0.00  0.00    +0.000 C 
ATOM     16  C   UNL     1       9.086  -9.354  -8.015  0.00  0.00    +0.002 C 
ATOM     17  C   UNL     1       8.478  -8.814  -6.719  0.00  0.00    +0.022 C 
ENDBRANCH  10  12
ENDBRANCH   5   8
BRANCH   1  18
ATOM     18  C   UNL     1       4.130  -2.140  -3.723  0.00  0.00    +0.019 C 
BRANCH  18  20
ATOM     19  N   UNL     1       2.839  -0.440  -2.473  0.00  0.00    -0.314 N 
ATOM     20  C   UNL     1       3.424  -1.655  -2.483  0.00  0.00    +0.197 C 
ATOM     21  O   UNL     1       3.383  -2.356  -1.495  0.00  0.00    -0.278 OA
ATOM     22  H   UNL     1       2.872   0.121  -3.264  0.00  0.00    +0.149 HD
BRANCH  19  26
ATOM     23  C   UNL     1      -0.019   1.526   0.010  0.00  0.00    +0.000 C 
ATOM     24  C   UNL     1       1.417   2.055  -0.000  0.00  0.00    +0.002 C 
ATOM     25  C   UNL     1       2.133   1.562  -1.259  0.00  0.00    +0.022 C 
ATOM     26  C   UNL     1       2.154   0.032  -1.268  0.00  0.00    +0.073 C 
ATOM     27  C   UNL     1       0.718  -0.497  -1.257  0.00  0.00    +0.022 C 
ATOM     28  C   UNL     1       0.002  -0.004   0.002  0.00  0.00    +0.002 C 
ENDBRANCH  19  26
ENDBRANCH  18  20
ENDBRANCH   1  18
TORSDOF 5
