REMARK  Name = ZINC09403082
REMARK  9 active torsions:
REMARK  status: ('A' for Active; 'I' for Inactive)
REMARK    1  A    between atoms: C_1  and  C_2
REMARK    2  A    between atoms: C_2  and  N_3
REMARK    3  A    between atoms: N_3  and  C_4
REMARK    4  A    between atoms: N_3  and  S_6
REMARK    5  A    between atoms: C_4  and  C_5
REMARK    6  A    between atoms: S_6  and  C_9
REMARK    7  A    between atoms: C_13  and  N_15
REMARK    8  A    between atoms: C_16  and  C_18
REMARK    9  A    between atoms: C_18  and  N_19
REMARK                            x       y       z     vdW  Elec       q    Type
REMARK                         _______ _______ _______ _____ _____    ______ ____
ROOT
ATOM      1  N   UNL     1      -1.156  -0.694   0.009  0.00  0.00    -0.283 N 
ATOM      2  C   UNL     1       0.002  -0.004  -0.002  0.00  0.00    +0.235 C 
ATOM      3  O   UNL     1       1.061  -0.596  -0.008  0.00  0.00    -0.274 OA
ATOM      4  H   UNL     1      -2.000  -0.224   0.096  0.00  0.00    +0.155 HD
ENDROOT
BRANCH   1   9
ATOM      5  C   UNL     1      -0.058  -4.102  -0.830  0.00  0.00    +0.107 A 
ATOM      6  C   UNL     1      -1.110  -4.847  -0.329  0.00  0.00    +0.030 A 
ATOM      7  C   UNL     1      -2.177  -4.218   0.284  0.00  0.00    +0.024 A 
ATOM      8  C   UNL     1      -2.196  -2.840   0.398  0.00  0.00    +0.062 A 
ATOM      9  C   UNL     1      -1.140  -2.089  -0.104  0.00  0.00    +0.054 A 
ATOM     10  C   UNL     1      -0.073  -2.725  -0.723  0.00  0.00    +0.053 A 
ATOM     11 CL   UNL     1      -3.536  -2.050   1.168  0.00  0.00    -0.082 Cl
BRANCH   5  12
ATOM     12  S   UNL     1       1.300  -4.910  -1.610  0.00  0.00    +0.061 S 
ATOM     13  O   UNL     1       2.410  -4.029  -1.507  0.00  0.00    -0.153 OA
ATOM     14  O   UNL     1       1.330  -6.236  -1.101  0.00  0.00    -0.153 OA
BRANCH  12  15
ATOM     15  N   UNL     1       0.938  -5.029  -3.222  0.00  0.00    -0.177 NA
BRANCH  15  17
ATOM     16  C   UNL     1       2.670  -4.305  -4.790  0.00  0.00    +0.022 C 
ATOM     17  C   UNL     1       1.328  -3.957  -4.141  0.00  0.00    +0.106 C 
ENDBRANCH  15  17
BRANCH  15  18
ATOM     18  C   UNL     1       0.228  -6.206  -3.728  0.00  0.00    +0.106 C 
ATOM     19  C   UNL     1      -1.272  -5.911  -3.787  0.00  0.00    +0.022 C 
ENDBRANCH  15  18
ENDBRANCH  12  15
ENDBRANCH   5  12
ENDBRANCH   1   9
BRANCH   2  20
ATOM     20  C   UNL     1      -0.019   1.503  -0.005  0.00  0.00    +0.214 C 
BRANCH  20  21
ATOM     21  N   UNL     1       1.355   2.010  -0.017  0.00  0.00    -0.215 N 
ATOM     22  C   UNL     1       2.056   2.270  -1.138  0.00  0.00    +0.247 C 
ATOM     23  O   UNL     1       1.682   2.129  -2.283  0.00  0.00    -0.273 OA
ATOM     24  C   UNL     1       3.411   2.774  -0.672  0.00  0.00    +0.113 C 
ATOM     25  C   UNL     1       3.536   4.256  -1.092  0.00  0.00    +0.035 C 
ATOM     26  C   UNL     1       4.528   4.933  -0.188  0.00  0.00    +0.003 C 
ATOM     27  C   UNL     1       5.954   4.945  -0.773  0.00  0.00    +0.000 C 
ATOM     28  C   UNL     1       6.339   3.608  -1.435  0.00  0.00    +0.000 C 
ATOM     29  C   UNL     1       5.881   2.420  -0.632  0.00  0.00    +0.003 C 
ATOM     30  C   UNL     1       4.513   1.964  -1.175  0.00  0.00    +0.035 C 
ATOM     31  N   UNL     1       3.301   2.730   0.800  0.00  0.00    -0.285 N 
ATOM     32  C   UNL     1       2.067   2.279   1.083  0.00  0.00    +0.310 C 
ATOM     33  O   UNL     1       1.645   2.129   2.213  0.00  0.00    -0.252 OA
ATOM     34  H   UNL     1       3.985   2.981   1.440  0.00  0.00    +0.151 HD
ENDBRANCH  20  21
ENDBRANCH   2  20
TORSDOF 7
