REMARK  Name = ZINC21254618
REMARK  7 active torsions:
REMARK  status: ('A' for Active; 'I' for Inactive)
REMARK    1  A    between atoms: C_1  and  C_2
REMARK    2  A    between atoms: C_2  and  O_3
REMARK    3  A    between atoms: O_3  and  C_4
REMARK    4  A    between atoms: C_7  and  C_12
REMARK    5  A    between atoms: C_9  and  O_10
REMARK    6  A    between atoms: O_10  and  C_11
REMARK    7  A    between atoms: C_17  and  C_23
REMARK                            x       y       z     vdW  Elec       q    Type
REMARK                         _______ _______ _______ _____ _____    ______ ____
ROOT
ATOM      1  C   UNL     1      -0.728   1.579   1.268  0.00  0.00    +0.032 C 
ATOM      2  C   UNL     1      -0.013   1.086   0.008  0.00  0.00    +0.059 C 
ATOM      3  C   UNL     1      -0.741   1.585  -1.215  0.00  0.00    +0.018 C 
ATOM      4  C   UNL     1      -1.408   2.758  -1.192  0.00  0.00    +0.020 C 
ATOM      5  C   UNL     1      -2.125   3.240  -2.431  0.00  0.00    +0.064 C 
ATOM      6  C   UNL     1      -2.700   2.039  -3.185  0.00  0.00    +0.109 C 
ATOM      7  C   UNL     1      -1.630   0.987  -3.324  0.00  0.00    +0.218 C 
ATOM      8  O   UNL     1      -1.597   0.286  -4.313  0.00  0.00    -0.275 OA
ATOM      9  N   UNL     1      -0.713   0.823  -2.355  0.00  0.00    -0.289 N 
ATOM     10  C   UNL     1      -1.455   3.550  -0.033  0.00  0.00    +0.162 C 
ATOM     11  O   UNL     1      -2.054   4.607  -0.055  0.00  0.00    -0.292 OA
ATOM     12  C   UNL     1      -0.775   3.110   1.236  0.00  0.00    +0.088 C 
ATOM     13  H   UNL     1       0.069   0.061  -2.489  0.00  0.00    +0.155 HD
ENDROOT
BRANCH   5  14
ATOM     14  C   UNL     1      -1.155   3.975  -3.320  0.00  0.00    -0.022 A 
ATOM     15  C   UNL     1      -0.036   3.324  -3.807  0.00  0.00    +0.055 A 
ATOM     16  C   UNL     1       0.854   3.996  -4.628  0.00  0.00    +0.167 A 
ATOM     17  C   UNL     1       0.625   5.331  -4.954  0.00  0.00    +0.167 A 
ATOM     18  C   UNL     1      -0.495   5.979  -4.459  0.00  0.00    +0.065 A 
ATOM     19  C   UNL     1      -1.383   5.300  -3.644  0.00  0.00    +0.025 A 
ATOM     20 BR   UNL     1      -2.912   6.186  -2.970  0.00  0.00    -0.050 Br
ATOM     21  O   UNL     1       1.637   5.763  -5.761  0.00  0.00    -0.453 OA
ATOM     22  C   UNL     1       2.269   4.569  -6.257  0.00  0.00    +0.466 C 
ATOM     23  O   UNL     1       2.010   3.592  -5.231  0.00  0.00    -0.453 OA
ENDBRANCH   5  14
BRANCH   1  27
ATOM     24  C   UNL     1       1.421   0.287   4.733  0.00  0.00    +0.162 A 
ATOM     25  C   UNL     1       2.037   1.100   3.795  0.00  0.00    +0.050 A 
ATOM     26  C   UNL     1       1.341   1.511   2.673  0.00  0.00    +0.008 A 
ATOM     27  C   UNL     1       0.028   1.122   2.490  0.00  0.00    -0.040 A 
ATOM     28  C   UNL     1      -0.593   0.311   3.421  0.00  0.00    +0.053 A 
ATOM     29  C   UNL     1       0.100  -0.109   4.545  0.00  0.00    +0.162 A 
BRANCH  29  30
ATOM     30  O   UNL     1      -0.509  -0.907   5.463  0.00  0.00    -0.491 OA
ATOM     31  C   UNL     1      -1.866  -1.273   5.205  0.00  0.00    +0.277 C 
ENDBRANCH  29  30
BRANCH  24  32
ATOM     32  O   UNL     1       2.105  -0.123   5.834  0.00  0.00    -0.489 OA
BRANCH  32  34
ATOM     33  C   UNL     1       4.059  -0.237   7.251  0.00  0.00    +0.048 C 
ATOM     34  C   UNL     1       3.457   0.322   5.961  0.00  0.00    +0.226 C 
ENDBRANCH  32  34
ENDBRANCH  24  32
ENDBRANCH   1  27
TORSDOF 5
