REMARK  Name = ZINC52566167
REMARK  7 active torsions:
REMARK  status: ('A' for Active; 'I' for Inactive)
REMARK    1  A    between atoms: C_7  and  C_10
REMARK    2  A    between atoms: C_10  and  C_11
REMARK    3  A    between atoms: C_11  and  C_13
REMARK    4  A    between atoms: C_11  and  N_37
REMARK    5  A    between atoms: C_13  and  O_14
REMARK    6  A    between atoms: O_14  and  C_15
REMARK    7  A    between atoms: C_17  and  C_21
REMARK                            x       y       z     vdW  Elec       q    Type
REMARK                         _______ _______ _______ _____ _____    ______ ____
ROOT
ATOM      1  C   UNL     1      -0.043  -7.489  -2.872  0.00  0.00    +0.139 A 
ATOM      2  C   UNL     1      -0.432  -7.865  -4.152  0.00  0.00    +0.057 A 
ATOM      3  C   UNL     1      -1.346  -8.913  -4.284  0.00  0.00    +0.004 A 
ATOM      4  C   UNL     1      -1.829  -9.537  -3.135  0.00  0.00    +0.119 A 
ATOM      5  N   UNL     1      -1.432  -9.148  -1.941  0.00  0.00    -0.259 NA
ATOM      6  C   UNL     1      -0.567  -8.166  -1.780  0.00  0.00    +0.156 A 
ENDROOT
BRANCH   3   7
ATOM      7  C   UNL     1      -1.796  -9.355  -5.627  0.00  0.00    -0.016 A 
ATOM      8  C   UNL     1      -1.298  -8.722  -6.773  0.00  0.00    +0.010 A 
ATOM      9  C   UNL     1      -1.701  -9.116  -8.015  0.00  0.00    +0.028 A 
ATOM     10  C   UNL     1      -2.617 -10.157  -8.157  0.00  0.00    +0.068 A 
ATOM     11  C   UNL     1      -3.124 -10.801  -7.012  0.00  0.00    +0.042 A 
ATOM     12  C   UNL     1      -2.703 -10.396  -5.744  0.00  0.00    +0.022 A 
ATOM     13  C   UNL     1      -4.046 -11.831  -7.495  0.00  0.00    +0.151 A 
ATOM     14  N   UNL     1      -4.057 -11.772  -8.800  0.00  0.00    -0.158 NA
ATOM     15  N   UNL     1      -3.197 -10.762  -9.242  0.00  0.00    -0.275 N 
ATOM     16  H   UNL     1      -3.036 -10.527 -10.169  0.00  0.00    +0.189 HD
ATOM     17  N   UNL     1      -4.782 -12.716  -6.703  0.00  0.00    -0.309 N 
ATOM     18  C   UNL     1      -4.811 -12.578  -5.238  0.00  0.00    +0.134 C 
ATOM     19  C   UNL     1      -6.274 -12.596  -4.780  0.00  0.00    +0.178 C 
ATOM     20  O   UNL     1      -6.922 -13.749  -5.321  0.00  0.00    -0.377 OA
ATOM     21  C   UNL     1      -6.977 -13.773  -6.749  0.00  0.00    +0.178 C 
ATOM     22  C   UNL     1      -5.555 -13.812  -7.309  0.00  0.00    +0.134 C 
ENDBRANCH   3   7
BRANCH   1  23
ATOM     23  O   UNL     1       0.845  -6.476  -2.693  0.00  0.00    -0.492 OA
BRANCH  23  24
ATOM     24  C   UNL     1       1.199  -6.154  -1.346  0.00  0.00    +0.213 C 
BRANCH  24  25
ATOM     25  C   UNL     1       2.200  -4.997  -1.345  0.00  0.00    -0.033 C 
BRANCH  25  26
ATOM     26  N   UNL     1       1.554  -3.789  -1.876  0.00  0.00    +0.382 N 
ATOM     27  H   UNL     1       0.762  -3.550  -1.298  0.00  0.00    -0.089 HD
ATOM     28  H   UNL     1       2.215  -3.026  -1.875  0.00  0.00    -0.089 HD
ATOM     29  H   UNL     1       1.242  -3.962  -2.820  0.00  0.00    -0.089 HD
ENDBRANCH  25  26
BRANCH  25  30
ATOM     30  C   UNL     1       2.674  -4.734   0.086  0.00  0.00    +0.020 C 
BRANCH  30  37
ATOM     31  C   UNL     1       2.564  -0.187   0.689  0.00  0.00    +0.001 A 
ATOM     32  C   UNL     1       3.822   0.423   0.592  0.00  0.00    +0.002 A 
ATOM     33  C   UNL     1       4.953  -0.271   0.346  0.00  0.00    +0.026 A 
ATOM     34  C   UNL     1       4.906  -1.682   0.171  0.00  0.00    +0.043 A 
ATOM     35  N   UNL     1       5.845  -2.563  -0.074  0.00  0.00    -0.380 N 
ATOM     36  C   UNL     1       5.229  -3.892  -0.160  0.00  0.00    +0.144 C 
ATOM     37  C   UNL     1       3.750  -3.679   0.073  0.00  0.00    -0.043 C 
ATOM     38  C   UNL     1       3.588  -2.351   0.268  0.00  0.00    -0.001 A 
ATOM     39  C   UNL     1       2.408  -1.522   0.539  0.00  0.00    +0.010 A 
ATOM     40  H   UNL     1       6.789  -2.369  -0.181  0.00  0.00    +0.160 HD
ENDBRANCH  30  37
ENDBRANCH  25  30
ENDBRANCH  24  25
ENDBRANCH  23  24
ENDBRANCH   1  23
TORSDOF 7
