REMARK  Name = ZINC67049610
REMARK  8 active torsions:
REMARK  status: ('A' for Active; 'I' for Inactive)
REMARK    1  A    between atoms: C_1  and  C_2
REMARK    2  A    between atoms: C_2  and  C_4
REMARK    3  A    between atoms: C_2  and  N_20
REMARK    4  A    between atoms: N_6  and  C_7
REMARK    5  A    between atoms: C_10  and  N_13
REMARK    6  A    between atoms: N_13  and  C_14
REMARK    7  A    between atoms: C_14  and  C_15
REMARK    8  A    between atoms: N_23  and  C_24
REMARK                            x       y       z     vdW  Elec       q    Type
REMARK                         _______ _______ _______ _____ _____    ______ ____
ROOT
ATOM      1  C   UNL     1      -2.299   1.137  -1.391  0.00  0.00    +0.237 C 
ATOM      2  O   UNL     1      -3.083   1.786  -2.050  0.00  0.00    -0.273 OA
ATOM      3  N   UNL     1      -2.719   0.036  -0.735  0.00  0.00    -0.284 N 
ATOM      4  H   UNL     1      -2.080  -0.520  -0.263  0.00  0.00    +0.155 HD
ENDROOT
BRANCH   3   5
ATOM      5  C   UNL     1      -4.078  -0.303  -0.735  0.00  0.00    +0.034 A 
ATOM      6  C   UNL     1      -4.652  -0.870   0.395  0.00  0.00    +0.025 A 
ATOM      7  C   UNL     1      -5.992  -1.204   0.395  0.00  0.00    +0.025 A 
ATOM      8  C   UNL     1      -6.765  -0.974  -0.735  0.00  0.00    +0.027 A 
ATOM      9  C   UNL     1      -6.191  -0.407  -1.866  0.00  0.00    +0.025 A 
ATOM     10  C   UNL     1      -4.852  -0.068  -1.864  0.00  0.00    +0.025 A 
BRANCH   8  11
ATOM     11  N   UNL     1      -8.122  -1.313  -0.735  0.00  0.00    -0.344 N 
ATOM     12  H   UNL     1      -8.524  -1.709   0.054  0.00  0.00    +0.146 HD
BRANCH  11  13
ATOM     13  C   UNL     1      -8.938  -1.070  -1.928  0.00  0.00    +0.105 C 
BRANCH  13  14
ATOM     14  C   UNL     1     -10.374  -1.527  -1.665  0.00  0.00    +0.006 C 
ATOM     15  C   UNL     1     -10.423  -3.063  -1.528  0.00  0.00    +0.005 C 
ATOM     16  C   UNL     1     -11.757  -3.463  -2.206  0.00  0.00    +0.000 C 
ATOM     17  C   UNL     1     -11.832  -2.493  -3.411  0.00  0.00    +0.000 C 
ATOM     18  C   UNL     1     -11.270  -1.165  -2.863  0.00  0.00    +0.005 C 
ENDBRANCH  13  14
ENDBRANCH  11  13
ENDBRANCH   8  11
ENDBRANCH   3   5
BRANCH   1  20
ATOM     19  C   UNL     1       0.038   0.443  -1.848  0.00  0.00    +0.038 C 
ATOM     20  C   UNL     1      -0.855   1.560  -1.304  0.00  0.00    +0.158 C 
BRANCH  20  21
ATOM     21  N   UNL     1      -0.654   2.775  -2.098  0.00  0.00    -0.288 N 
ATOM     22  C   UNL     1       0.357   3.615  -1.801  0.00  0.00    +0.304 C 
ATOM     23  O   UNL     1       1.103   3.364  -0.874  0.00  0.00    -0.252 OA
ATOM     24  N   UNL     1       0.542   4.732  -2.530  0.00  0.00    -0.269 N 
ATOM     25  H   UNL     1      -1.249   2.975  -2.837  0.00  0.00    +0.151 HD
ATOM     26  H   UNL     1      -0.096   4.971  -3.221  0.00  0.00    +0.156 HD
BRANCH  24  27
ATOM     27  C   UNL     1       1.654   5.548  -2.292  0.00  0.00    +0.035 A 
ATOM     28  C   UNL     1       1.554   6.924  -2.452  0.00  0.00    +0.023 A 
ATOM     29  C   UNL     1       2.653   7.726  -2.216  0.00  0.00    +0.002 A 
ATOM     30  C   UNL     1       3.852   7.161  -1.819  0.00  0.00    +0.000 A 
ATOM     31  C   UNL     1       3.954   5.792  -1.659  0.00  0.00    +0.002 A 
ATOM     32  C   UNL     1       2.857   4.984  -1.889  0.00  0.00    +0.023 A 
ENDBRANCH  24  27
ENDBRANCH  20  21
ENDBRANCH   1  20
TORSDOF 7
