REMARK  Name = ZINC64518423
REMARK  8 active torsions:
REMARK  status: ('A' for Active; 'I' for Inactive)
REMARK    1  A    between atoms: C_2  and  C_3
REMARK    2  A    between atoms: C_3  and  N_4
REMARK    3  A    between atoms: N_11  and  C_16
REMARK    4  A    between atoms: C_16  and  C_17
REMARK    5  A    between atoms: C_17  and  C_18
REMARK    6  A    between atoms: N_20  and  C_21
REMARK    7  A    between atoms: C_21  and  C_22
REMARK    8  A    between atoms: C_22  and  C_23
REMARK                            x       y       z     vdW  Elec       q    Type
REMARK                         _______ _______ _______ _____ _____    ______ ____
ROOT
ATOM      1  C   UNL     1      -0.121  -4.211  -5.280  0.00  0.00    +0.117 C 
ENDROOT
BRANCH   1   2
ATOM      2  C   UNL     1      -0.160  -5.138  -6.468  0.00  0.00    +0.215 C 
ATOM      3  O   UNL     1      -1.129  -5.843  -6.655  0.00  0.00    -0.276 OA
ATOM      4  N   UNL     1       0.881  -5.184  -7.322  0.00  0.00    -0.315 N 
ATOM      5  H   UNL     1       1.656  -4.620  -7.173  0.00  0.00    +0.149 HD
BRANCH   4   6
ATOM      6  C   UNL     1       0.843  -6.085  -8.476  0.00  0.00    +0.108 C 
BRANCH   6   7
ATOM      7  C   UNL     1       2.139  -5.942  -9.278  0.00  0.00    +0.052 C 
BRANCH   7   8
ATOM      8  C   UNL     1       2.099  -6.870 -10.465  0.00  0.00    -0.040 C 
ATOM      9  C   UNL     1       1.717  -6.561 -11.725  0.00  0.00    +0.000 A 
ATOM     10  C   UNL     1       1.241  -5.318 -12.344  0.00  0.00    +0.030 A 
ATOM     11  C   UNL     1       0.926  -5.318 -13.660  0.00  0.00    +0.042 A 
ATOM     12  C   UNL     1       1.042  -6.475 -14.445  0.00  0.00    +0.022 A 
ATOM     13  C   UNL     1       1.472  -7.653 -13.948  0.00  0.00    +0.027 A 
ATOM     14  C   UNL     1       1.831  -7.767 -12.576  0.00  0.00    +0.043 A 
ATOM     15  N   UNL     1       2.268  -8.781 -11.870  0.00  0.00    -0.380 N 
ATOM     16  C   UNL     1       2.486  -8.331 -10.490  0.00  0.00    +0.144 C 
ATOM     17 CL   UNL     1       0.362  -3.850 -14.395  0.00  0.00    -0.084 Cl
ATOM     18  H   UNL     1       2.424  -9.678 -12.204  0.00  0.00    +0.160 HD
ENDBRANCH   7   8
ENDBRANCH   6   7
ENDBRANCH   4   6
ENDBRANCH   1   2
BRANCH   1  19
ATOM     19  C   UNL     1      -1.416  -4.354  -4.479  0.00  0.00    +0.135 C 
BRANCH  19  27
ATOM     20  N   UNL     1      -1.318  -1.700  -1.126  0.00  0.00    -0.299 N 
ATOM     21  C   UNL     1      -1.836  -1.284  -2.349  0.00  0.00    +0.069 A 
ATOM     22  C   UNL     1      -2.329   0.010  -2.485  0.00  0.00    +0.028 A 
ATOM     23  C   UNL     1      -2.845   0.429  -3.693  0.00  0.00    +0.002 A 
ATOM     24  C   UNL     1      -2.875  -0.434  -4.776  0.00  0.00    +0.002 A 
ATOM     25  C   UNL     1      -2.390  -1.720  -4.654  0.00  0.00    +0.028 A 
ATOM     26  C   UNL     1      -1.866  -2.154  -3.440  0.00  0.00    +0.069 A 
ATOM     27  N   UNL     1      -1.378  -3.452  -3.325  0.00  0.00    -0.302 N 
ATOM     28  C   UNL     1      -0.871  -3.882  -2.151  0.00  0.00    +0.317 A 
ATOM     29  O   UNL     1      -0.444  -5.014  -2.046  0.00  0.00    -0.262 OA
ATOM     30  C   UNL     1      -0.833  -2.950  -0.987  0.00  0.00    +0.317 A 
ATOM     31  O   UNL     1      -0.375  -3.316   0.077  0.00  0.00    -0.262 OA
BRANCH  20  32
ATOM     32  C   UNL     1      -1.293  -0.775   0.010  0.00  0.00    +0.152 C 
BRANCH  32  34
ATOM     33  C   UNL     1      -0.016   1.306   0.009  0.00  0.00    +0.005 C 
ATOM     34  C   UNL     1       0.002  -0.004   0.002  0.00  0.00    -0.013 C 
ENDBRANCH  32  34
ENDBRANCH  20  32
ENDBRANCH  19  27
ENDBRANCH   1  19
TORSDOF 8
