REMARK  Name = ZINC13065004
REMARK  19 active torsions:
REMARK  status: ('A' for Active; 'I' for Inactive)
REMARK    1  A    between atoms: C_1  and  C_2
REMARK    2  A    between atoms: C_2  and  C_3
REMARK    3  A    between atoms: C_3  and  C_5
REMARK    4  A    between atoms: C_3  and  N_77
REMARK    5  A    between atoms: N_9  and  C_10
REMARK    6  A    between atoms: C_10  and  C_11
REMARK    7  A    between atoms: C_11  and  O_12
REMARK    8  A    between atoms: O_12  and  C_13
REMARK    9  A    between atoms: C_14  and  C_15
REMARK   10  A    between atoms: C_14  and  N_77
REMARK   11  A    between atoms: C_15  and  C_16
REMARK   12  A    between atoms: C_19  and  O_24
REMARK   13  A    between atoms: C_20  and  O_22
REMARK   14  A    between atoms: O_22  and  C_23
REMARK   15  A    between atoms: O_24  and  C_25
REMARK   16  A    between atoms: C_26  and  C_27
REMARK   17  A    between atoms: C_26  and  N_77
REMARK   18  A    between atoms: C_30  and  C_40
REMARK   19  A    between atoms: C_32  and  C_39
REMARK                            x       y       z     vdW  Elec       q    Type
REMARK                         _______ _______ _______ _____ _____    ______ ____
ROOT
ATOM      1  N   UNL     1      -4.263   3.959  -1.266  0.00  0.00    +0.389 N 
ATOM      2  H   UNL     1      -4.535   3.378  -0.464  0.00  0.00    -0.080 HD
ENDROOT
BRANCH   1   3
ATOM      3  C   UNL     1      -4.444   5.383  -0.910  0.00  0.00    +0.003 C 
BRANCH   3   4
ATOM      4  C   UNL     1      -4.264   5.531   0.579  0.00  0.00    +0.138 A 
ATOM      5  N   UNL     1      -3.618   4.713   1.374  0.00  0.00    -0.115 NA
ATOM      6  N   UNL     1      -3.688   5.184   2.571  0.00  0.00    -0.023 NA
ATOM      7  N   UNL     1      -4.362   6.281   2.561  0.00  0.00    -0.044 NA
ATOM      8  N   UNL     1      -4.730   6.531   1.349  0.00  0.00    -0.229 N 
BRANCH   8   9
ATOM      9  C   UNL     1      -5.511   7.685   0.898  0.00  0.00    +0.175 C 
BRANCH   9  10
ATOM     10  C   UNL     1      -7.003   7.364   1.004  0.00  0.00    +0.183 C 
BRANCH  10  11
ATOM     11  O   UNL     1      -7.765   8.534   0.701  0.00  0.00    -0.381 OA
ATOM     12  C   UNL     1      -9.179   8.341   0.770  0.00  0.00    +0.194 C 
ENDBRANCH  10  11
ENDBRANCH   9  10
ENDBRANCH   8   9
ENDBRANCH   3   4
BRANCH   3  14
ATOM     13  C   UNL     1      -3.699   6.228  -3.140  0.00  0.00    +0.002 C 
ATOM     14  C   UNL     1      -3.413   6.248  -1.637  0.00  0.00    -0.011 C 
ENDBRANCH   3  14
ENDBRANCH   1   3
BRANCH   1  15
ATOM     15  C   UNL     1      -2.846   3.696  -1.591  0.00  0.00    -0.073 C 
BRANCH  15  16
ATOM     16  C   UNL     1      -2.015   3.817  -0.312  0.00  0.00    +0.017 C 
BRANCH  16  17
ATOM     17  C   UNL     1      -0.597   3.392  -0.592  0.00  0.00    -0.045 A 
ATOM     18  C   UNL     1      -0.230   2.068  -0.437  0.00  0.00    +0.007 A 
ATOM     19  C   UNL     1       1.071   1.675  -0.688  0.00  0.00    +0.049 A 
ATOM     20  C   UNL     1       2.008   2.606  -1.106  0.00  0.00    +0.161 A 
ATOM     21  C   UNL     1       1.638   3.937  -1.268  0.00  0.00    +0.162 A 
ATOM     22  C   UNL     1       0.333   4.326  -1.010  0.00  0.00    +0.053 A 
BRANCH  21  23
ATOM     23  O   UNL     1       2.554   4.855  -1.678  0.00  0.00    -0.491 OA
ATOM     24  C   UNL     1       2.102   6.203  -1.823  0.00  0.00    +0.277 C 
ENDBRANCH  21  23
BRANCH  20  25
ATOM     25  O   UNL     1       3.288   2.219  -1.359  0.00  0.00    -0.491 OA
ATOM     26  C   UNL     1       3.596   0.836  -1.172  0.00  0.00    +0.277 C 
ENDBRANCH  20  25
ENDBRANCH  16  17
ENDBRANCH  15  16
ENDBRANCH   1  15
BRANCH   1  27
ATOM     27  C   UNL     1      -5.120   3.615  -2.421  0.00  0.00    -0.037 C 
BRANCH  27  28
ATOM     28  C   UNL     1      -6.548   3.519  -1.952  0.00  0.00    +0.001 A 
ATOM     29  C   UNL     1      -7.387   4.571  -2.121  0.00  0.00    +0.017 A 
ATOM     30  C   UNL     1      -8.769   4.446  -1.655  0.00  0.00    +0.002 A 
ATOM     31  C   UNL     1      -9.681   5.497  -1.802  0.00  0.00    -0.041 A 
ATOM     32  C   UNL     1     -10.963   5.348  -1.357  0.00  0.00    +0.007 A 
ATOM     33  C   UNL     1     -11.371   4.163  -0.759  0.00  0.00    -0.048 A 
ATOM     34  C   UNL     1     -10.490   3.115  -0.603  0.00  0.00    +0.029 A 
ATOM     35  C   UNL     1      -9.179   3.243  -1.049  0.00  0.00    +0.050 A 
ATOM     36  N   UNL     1      -8.277   2.210  -0.907  0.00  0.00    -0.322 N 
ATOM     37  H   UNL     1      -8.560   1.382  -0.490  0.00  0.00    +0.169 HD
ATOM     38  C   UNL     1      -7.011   2.333  -1.343  0.00  0.00    +0.251 A 
ATOM     39  O   UNL     1      -6.242   1.397  -1.206  0.00  0.00    -0.268 OA
ATOM     40  C   UNL     1     -12.791   4.022  -0.275  0.00  0.00    +0.044 C 
ATOM     41  C   UNL     1      -9.249   6.788  -2.449  0.00  0.00    +0.044 C 
ENDBRANCH  27  28
ENDBRANCH   1  27
TORSDOF 13
