REMARK  Name = ZINC43772526
REMARK  13 active torsions:
REMARK  status: ('A' for Active; 'I' for Inactive)
REMARK    1  A    between atoms: C_1  and  C_2
REMARK    2  A    between atoms: C_2  and  C_4
REMARK    3  A    between atoms: C_2  and  C_11
REMARK    4  A    between atoms: C_4  and  C_5
REMARK    5  A    between atoms: C_5  and  C_6
REMARK    6  A    between atoms: C_6  and  C_7
REMARK    7  A    between atoms: C_7  and  C_8
REMARK    8  A    between atoms: C_7  and  C_9
REMARK    9  A    between atoms: C_7  and  O_10
REMARK   10  A    between atoms: C_17  and  C_35
REMARK   11  A    between atoms: C_22  and  C_23
REMARK   12  A    between atoms: C_26  and  O_34
REMARK   13  A    between atoms: C_29  and  O_33
REMARK                            x       y       z     vdW  Elec       q    Type
REMARK                         _______ _______ _______ _____ _____    ______ ____
ROOT
ATOM      1  C   UNL     1       0.842  -0.718   1.255  0.00  0.00    -0.002 C 
ATOM      2  C   UNL     1       2.329  -0.319   1.225  0.00  0.00    +0.005 C 
ATOM      3  C   UNL     1       3.127  -1.611   0.938  0.00  0.00    +0.009 C 
ATOM      4  C   UNL     1       2.101  -2.528   0.243  0.00  0.00    +0.021 C 
ATOM      5  C   UNL     1       0.793  -2.248   1.015  0.00  0.00    -0.022 C 
ATOM      6  C   UNL     1       0.828  -2.924   2.386  0.00  0.00    +0.008 C 
ATOM      7  C   UNL     1       1.026  -4.431   2.251  0.00  0.00    +0.005 C 
ATOM      8  C   UNL     1       2.421  -4.689   1.665  0.00  0.00    +0.031 C 
ATOM      9  C   UNL     1       2.507  -3.966   0.326  0.00  0.00    -0.066 C 
ATOM     10  C   UNL     1       2.926  -4.603  -0.767  0.00  0.00    -0.000 C 
ATOM     11  C   UNL     1      -0.439  -2.652   0.201  0.00  0.00    +0.012 C 
ENDROOT
BRANCH  10  12
ATOM     12  C   UNL     1       3.212  -6.039  -0.713  0.00  0.00    +0.004 C 
ATOM     13  C   UNL     1       3.734  -6.663  -1.789  0.00  0.00    -0.040 C 
ATOM     14  C   UNL     1       4.038  -8.148  -1.776  0.00  0.00    +0.067 C 
ATOM     15  C   UNL     1       3.490  -8.764  -3.067  0.00  0.00    +0.122 C 
ATOM     16  C   UNL     1       4.113  -8.069  -4.278  0.00  0.00    +0.067 C 
ATOM     17  C   UNL     1       3.647  -6.611  -4.337  0.00  0.00    +0.147 C 
ATOM     18  C   UNL     1       4.029  -5.934  -3.040  0.00  0.00    -0.023 C 
ATOM     19  C   UNL     1       4.610  -4.734  -3.029  0.00  0.00    +0.015 C 
BRANCH  17  20
ATOM     20  O   UNL     1       4.276  -5.948  -5.434  0.00  0.00    -0.387 OA
ATOM     21  H   UNL     1       4.024  -5.019  -5.530  0.00  0.00    +0.210 HD
ENDBRANCH  17  20
BRANCH  15  22
ATOM     22  O   UNL     1       3.812 -10.156  -3.103  0.00  0.00    -0.391 OA
ATOM     23  H   UNL     1       3.446 -10.664  -2.366  0.00  0.00    +0.210 HD
ENDBRANCH  15  22
ENDBRANCH  10  12
BRANCH   1  25
ATOM     24  C   UNL     1       0.815  -0.171  -1.183  0.00  0.00    +0.008 C 
ATOM     25  C   UNL     1       0.081   0.012   0.147  0.00  0.00    -0.010 C 
BRANCH  25  26
ATOM     26  C   UNL     1      -0.003   1.502   0.483  0.00  0.00    +0.003 C 
BRANCH  26  27
ATOM     27  C   UNL     1      -0.853   2.215  -0.570  0.00  0.00    +0.003 C 
BRANCH  27  28
ATOM     28  C   UNL     1      -0.937   3.706  -0.235  0.00  0.00    +0.034 C 
BRANCH  28  29
ATOM     29  C   UNL     1      -1.787   4.419  -1.288  0.00  0.00    +0.061 C 
ATOM     30  C   UNL     1      -3.195   3.818  -1.300  0.00  0.00    +0.041 C 
ATOM     31  C   UNL     1      -1.871   5.909  -0.952  0.00  0.00    +0.041 C 
BRANCH  29  32
ATOM     32  O   UNL     1      -1.188   4.253  -2.575  0.00  0.00    -0.389 OA
ATOM     33  H   UNL     1      -0.293   4.612  -2.641  0.00  0.00    +0.210 HD
ENDBRANCH  29  32
ENDBRANCH  28  29
ENDBRANCH  27  28
ENDBRANCH  26  27
ENDBRANCH  25  26
ENDBRANCH   1  25
TORSDOF 9
