REMARK  Name = ZINC39599444
REMARK  9 active torsions:
REMARK  status: ('A' for Active; 'I' for Inactive)
REMARK    1  A    between atoms: C_1  and  C_2
REMARK    2  A    between atoms: C_4  and  C_9
REMARK    3  A    between atoms: C_5  and  C_8
REMARK    4  A    between atoms: C_13  and  C_22
REMARK    5  A    between atoms: N_24  and  C_25
REMARK    6  A    between atoms: C_25  and  C_26
REMARK    7  A    between atoms: C_26  and  C_27
REMARK    8  A    between atoms: C_30  and  O_36
REMARK    9  A    between atoms: O_36  and  C_37
REMARK                            x       y       z     vdW  Elec       q    Type
REMARK                         _______ _______ _______ _____ _____    ______ ____
ROOT
ATOM      1  C   UNL     1      -3.296  -0.332  -1.763  0.00  0.00    +0.247 C 
ATOM      2  O   UNL     1      -4.459  -0.566  -2.038  0.00  0.00    -0.270 OA
ATOM      3  N   UNL     1      -2.559   0.459  -2.568  0.00  0.00    -0.296 N 
ATOM      4  C   UNL     1      -1.113   0.765  -2.464  0.00  0.00    +0.121 C 
ATOM      5  C   UNL     1      -0.610   0.774  -3.925  0.00  0.00    +0.100 C 
ATOM      6  C   UNL     1      -1.860   1.073  -4.769  0.00  0.00    -0.004 C 
ATOM      7  C   UNL     1      -3.011   1.213  -3.762  0.00  0.00    +0.115 C 
ATOM      8  C   UNL     1      -2.141  -0.082  -5.725  0.00  0.00    -0.010 C 
ATOM      9  C   UNL     1      -3.354   0.263  -6.593  0.00  0.00    -0.082 C 
ATOM     10  N   UNL     1      -3.084   1.494  -7.346  0.00  0.00    +0.379 N 
ATOM     11  C   UNL     1      -2.907   2.619  -6.420  0.00  0.00    -0.082 C 
ATOM     12  C   UNL     1      -1.675   2.373  -5.545  0.00  0.00    -0.010 C 
ATOM     13  H   UNL     1      -2.245   1.375  -7.893  0.00  0.00    -0.086 HD
ATOM     14  H   UNL     1      -3.860   1.686  -7.962  0.00  0.00    -0.086 HD
ENDROOT
BRANCH   1  17
ATOM     15  C   UNL     1      -1.376  -2.837  -1.396  0.00  0.00    +0.046 C 
ATOM     16  C   UNL     1      -2.395  -2.347  -0.365  0.00  0.00    +0.182 C 
ATOM     17  C   UNL     1      -2.719  -0.888  -0.598  0.00  0.00    +0.066 C 
ATOM     18  C   UNL     1      -2.355  -0.220   0.513  0.00  0.00    +0.046 C 
ATOM     19  N   UNL     1      -1.833  -1.065   1.442  0.00  0.00    -0.269 N 
ATOM     20  O   UNL     1      -1.833  -2.397   0.955  0.00  0.00    -0.266 OA
ATOM     21  C   UNL     1      -2.506   1.268   0.702  0.00  0.00    +0.066 C 
ATOM     22  H   UNL     1      -1.508  -0.796   2.315  0.00  0.00    +0.194 HD
ENDBRANCH   1  17
BRANCH   5  23
ATOM     23  C   UNL     1      -0.036  -0.571  -4.290  0.00  0.00    +0.218 C 
ATOM     24  O   UNL     1      -0.505  -1.581  -3.809  0.00  0.00    -0.275 OA
ATOM     25  N   UNL     1       0.997  -0.652  -5.152  0.00  0.00    -0.315 N 
ATOM     26  H   UNL     1       1.372   0.155  -5.536  0.00  0.00    +0.149 HD
BRANCH  25  27
ATOM     27  C   UNL     1       1.554  -1.960  -5.507  0.00  0.00    +0.109 C 
BRANCH  27  28
ATOM     28  C   UNL     1       2.708  -1.771  -6.493  0.00  0.00    +0.056 C 
BRANCH  28  29
ATOM     29  C   UNL     1       3.281  -3.116  -6.859  0.00  0.00    -0.021 A 
ATOM     30  C   UNL     1       2.791  -4.017  -7.905  0.00  0.00    +0.006 A 
ATOM     31  C   UNL     1       1.742  -3.954  -8.825  0.00  0.00    +0.056 A 
ATOM     32  C   UNL     1       1.541  -5.001  -9.702  0.00  0.00    +0.121 A 
ATOM     33  C   UNL     1       2.378  -6.113  -9.672  0.00  0.00    +0.047 A 
ATOM     34  C   UNL     1       3.415  -6.186  -8.768  0.00  0.00    +0.030 A 
ATOM     35  C   UNL     1       3.634  -5.142  -7.876  0.00  0.00    +0.047 A 
ATOM     36  N   UNL     1       4.564  -4.927  -6.881  0.00  0.00    -0.360 N 
ATOM     37  C   UNL     1       4.341  -3.713  -6.291  0.00  0.00    +0.087 A 
ATOM     38  H   UNL     1       5.274  -5.543  -6.639  0.00  0.00    +0.165 HD
BRANCH  32  39
ATOM     39  O   UNL     1       0.521  -4.945 -10.600  0.00  0.00    -0.495 OA
ATOM     40  C   UNL     1       0.369  -6.061 -11.479  0.00  0.00    +0.277 C 
ENDBRANCH  32  39
ENDBRANCH  28  29
ENDBRANCH  27  28
ENDBRANCH  25  27
ENDBRANCH   5  23
TORSDOF 6
