REMARK  Name = ZINC00676154
REMARK  10 active torsions:
REMARK  status: ('A' for Active; 'I' for Inactive)
REMARK    1  A    between atoms: C_1  and  C_2
REMARK    2  A    between atoms: C_3  and  C_24
REMARK    3  A    between atoms: C_4  and  C_14
REMARK    4  A    between atoms: C_16  and  O_22
REMARK    5  A    between atoms: C_19  and  O_20
REMARK    6  A    between atoms: O_20  and  C_21
REMARK    7  A    between atoms: O_22  and  C_23
REMARK    8  A    between atoms: N_26  and  C_27
REMARK    9  A    between atoms: C_32  and  O_33
REMARK   10  A    between atoms: O_33  and  C_34
REMARK                            x       y       z     vdW  Elec       q    Type
REMARK                         _______ _______ _______ _____ _____    ______ ____
ROOT
ATOM      1  C   UNL     1      -4.739   4.228  -0.720  0.00  0.00    +0.061 C 
ATOM      2  C   UNL     1      -3.554   3.397  -0.299  0.00  0.00    +0.014 C 
ATOM      3  C   UNL     1      -3.644   2.057  -0.301  0.00  0.00    +0.043 C 
ATOM      4  C   UNL     1      -2.488   1.198   0.119  0.00  0.00    +0.094 C 
ATOM      5  C   UNL     1      -1.198   1.979   0.098  0.00  0.00    +0.024 C 
ATOM      6  C   UNL     1      -1.209   3.329   0.090  0.00  0.00    +0.015 C 
ATOM      7  N   UNL     1      -2.394   4.013   0.094  0.00  0.00    -0.321 N 
ATOM      8  C   UNL     1       0.078   4.117   0.066  0.00  0.00    +0.051 C 
ATOM      9  C   UNL     1       1.174   3.332   0.790  0.00  0.00    +0.014 C 
ATOM     10  C   UNL     1       1.338   1.975   0.098  0.00  0.00    +0.080 C 
ATOM     11  C   UNL     1       0.013   1.263   0.097  0.00  0.00    +0.162 C 
ATOM     12  O   UNL     1      -0.013   0.048   0.089  0.00  0.00    -0.292 OA
ATOM     13  H   UNL     1      -2.412   5.065   0.416  0.00  0.00    +0.152 HD
ENDROOT
BRANCH   4  14
ATOM     14  C   UNL     1      -2.733   0.686   1.515  0.00  0.00    +0.010 A 
ATOM     15  C   UNL     1      -2.853   1.575   2.566  0.00  0.00    +0.053 A 
ATOM     16  C   UNL     1      -3.084   1.104   3.849  0.00  0.00    +0.121 A 
ATOM     17  C   UNL     1      -3.184  -0.260   4.080  0.00  0.00    +0.049 A 
ATOM     18  C   UNL     1      -3.059  -1.149   3.030  0.00  0.00    +0.049 A 
ATOM     19  C   UNL     1      -2.833  -0.678   1.746  0.00  0.00    +0.124 A 
BRANCH  19  20
ATOM     20  O   UNL     1      -2.710  -1.553   0.712  0.00  0.00    -0.495 OA
ATOM     21  C   UNL     1      -2.824  -2.943   1.022  0.00  0.00    +0.277 C 
ENDBRANCH  19  20
BRANCH  16  22
ATOM     22  O   UNL     1      -3.208   1.979   4.883  0.00  0.00    -0.495 OA
ATOM     23  C   UNL     1      -3.440   1.424   6.179  0.00  0.00    +0.277 C 
ENDBRANCH  16  22
ENDBRANCH   4  14
BRANCH   3  24
ATOM     24  C   UNL     1      -4.854   1.443  -0.709  0.00  0.00    +0.247 C 
ATOM     25  O   UNL     1      -5.832   2.126  -0.950  0.00  0.00    -0.270 OA
ATOM     26  N   UNL     1      -4.921   0.102  -0.829  0.00  0.00    -0.279 N 
ATOM     27  H   UNL     1      -4.060  -0.520  -0.544  0.00  0.00    +0.155 HD
BRANCH  26  28
ATOM     28  C   UNL     1      -6.088  -0.499  -1.318  0.00  0.00    +0.076 A 
ATOM     29  C   UNL     1      -7.329   0.048  -1.022  0.00  0.00    +0.027 A 
ATOM     30  C   UNL     1      -8.478  -0.544  -1.509  0.00  0.00    +0.002 A 
ATOM     31  C   UNL     1      -8.397  -1.687  -2.284  0.00  0.00    +0.004 A 
ATOM     32  C   UNL     1      -7.165  -2.241  -2.578  0.00  0.00    +0.047 A 
ATOM     33  C   UNL     1      -6.007  -1.650  -2.098  0.00  0.00    +0.141 A 
BRANCH  33  34
ATOM     34  O   UNL     1      -4.794  -2.194  -2.386  0.00  0.00    -0.493 OA
ATOM     35  C   UNL     1      -4.787  -3.374  -3.191  0.00  0.00    +0.277 C 
ENDBRANCH  33  34
ENDBRANCH  26  28
ENDBRANCH   3  24
TORSDOF 6
