REMARK  Name = ZINC35807164
REMARK  6 active torsions:
REMARK  status: ('A' for Active; 'I' for Inactive)
REMARK    1  A    between atoms: C_1  and  C_2
REMARK    2  A    between atoms: C_2  and  O_3
REMARK    3  A    between atoms: O_3  and  C_4
REMARK    4  A    between atoms: C_9  and  C_10
REMARK    5  A    between atoms: C_10  and  C_12
REMARK    6  A    between atoms: C_33  and  C_40
REMARK                            x       y       z     vdW  Elec       q    Type
REMARK                         _______ _______ _______ _____ _____    ______ ____
ROOT
ATOM      1  C   UNL     1       2.675  -2.003  -4.694  0.00  0.00    +0.066 C 
ATOM      2  C   UNL     1       1.667  -2.238  -5.847  0.00  0.00    -0.055 C 
ATOM      3  C   UNL     1       0.302  -2.615  -5.250  0.00  0.00    -0.016 C 
ATOM      4  C   UNL     1      -0.639  -1.445  -5.616  0.00  0.00    -0.020 C 
ATOM      5  C   UNL     1       0.343  -0.270  -5.843  0.00  0.00    -0.076 C 
ATOM      6  N   UNL     1       1.525  -0.914  -6.511  0.00  0.00    +0.395 N 
ATOM      7  C   UNL     1       2.737  -0.130  -6.226  0.00  0.00    +0.060 C 
ATOM      8  C   UNL     1       3.633  -0.970  -5.319  0.00  0.00    +0.085 C 
ATOM      9  C   UNL     1       4.313  -0.148  -4.264  0.00  0.00    -0.011 A 
ATOM     10  C   UNL     1       3.856   0.683  -3.267  0.00  0.00    +0.006 A 
ATOM     11  C   UNL     1       4.754   1.315  -2.425  0.00  0.00    +0.000 A 
ATOM     12  C   UNL     1       6.112   1.109  -2.589  0.00  0.00    +0.002 A 
ATOM     13  C   UNL     1       6.575   0.279  -3.589  0.00  0.00    +0.023 A 
ATOM     14  C   UNL     1       5.678  -0.361  -4.441  0.00  0.00    +0.038 A 
ATOM     15  N   UNL     1       5.896  -1.234  -5.509  0.00  0.00    -0.285 N 
ATOM     16  C   UNL     1       4.743  -1.640  -6.077  0.00  0.00    +0.228 C 
ATOM     17  O   UNL     1       4.625  -2.399  -7.016  0.00  0.00    -0.275 OA
ATOM     18  C   UNL     1       3.449   0.245  -7.499  0.00  0.00    -0.026 A 
ATOM     19  C   UNL     1       4.008  -0.490  -8.520  0.00  0.00    +0.008 A 
ATOM     20  C   UNL     1       4.614   0.153  -9.585  0.00  0.00    -0.050 A 
ATOM     21  C   UNL     1       4.654   1.535  -9.621  0.00  0.00    +0.005 A 
ATOM     22  C   UNL     1       4.092   2.276  -8.602  0.00  0.00    +0.024 A 
ATOM     23  C   UNL     1       3.481   1.635  -7.526  0.00  0.00    +0.036 A 
ATOM     24  N   UNL     1       2.852   2.155  -6.393  0.00  0.00    -0.286 N 
ATOM     25  C   UNL     1       2.388   1.187  -5.580  0.00  0.00    +0.212 C 
ATOM     26  O   UNL     1       1.802   1.344  -4.530  0.00  0.00    -0.277 OA
ATOM     27  C   UNL     1       5.228  -0.650 -10.702  0.00  0.00    +0.044 C 
ATOM     28  H   UNL     1       6.775  -1.516  -5.807  0.00  0.00    +0.155 HD
ATOM     29  H   UNL     1       2.759   3.103  -6.212  0.00  0.00    +0.155 HD
ATOM     30  H   UNL     1       1.374  -1.021  -7.502  0.00  0.00    -0.079 HD
ENDROOT
BRANCH   1  31
ATOM     31  C   UNL     1       1.984  -1.433  -3.482  0.00  0.00    +0.169 C 
ATOM     32  O   UNL     1       0.891  -0.919  -3.592  0.00  0.00    -0.292 OA
BRANCH  31  38
ATOM     33  C   UNL     1       1.994  -0.972  -1.034  0.00  0.00    +0.131 A 
ATOM     34  C   UNL     1       2.616  -1.048   0.203  0.00  0.00    +0.046 A 
ATOM     35  C   UNL     1       3.860  -1.635   0.318  0.00  0.00    +0.004 A 
ATOM     36  C   UNL     1       4.498  -2.154  -0.798  0.00  0.00    +0.001 A 
ATOM     37  C   UNL     1       3.898  -2.088  -2.035  0.00  0.00    +0.015 A 
ATOM     38  C   UNL     1       2.634  -1.501  -2.167  0.00  0.00    +0.059 A 
BRANCH  33  39
ATOM     39  O   UNL     1       0.773  -0.394  -1.149  0.00  0.00    -0.492 OA
BRANCH  39  41
ATOM     40  C   UNL     1      -1.181   0.730  -0.278  0.00  0.00    +0.048 C 
ATOM     41  C   UNL     1       0.185   0.122   0.047  0.00  0.00    +0.226 C 
ENDBRANCH  39  41
ENDBRANCH  33  39
ENDBRANCH  31  38
ENDBRANCH   1  31
TORSDOF 4
