REMARK  Name = ZINC17306002
REMARK  9 active torsions:
REMARK  status: ('A' for Active; 'I' for Inactive)
REMARK    1  A    between atoms: C_1  and  C_2
REMARK    2  A    between atoms: C_2  and  C_3
REMARK    3  A    between atoms: C_7  and  C_14
REMARK    4  A    between atoms: C_14  and  N_15
REMARK    5  A    between atoms: N_15  and  C_16
REMARK    6  A    between atoms: N_15  and  C_17
REMARK    7  A    between atoms: C_17  and  C_19
REMARK    8  A    between atoms: C_17  and  C_20
REMARK    9  A    between atoms: C_23  and  N_26
REMARK                            x       y       z     vdW  Elec       q    Type
REMARK                         _______ _______ _______ _____ _____    ______ ____
ROOT
ATOM      1  N   UNL     1      -5.770  -3.610   1.819  0.00  0.00    -0.295 NA
ATOM      2  C   UNL     1      -4.351  -3.696   2.191  0.00  0.00    +0.105 C 
ENDROOT
BRANCH   1   3
ATOM      3  C   UNL     1      -6.633  -4.003   2.940  0.00  0.00    +0.084 C 
ATOM      4  C   UNL     1      -8.094  -3.995   2.486  0.00  0.00    +0.029 C 
BRANCH   3   5
ATOM      5  C   UNL     1      -6.258  -5.389   3.401  0.00  0.00    -0.030 A 
ATOM      6  C   UNL     1      -5.934  -6.360   2.471  0.00  0.00    +0.007 A 
ATOM      7  C   UNL     1      -5.589  -7.630   2.890  0.00  0.00    +0.028 A 
ATOM      8  C   UNL     1      -5.568  -7.931   4.245  0.00  0.00    +0.067 A 
ATOM      9  C   UNL     1      -5.894  -6.954   5.176  0.00  0.00    +0.028 A 
ATOM     10  C   UNL     1      -6.233  -5.684   4.751  0.00  0.00    +0.007 A 
BRANCH   8  11
ATOM     11  N   UNL     1      -5.219  -9.220   4.674  0.00  0.00    -0.220 N 
ATOM     12  C   UNL     1      -5.160  -9.660   5.946  0.00  0.00    +0.225 A 
ATOM     13  N   UNL     1      -4.796 -10.917   5.923  0.00  0.00    -0.222 NA
ATOM     14  C   UNL     1      -4.615 -11.312   4.663  0.00  0.00    +0.245 A 
ATOM     15  N   UNL     1      -4.868 -10.311   3.862  0.00  0.00    -0.154 NA
ENDBRANCH   8  11
ENDBRANCH   3   5
ENDBRANCH   1   3
BRANCH   1  16
ATOM     16  C   UNL     1      -6.107  -2.261   1.343  0.00  0.00    +0.120 C 
BRANCH  16  21
ATOM     17  C   UNL     1      -1.412  -0.526   0.013  0.00  0.00    -0.044 A 
ATOM     18  C   UNL     1      -2.046  -0.764   1.223  0.00  0.00    +0.004 A 
ATOM     19  C   UNL     1      -3.329  -1.237   1.253  0.00  0.00    +0.012 A 
ATOM     20  C   UNL     1      -4.005  -1.482   0.054  0.00  0.00    +0.022 A 
ATOM     21  C   UNL     1      -5.381  -1.988   0.051  0.00  0.00    -0.016 A 
ATOM     22  C   UNL     1      -5.982  -2.204  -1.146  0.00  0.00    +0.097 A 
ATOM     23  C   UNL     1      -5.279  -1.941  -2.342  0.00  0.00    +0.338 A 
ATOM     24  O   UNL     1      -5.830  -2.139  -3.410  0.00  0.00    -0.245 OA
ATOM     25  O   UNL     1      -4.020  -1.477  -2.331  0.00  0.00    -0.422 OA
ATOM     26  C   UNL     1      -3.365  -1.241  -1.175  0.00  0.00    +0.140 A 
ATOM     27  C   UNL     1      -2.063  -0.755  -1.181  0.00  0.00    +0.050 A 
BRANCH  17  29
ATOM     28  C   UNL     1      -0.019   1.526   0.010  0.00  0.00    +0.009 C 
ATOM     29  C   UNL     1       0.002  -0.004   0.002  0.00  0.00    +0.032 C 
ENDBRANCH  17  29
ENDBRANCH  16  21
ENDBRANCH   1  16
TORSDOF 6
