REMARK  Name = ZINC09298210
REMARK  13 active torsions:
REMARK  status: ('A' for Active; 'I' for Inactive)
REMARK    1  A    between atoms: C_1  and  C_2
REMARK    2  A    between atoms: C_2  and  N_3
REMARK    3  A    between atoms: N_3  and  C_4
REMARK    4  A    between atoms: N_3  and  S_6
REMARK    5  A    between atoms: C_4  and  C_5
REMARK    6  A    between atoms: S_6  and  C_9
REMARK    7  A    between atoms: C_12  and  C_15
REMARK    8  A    between atoms: N_17  and  C_18
REMARK    9  A    between atoms: C_19  and  C_29
REMARK   10  A    between atoms: C_24  and  C_28
REMARK   11  A    between atoms: C_32  and  O_34
REMARK   12  A    between atoms: O_34  and  C_35
REMARK   13  A    between atoms: C_35  and  C_36
REMARK                            x       y       z     vdW  Elec       q    Type
REMARK                         _______ _______ _______ _____ _____    ______ ____
ROOT
ATOM      1  C   UNL     1       1.592  -4.558  -1.351  0.00  0.00    +0.085 A 
ATOM      2  C   UNL     1       1.258  -4.096  -0.085  0.00  0.00    +0.069 A 
ATOM      3  C   UNL     1       0.941  -2.684   0.053  0.00  0.00    -0.023 A 
ATOM      4  C   UNL     1       1.008  -1.966  -1.089  0.00  0.00    -0.004 A 
ATOM      5  S   UNL     1       1.484  -3.133  -2.332  0.00  0.00    -0.077 S 
ATOM      6  C   UNL     1       0.736  -0.502  -1.252  0.00  0.00    +0.046 C 
ATOM      7  C   UNL     1       0.002  -0.004   0.002  0.00  0.00    -0.009 C 
ATOM      8  C   UNL     1       0.742  -0.514   1.242  0.00  0.00    +0.008 C 
ATOM      9  C   UNL     1       0.557  -2.027   1.373  0.00  0.00    +0.037 C 
ATOM     10  C   UNL     1      -0.019   1.526   0.010  0.00  0.00    +0.008 C 
ENDROOT
BRANCH   2  11
ATOM     11  C   UNL     1       1.226  -4.998   1.069  0.00  0.00    +0.255 C 
ATOM     12  O   UNL     1       0.198  -5.582   1.356  0.00  0.00    -0.270 OA
ATOM     13  N   UNL     1       2.336  -5.181   1.812  0.00  0.00    -0.217 N 
ATOM     14  C   UNL     1       2.306  -6.011   2.873  0.00  0.00    +0.407 C 
ATOM     15  O   UNL     1       1.280  -6.594   3.160  0.00  0.00    -0.226 OA
ATOM     16  H   UNL     1       3.155  -4.716   1.583  0.00  0.00    +0.161 HD
BRANCH  14  17
ATOM     17  O   UNL     1       3.414  -6.195   3.615  0.00  0.00    -0.450 OA
BRANCH  17  18
ATOM     18  C   UNL     1       3.309  -7.103   4.743  0.00  0.00    +0.230 C 
ATOM     19  C   UNL     1       4.658  -7.183   5.461  0.00  0.00    +0.048 C 
ENDBRANCH  17  18
ENDBRANCH  14  17
ENDBRANCH   2  11
BRANCH   1  22
ATOM     20  C   UNL     1       2.227  -6.105  -3.026  0.00  0.00    +0.249 C 
ATOM     21  O   UNL     1       2.198  -5.211  -3.849  0.00  0.00    -0.270 OA
ATOM     22  N   UNL     1       1.930  -5.844  -1.737  0.00  0.00    -0.275 N 
ATOM     23  H   UNL     1       1.952  -6.557  -1.080  0.00  0.00    +0.156 HD
BRANCH  20  27
ATOM     24  C   UNL     1       3.261 -10.051  -4.209  0.00  0.00    +0.106 A 
ATOM     25  C   UNL     1       3.230  -9.036  -5.149  0.00  0.00    +0.029 A 
ATOM     26  C   UNL     1       2.895  -7.752  -4.771  0.00  0.00    +0.015 A 
ATOM     27  C   UNL     1       2.587  -7.478  -3.438  0.00  0.00    +0.037 A 
ATOM     28  C   UNL     1       2.626  -8.506  -2.493  0.00  0.00    +0.015 A 
ATOM     29  C   UNL     1       2.957  -9.786  -2.885  0.00  0.00    +0.029 A 
BRANCH  24  30
ATOM     30  S   UNL     1       3.690 -11.688  -4.700  0.00  0.00    +0.061 S 
ATOM     31  O   UNL     1       3.117 -12.563  -3.739  0.00  0.00    -0.153 OA
ATOM     32  O   UNL     1       3.400 -11.785  -6.088  0.00  0.00    -0.153 OA
BRANCH  30  33
ATOM     33  N   UNL     1       5.333 -11.830  -4.549  0.00  0.00    -0.177 NA
BRANCH  33  35
ATOM     34  C   UNL     1       6.159 -13.798  -3.355  0.00  0.00    +0.022 C 
ATOM     35  C   UNL     1       5.916 -12.289  -3.286  0.00  0.00    +0.106 C 
ENDBRANCH  33  35
BRANCH  33  36
ATOM     36  C   UNL     1       6.204 -11.496  -5.679  0.00  0.00    +0.106 C 
ATOM     37  C   UNL     1       6.684 -10.049  -5.543  0.00  0.00    +0.022 C 
ENDBRANCH  33  36
ENDBRANCH  30  33
ENDBRANCH  24  30
ENDBRANCH  20  27
ENDBRANCH   1  22
TORSDOF 9
