REMARK  Name = ZINC49239907
REMARK  5 active torsions:
REMARK  status: ('A' for Active; 'I' for Inactive)
REMARK    1  A    between atoms: C_1  and  C_2
REMARK    2  A    between atoms: C_7  and  S_8
REMARK    3  A    between atoms: S_8  and  N_11
REMARK    4  A    between atoms: N_11  and  C_12
REMARK    5  A    between atoms: C_12  and  C_17
REMARK                            x       y       z     vdW  Elec       q    Type
REMARK                         _______ _______ _______ _____ _____    ______ ____
ROOT
ATOM      1  S   UNL     1       0.297   0.473   3.278  0.00  0.00    +0.059 S 
ATOM      2  O   UNL     1       0.528  -0.517   4.272  0.00  0.00    -0.153 OA
ATOM      3  O   UNL     1      -0.059   0.143   1.943  0.00  0.00    -0.153 OA
ENDROOT
BRANCH   1  10
ATOM      4  C   UNL     1       0.342   1.776   6.007  0.00  0.00    +0.046 C 
ATOM      5  C   UNL     1      -0.869   2.070   5.159  0.00  0.00    -0.023 A 
ATOM      6  C   UNL     1      -1.867   2.896   5.642  0.00  0.00    +0.025 A 
ATOM      7  C   UNL     1      -2.977   3.167   4.863  0.00  0.00    +0.041 A 
ATOM      8  C   UNL     1      -3.089   2.611   3.601  0.00  0.00    +0.022 A 
ATOM      9  C   UNL     1      -2.091   1.786   3.119  0.00  0.00    +0.030 A 
ATOM     10  C   UNL     1      -0.978   1.520   3.896  0.00  0.00    +0.108 A 
ATOM     11 CL   UNL     1      -4.231   4.204   5.469  0.00  0.00    -0.084 Cl
ENDBRANCH   1  10
BRANCH   1  12
ATOM     12  N   UNL     1       1.678   1.383   3.188  0.00  0.00    -0.184 NA
ATOM     13  H   UNL     1       2.430   1.182   3.766  0.00  0.00    +0.149 HD
BRANCH  12  14
ATOM     14  C   UNL     1       1.762   2.494   2.236  0.00  0.00    +0.037 C 
ATOM     15  C   UNL     1       1.812   1.951   0.797  0.00  0.00    +0.023 C 
ATOM     16  C   UNL     1       3.149   2.426   0.193  0.00  0.00    +0.002 C 
ATOM     17  C   UNL     1       4.055   2.676   1.424  0.00  0.00    +0.002 C 
ATOM     18  C   UNL     1       3.071   3.280   2.456  0.00  0.00    +0.023 C 
ATOM     19  C   UNL     1       0.558   3.422   2.405  0.00  0.00    +0.029 C 
ENDBRANCH  12  14
ENDBRANCH   1  12
TORSDOF 3
