REMARK  Name = ZINC23261247
REMARK  9 active torsions:
REMARK  status: ('A' for Active; 'I' for Inactive)
REMARK    1  A    between atoms: C_1  and  C_2
REMARK    2  A    between atoms: C_2  and  C_4
REMARK    3  A    between atoms: C_2  and  S_15
REMARK    4  A    between atoms: C_9  and  C_12
REMARK    5  A    between atoms: S_15  and  C_16
REMARK    6  A    between atoms: N_26  and  C_27
REMARK    7  A    between atoms: C_32  and  C_33
REMARK    8  A    between atoms: C_33  and  C_34
REMARK    9  A    between atoms: C_33  and  C_35
REMARK                            x       y       z     vdW  Elec       q    Type
REMARK                         _______ _______ _______ _____ _____    ______ ____
ROOT
ATOM      1  C   UNL     1      -0.136  -0.087   2.816  0.00  0.00    +0.177 A 
ATOM      2  N   UNL     1      -1.238   0.570   2.549  0.00  0.00    -0.223 NA
ATOM      3  C   UNL     1      -2.063   0.996   3.534  0.00  0.00    +0.079 A 
ATOM      4  C   UNL     1      -3.239   1.696   3.252  0.00  0.00    +0.028 A 
ATOM      5  C   UNL     1      -4.043   2.108   4.278  0.00  0.00    +0.002 A 
ATOM      6  C   UNL     1      -3.709   1.841   5.599  0.00  0.00    +0.001 A 
ATOM      7  C   UNL     1      -2.565   1.158   5.907  0.00  0.00    +0.015 A 
ATOM      8  C   UNL     1      -1.726   0.726   4.880  0.00  0.00    +0.065 A 
ATOM      9  C   UNL     1      -0.485  -0.012   5.151  0.00  0.00    +0.267 A 
ATOM     10  O   UNL     1      -0.143  -0.274   6.289  0.00  0.00    -0.267 OA
ATOM     11  N   UNL     1       0.261  -0.394   4.088  0.00  0.00    -0.255 N 
ENDROOT
BRANCH  11  12
ATOM     12  C   UNL     1       1.450  -1.105   4.293  0.00  0.00    +0.055 A 
ATOM     13  C   UNL     1       2.648  -0.422   4.461  0.00  0.00    +0.026 A 
ATOM     14  C   UNL     1       3.819  -1.126   4.664  0.00  0.00    +0.002 A 
ATOM     15  C   UNL     1       3.800  -2.508   4.699  0.00  0.00    +0.000 A 
ATOM     16  C   UNL     1       2.609  -3.190   4.532  0.00  0.00    +0.006 A 
ATOM     17  C   UNL     1       1.433  -2.492   4.335  0.00  0.00    -0.021 A 
BRANCH  17  18
ATOM     18  C   UNL     1       0.134  -3.236   4.159  0.00  0.00    +0.015 C 
ATOM     19  C   UNL     1       0.234  -4.154   2.939  0.00  0.00    +0.012 C 
ATOM     20  C   UNL     1      -0.146  -4.075   5.407  0.00  0.00    +0.012 C 
ENDBRANCH  17  18
ENDBRANCH  11  12
BRANCH   1  21
ATOM     21  S   UNL     1       0.879  -0.605   1.472  0.00  0.00    -0.075 S 
BRANCH  21  23
ATOM     22  C   UNL     1      -0.019   1.526   0.010  0.00  0.00    +0.029 C 
ATOM     23  C   UNL     1       0.002  -0.004   0.002  0.00  0.00    +0.137 C 
BRANCH  23  24
ATOM     24  C   UNL     1       0.707  -0.490  -1.238  0.00  0.00    +0.229 C 
ATOM     25  O   UNL     1       1.864  -0.849  -1.176  0.00  0.00    -0.274 OA
ATOM     26  N   UNL     1       0.053  -0.526  -2.415  0.00  0.00    -0.301 N 
ATOM     27  C   UNL     1      -1.347  -0.089  -2.507  0.00  0.00    +0.108 C 
ATOM     28  C   UNL     1      -2.172  -1.208  -3.150  0.00  0.00    +0.032 C 
ATOM     29  C   UNL     1      -1.544  -1.593  -4.492  0.00  0.00    +0.078 C 
ATOM     30  C   UNL     1      -0.123  -2.112  -4.262  0.00  0.00    +0.032 C 
ATOM     31  C   UNL     1       0.727  -0.997  -3.633  0.00  0.00    +0.108 C 
BRANCH  29  32
ATOM     32  C   UNL     1      -2.373  -2.671  -5.142  0.00  0.00    +0.214 C 
ATOM     33  O   UNL     1      -3.367  -3.090  -4.588  0.00  0.00    -0.276 OA
ATOM     34  N   UNL     1      -2.009  -3.169  -6.341  0.00  0.00    -0.329 N 
ATOM     35  H   UNL     1      -1.214  -2.834  -6.784  0.00  0.00    +0.145 HD
ATOM     36  H   UNL     1      -2.542  -3.863  -6.760  0.00  0.00    +0.145 HD
ENDBRANCH  29  32
ENDBRANCH  23  24
ENDBRANCH  21  23
ENDBRANCH   1  21
TORSDOF 6
