REMARK  Name = ZINC22525039
REMARK  12 active torsions:
REMARK  status: ('A' for Active; 'I' for Inactive)
REMARK    1  A    between atoms: C_1  and  C_2
REMARK    2  A    between atoms: C_2  and  S_3
REMARK    3  A    between atoms: S_3  and  N_6
REMARK    4  A    between atoms: C_8  and  C_17
REMARK    5  A    between atoms: N_19  and  C_20
REMARK    6  A    between atoms: C_22  and  S_28
REMARK    7  A    between atoms: C_25  and  O_26
REMARK    8  A    between atoms: O_26  and  C_27
REMARK    9  A    between atoms: S_28  and  N_31
REMARK   10  A    between atoms: N_31  and  C_32
REMARK   11  A    between atoms: C_32  and  C_33
REMARK   12  A    between atoms: C_32  and  C_34
REMARK                            x       y       z     vdW  Elec       q    Type
REMARK                         _______ _______ _______ _____ _____    ______ ____
ROOT
ATOM      1  C   UNL     1       0.521   1.309  -0.546  0.00  0.00    +0.260 C 
ATOM      2  O   UNL     1      -0.631   1.670  -0.658  0.00  0.00    -0.271 OA
ATOM      3  N   UNL     1       0.825  -0.003  -0.613  0.00  0.00    -0.279 N 
ATOM      4  H   UNL     1       1.877  -0.325  -0.588  0.00  0.00    +0.155 HD
ENDROOT
BRANCH   1   7
ATOM      5  N   UNL     1       3.268   3.171   1.225  0.00  0.00    -0.200 N 
ATOM      6  C   UNL     1       2.244   2.127   1.049  0.00  0.00    +0.185 C 
ATOM      7  C   UNL     1       1.613   2.326  -0.337  0.00  0.00    +0.278 C 
ATOM      8  O   UNL     1       1.061   3.643  -0.410  0.00  0.00    -0.476 OA
ATOM      9  C   UNL     1       1.849   4.681  -0.022  0.00  0.00    +0.144 A 
ATOM     10  C   UNL     1       2.956   4.470   0.796  0.00  0.00    +0.093 A 
ATOM     11  C   UNL     1       3.748   5.539   1.185  0.00  0.00    +0.028 A 
ATOM     12  C   UNL     1       3.438   6.817   0.758  0.00  0.00    +0.002 A 
ATOM     13  C   UNL     1       2.341   7.029  -0.056  0.00  0.00    +0.004 A 
ATOM     14  C   UNL     1       1.547   5.966  -0.446  0.00  0.00    +0.047 A 
BRANCH   5  15
ATOM     15  S   UNL     1       4.737   2.822   1.906  0.00  0.00    +0.045 S 
ATOM     16  O   UNL     1       4.862   1.411   1.797  0.00  0.00    -0.155 OA
ATOM     17  O   UNL     1       5.655   3.684   1.248  0.00  0.00    -0.155 OA
BRANCH  15  19
ATOM     18  C   UNL     1       5.880   3.021   4.383  0.00  0.00    +0.030 C 
ATOM     19  C   UNL     1       4.568   3.302   3.648  0.00  0.00    +0.185 C 
ENDBRANCH  15  19
ENDBRANCH   5  15
ENDBRANCH   1   7
BRANCH   3  20
ATOM     20  C   UNL     1      -0.198  -0.955  -0.715  0.00  0.00    +0.078 A 
ATOM     21  C   UNL     1      -1.402  -0.620  -1.316  0.00  0.00    +0.055 A 
ATOM     22  C   UNL     1      -2.410  -1.561  -1.415  0.00  0.00    +0.107 A 
ATOM     23  C   UNL     1      -2.220  -2.837  -0.916  0.00  0.00    +0.032 A 
ATOM     24  C   UNL     1      -1.023  -3.178  -0.316  0.00  0.00    +0.049 A 
ATOM     25  C   UNL     1      -0.005  -2.242  -0.218  0.00  0.00    +0.141 A 
BRANCH  22  26
ATOM     26  S   UNL     1      -3.939  -1.134  -2.178  0.00  0.00    +0.059 S 
ATOM     27  O   UNL     1      -4.915  -2.026  -1.659  0.00  0.00    -0.153 OA
ATOM     28  O   UNL     1      -4.065   0.278  -2.074  0.00  0.00    -0.153 OA
BRANCH  26  29
ATOM     29  N   UNL     1      -3.794  -1.478  -3.792  0.00  0.00    -0.187 NA
ATOM     30  H   UNL     1      -3.664  -0.653  -4.508  0.00  0.00    +0.148 HD
BRANCH  29  31
ATOM     31  C   UNL     1      -3.620  -2.865  -4.232  0.00  0.00    +0.070 C 
ATOM     32  C   UNL     1      -4.342  -3.070  -5.566  0.00  0.00    +0.025 C 
ATOM     33  C   UNL     1      -2.130  -3.161  -4.408  0.00  0.00    +0.025 C 
ENDBRANCH  29  31
ENDBRANCH  26  29
ENDBRANCH  22  26
BRANCH  25  34
ATOM     34  O   UNL     1       1.175  -2.578   0.366  0.00  0.00    -0.493 OA
ATOM     35  C   UNL     1       1.302  -3.915   0.853  0.00  0.00    +0.277 C 
ENDBRANCH  25  34
ENDBRANCH   3  20
TORSDOF 8
