REMARK  Name = ZINC38660223
REMARK  15 active torsions:
REMARK  status: ('A' for Active; 'I' for Inactive)
REMARK    1  A    between atoms: C_1  and  C_2
REMARK    2  A    between atoms: C_2  and  C_3
REMARK    3  A    between atoms: C_3  and  C_4
REMARK    4  A    between atoms: C_4  and  C_5
REMARK    5  A    between atoms: C_5  and  O_6
REMARK    6  A    between atoms: O_6  and  C_7
REMARK    7  A    between atoms: C_10  and  C_15
REMARK    8  A    between atoms: C_12  and  O_13
REMARK    9  A    between atoms: O_13  and  C_14
REMARK   10  A    between atoms: C_20  and  O_29
REMARK   11  A    between atoms: C_24  and  N_28
REMARK   12  A    between atoms: C_25  and  C_26
REMARK   13  A    between atoms: O_29  and  C_30
REMARK   14  A    between atoms: C_30  and  C_32
REMARK   15  A    between atoms: C_36  and  C_38
REMARK                            x       y       z     vdW  Elec       q    Type
REMARK                         _______ _______ _______ _____ _____    ______ ____
ROOT
ATOM      1  C   UNL     1       3.950  -6.505  -6.922  0.00  0.00    +0.098 C 
ATOM      2  C   UNL     1       3.257  -6.083  -8.191  0.00  0.00    +0.008 A 
ATOM      3  C   UNL     1       2.086  -6.715  -8.569  0.00  0.00    +0.012 A 
ATOM      4  C   UNL     1       1.436  -6.342  -9.729  0.00  0.00    +0.047 A 
ATOM      5  C   UNL     1       1.958  -5.329 -10.521  0.00  0.00    +0.135 A 
ATOM      6  C   UNL     1       3.131  -4.694 -10.145  0.00  0.00    +0.093 A 
ATOM      7  C   UNL     1       3.783  -5.071  -8.978  0.00  0.00    +0.138 A 
ATOM      8  O   UNL     1       4.930  -4.440  -8.625  0.00  0.00    -0.441 OA
ATOM      9  C   UNL     1       5.769  -5.016  -7.748  0.00  0.00    +0.199 C 
ATOM     10  C   UNL     1       5.365  -5.999  -6.915  0.00  0.00    +0.098 C 
ENDROOT
BRANCH   1  14
ATOM     11  C   UNL     1       1.853  -4.892  -3.562  0.00  0.00    +0.162 A 
ATOM     12  C   UNL     1       2.396  -4.045  -4.516  0.00  0.00    +0.050 A 
ATOM     13  C   UNL     1       3.073  -4.570  -5.601  0.00  0.00    +0.008 A 
ATOM     14  C   UNL     1       3.211  -5.938  -5.738  0.00  0.00    -0.031 A 
ATOM     15  C   UNL     1       2.672  -6.789  -4.790  0.00  0.00    +0.054 A 
ATOM     16  C   UNL     1       1.997  -6.269  -3.697  0.00  0.00    +0.162 A 
BRANCH  16  17
ATOM     17  O   UNL     1       1.471  -7.104  -2.761  0.00  0.00    -0.491 OA
ATOM     18  C   UNL     1       1.658  -8.506  -2.965  0.00  0.00    +0.277 C 
ENDBRANCH  16  17
BRANCH  11  19
ATOM     19  O   UNL     1       1.187  -4.377  -2.494  0.00  0.00    -0.488 OA
BRANCH  19  20
ATOM     20  C   UNL     1       1.078  -2.954  -2.421  0.00  0.00    +0.229 C 
BRANCH  20  21
ATOM     21  C   UNL     1       0.302  -2.566  -1.161  0.00  0.00    +0.041 C 
BRANCH  21  22
ATOM     22  C   UNL     1       0.186  -1.042  -1.083  0.00  0.00    +0.003 C 
BRANCH  22  24
ATOM     23  C   UNL     1      -0.707   0.869   0.255  0.00  0.00    +0.004 C 
ATOM     24  C   UNL     1      -0.591  -0.654   0.177  0.00  0.00    -0.003 C 
ENDBRANCH  22  24
ENDBRANCH  21  22
ENDBRANCH  20  21
ENDBRANCH  19  20
ENDBRANCH  11  19
ENDBRANCH   1  14
BRANCH   9  25
ATOM     25  N   UNL     1       7.074  -4.593  -7.699  0.00  0.00    -0.328 N 
ATOM     26  H   UNL     1       7.378  -3.888  -8.291  0.00  0.00    +0.145 HD
ATOM     27  H   UNL     1       7.692  -5.000  -7.072  0.00  0.00    +0.145 HD
ENDBRANCH   9  25
BRANCH  10  28
ATOM     28  C   UNL     1       6.310  -6.571  -6.003  0.00  0.00    +0.101 C 
ATOM     29  N   UNL     1       7.059  -7.025  -5.280  0.00  0.00    -0.191 NA
ENDBRANCH  10  28
BRANCH   5  30
ATOM     30  O   UNL     1       1.320  -4.960 -11.663  0.00  0.00    -0.422 OA
BRANCH  30  31
ATOM     31  C   UNL     1       0.137  -4.327 -11.550  0.00  0.00    +0.344 C 
ATOM     32  O   UNL     1      -0.280  -4.008 -10.454  0.00  0.00    -0.245 OA
BRANCH  31  33
ATOM     33  C   UNL     1      -0.655  -4.020 -12.759  0.00  0.00    +0.060 A 
ATOM     34  C   UNL     1      -0.182  -4.390 -14.020  0.00  0.00    +0.015 A 
ATOM     35  C   UNL     1      -0.926  -4.101 -15.144  0.00  0.00    +0.001 A 
ATOM     36  C   UNL     1      -2.139  -3.445 -15.025  0.00  0.00    +0.003 A 
ATOM     37  C   UNL     1      -2.614  -3.076 -13.780  0.00  0.00    -0.050 A 
ATOM     38  C   UNL     1      -1.882  -3.364 -12.646  0.00  0.00    +0.018 A 
ATOM     39  C   UNL     1      -3.935  -2.362 -13.660  0.00  0.00    +0.044 C 
ENDBRANCH  31  33
ENDBRANCH  30  31
ENDBRANCH   5  30
TORSDOF 12
