REMARK  Name = ZINC45681729
REMARK  10 active torsions:
REMARK  status: ('A' for Active; 'I' for Inactive)
REMARK    1  A    between atoms: C_1  and  C_2
REMARK    2  A    between atoms: C_2  and  C_4
REMARK    3  A    between atoms: C_2  and  N_10
REMARK    4  A    between atoms: N_6  and  C_7
REMARK    5  A    between atoms: N_13  and  C_16
REMARK    6  A    between atoms: C_16  and  C_17
REMARK    7  A    between atoms: N_19  and  C_20
REMARK    8  A    between atoms: C_21  and  C_29
REMARK    9  A    between atoms: C_29  and  O_31
REMARK   10  A    between atoms: O_31  and  C_32
REMARK                            x       y       z     vdW  Elec       q    Type
REMARK                         _______ _______ _______ _____ _____    ______ ____
ROOT
ATOM      1  C   UNL     1       3.753  -3.738  -1.930  0.00  0.00    +0.180 C 
ENDROOT
BRANCH   1   5
ATOM      2  N   UNL     1       0.815  -0.908  -0.823  0.00  0.00    +0.389 N 
ATOM      3  C   UNL     1       0.669  -2.284  -0.330  0.00  0.00    -0.062 C 
ATOM      4  C   UNL     1       1.501  -3.229  -1.200  0.00  0.00    +0.066 C 
ATOM      5  N   UNL     1       2.912  -2.820  -1.151  0.00  0.00    -0.298 NA
ATOM      6  C   UNL     1       3.071  -1.435  -1.618  0.00  0.00    +0.066 C 
ATOM      7  C   UNL     1       2.226  -0.506  -0.744  0.00  0.00    -0.062 C 
ATOM      8  H   UNL     1       0.505  -0.859  -1.781  0.00  0.00    -0.081 HD
BRANCH   2  10
ATOM      9  C   UNL     1       0.147   1.428  -0.516  0.00  0.00    -0.004 C 
ATOM     10  C   UNL     1       0.002  -0.004   0.002  0.00  0.00    +0.016 C 
BRANCH  10  11
ATOM     11  C   UNL     1      -1.444  -0.421  -0.072  0.00  0.00    +0.199 C 
ATOM     12  O   UNL     1      -1.864  -0.980  -1.063  0.00  0.00    -0.278 OA
ATOM     13  N   UNL     1      -2.271  -0.174   0.963  0.00  0.00    -0.314 N 
ATOM     14  H   UNL     1      -1.935   0.273   1.756  0.00  0.00    +0.149 HD
BRANCH  13  15
ATOM     15  C   UNL     1      -3.677  -0.579   0.891  0.00  0.00    +0.073 C 
ATOM     16  C   UNL     1      -4.726   0.420   1.382  0.00  0.00    +0.024 C 
ATOM     17  C   UNL     1      -4.409  -0.826   2.212  0.00  0.00    +0.024 C 
ENDBRANCH  13  15
ENDBRANCH  10  11
ENDBRANCH   2  10
ENDBRANCH   1   5
BRANCH   1  18
ATOM     18  C   UNL     1       5.205  -3.439  -1.661  0.00  0.00    +0.232 C 
ATOM     19  O   UNL     1       5.510  -2.549  -0.895  0.00  0.00    -0.274 OA
ATOM     20  N   UNL     1       6.166  -4.161  -2.271  0.00  0.00    -0.278 N 
ATOM     21  H   UNL     1       5.923  -4.873  -2.884  0.00  0.00    +0.155 HD
BRANCH  20  22
ATOM     22  C   UNL     1       7.502  -3.887  -2.023  0.00  0.00    +0.086 A 
ATOM     23  C   UNL     1       8.616  -4.516  -2.560  0.00  0.00    +0.091 A 
ATOM     24  C   UNL     1       9.919  -4.035  -2.134  0.00  0.00    -0.021 A 
ATOM     25  C   UNL     1       9.870  -3.014  -1.251  0.00  0.00    -0.004 A 
ATOM     26  S   UNL     1       8.144  -2.711  -1.010  0.00  0.00    -0.077 S 
ATOM     27  C   UNL     1      11.033  -2.307  -0.628  0.00  0.00    +0.043 C 
ATOM     28  C   UNL     1      12.292  -3.159  -0.851  0.00  0.00    +0.005 C 
ATOM     29  C   UNL     1      12.350  -3.581  -2.322  0.00  0.00    +0.005 C 
ATOM     30  C   UNL     1      11.247  -4.600  -2.616  0.00  0.00    +0.037 C 
BRANCH  23  31
ATOM     31  C   UNL     1       8.484  -5.618  -3.514  0.00  0.00    +0.342 C 
ATOM     32  O   UNL     1       8.435  -5.387  -4.708  0.00  0.00    -0.245 OA
BRANCH  31  33
ATOM     33  O   UNL     1       8.416  -6.890  -3.071  0.00  0.00    -0.464 OA
ATOM     34  C   UNL     1       8.288  -7.916  -4.058  0.00  0.00    +0.280 C 
ENDBRANCH  31  33
ENDBRANCH  23  31
ENDBRANCH  20  22
ENDBRANCH   1  18
TORSDOF 8
