REMARK  Name = ZINC33040257
REMARK  10 active torsions:
REMARK  status: ('A' for Active; 'I' for Inactive)
REMARK    1  A    between atoms: C_1  and  C_2
REMARK    2  A    between atoms: C_2  and  C_4
REMARK    3  A    between atoms: C_2  and  N_12
REMARK    4  A    between atoms: C_4  and  C_5
REMARK    5  A    between atoms: C_5  and  C_6
REMARK    6  A    between atoms: C_13  and  C_15
REMARK    7  A    between atoms: C_15  and  C_17
REMARK    8  A    between atoms: C_15  and  N_18
REMARK    9  A    between atoms: N_21  and  C_24
REMARK   10  A    between atoms: C_27  and  N_30
REMARK                            x       y       z     vdW  Elec       q    Type
REMARK                         _______ _______ _______ _____ _____    ______ ____
ROOT
ATOM      1  C   UNL     1       3.501   2.017   1.237  0.00  0.00    +0.016 C 
ATOM      2  C   UNL     1       3.498   1.742   2.742  0.00  0.00    -0.004 C 
ENDROOT
BRANCH   1   3
ATOM      3  N   UNL     1       2.323   1.389   0.622  0.00  0.00    +0.389 N 
ATOM      4  C   UNL     1       1.104   1.699   1.382  0.00  0.00    -0.059 C 
ATOM      5  C   UNL     1      -0.084   0.964   0.758  0.00  0.00    +0.086 C 
ATOM      6  N   UNL     1      -0.225   1.371  -0.647  0.00  0.00    -0.333 N 
ATOM      7  C   UNL     1       0.994   1.060  -1.407  0.00  0.00    +0.086 C 
ATOM      8  C   UNL     1       2.182   1.796  -0.783  0.00  0.00    -0.059 C 
ATOM      9  H   UNL     1       2.471   0.299   0.647  0.00  0.00    -0.081 HD
BRANCH   6  10
ATOM     10  C   UNL     1      -1.345   0.774  -1.231  0.00  0.00    +0.030 A 
ATOM     11  C   UNL     1      -2.146  -0.082  -0.486  0.00  0.00    +0.025 A 
ATOM     12  C   UNL     1      -3.255  -0.666  -1.065  0.00  0.00    +0.034 A 
ATOM     13  C   UNL     1      -3.562  -0.409  -2.389  0.00  0.00    +0.126 A 
ATOM     14  C   UNL     1      -2.764   0.438  -3.135  0.00  0.00    +0.034 A 
ATOM     15  C   UNL     1      -1.656   1.030  -2.561  0.00  0.00    +0.025 A 
BRANCH  13  16
ATOM     16  N   UNL     1      -4.749  -1.041  -3.007  0.00  0.00    +0.056 N 
ATOM     17  O   UNL     1      -5.021  -0.815  -4.173  0.00  0.00    -0.126 OA
ATOM     18  O   UNL     1      -5.453  -1.787  -2.351  0.00  0.00    -0.126 OA
ENDBRANCH  13  16
ENDBRANCH   6  10
ENDBRANCH   1   3
BRANCH   1  20
ATOM     19  N   UNL     1       4.607   4.205   0.911  0.00  0.00    -0.314 N 
ATOM     20  C   UNL     1       3.459   3.504   0.997  0.00  0.00    +0.199 C 
ATOM     21  O   UNL     1       2.393   4.070   0.881  0.00  0.00    -0.278 OA
ATOM     22  H   UNL     1       5.574   3.691   1.016  0.00  0.00    +0.149 HD
BRANCH  19  24
ATOM     23  C   UNL     1       4.460   5.922  -0.824  0.00  0.00    +0.028 C 
ATOM     24  C   UNL     1       4.567   5.650   0.678  0.00  0.00    +0.070 C 
BRANCH  24  25
ATOM     25  C   UNL     1       5.846   6.290   1.222  0.00  0.00    +0.026 C 
BRANCH  25  26
ATOM     26  C   UNL     1       5.891   6.127   2.743  0.00  0.00    +0.037 C 
BRANCH  26  27
ATOM     27  C   UNL     1       7.151   6.757   3.279  0.00  0.00    -0.047 A 
ATOM     28  C   UNL     1       8.303   6.003   3.401  0.00  0.00    +0.003 A 
ATOM     29  C   UNL     1       9.460   6.583   3.887  0.00  0.00    +0.000 A 
ATOM     30  C   UNL     1       9.461   7.913   4.262  0.00  0.00    +0.000 A 
ATOM     31  C   UNL     1       8.307   8.665   4.146  0.00  0.00    +0.000 A 
ATOM     32  C   UNL     1       7.152   8.087   3.654  0.00  0.00    +0.003 A 
ENDBRANCH  26  27
ENDBRANCH  25  26
ENDBRANCH  24  25
ENDBRANCH  19  24
ENDBRANCH   1  20
TORSDOF 8
