REMARK  Name = ZINC12832856
REMARK  12 active torsions:
REMARK  status: ('A' for Active; 'I' for Inactive)
REMARK    1  A    between atoms: C_1  and  C_2
REMARK    2  A    between atoms: C_2  and  O_3
REMARK    3  A    between atoms: O_3  and  C_4
REMARK    4  A    between atoms: C_4  and  C_6
REMARK    5  A    between atoms: C_6  and  N_7
REMARK    6  A    between atoms: C_8  and  C_12
REMARK    7  A    between atoms: C_12  and  N_62
REMARK    8  A    between atoms: C_13  and  C_14
REMARK    9  A    between atoms: C_13  and  N_62
REMARK   10  A    between atoms: C_23  and  C_24
REMARK   11  A    between atoms: C_23  and  N_62
REMARK   12  A    between atoms: C_29  and  C_36
REMARK                            x       y       z     vdW  Elec       q    Type
REMARK                         _______ _______ _______ _____ _____    ______ ____
ROOT
ATOM      1  N   UNL     1       5.934  -1.119   1.129  0.00  0.00    +0.390 N 
ATOM      2  H   UNL     1       6.006  -0.594   0.249  0.00  0.00    -0.080 HD
ENDROOT
BRANCH   1   3
ATOM      3  C   UNL     1       7.223  -1.032   1.847  0.00  0.00    +0.001 C 
BRANCH   3   5
ATOM      4  N   UNL     1       8.357   1.114   1.065  0.00  0.00    -0.220 N 
ATOM      5  C   UNL     1       7.624   0.417   1.952  0.00  0.00    +0.136 A 
ATOM      6  N   UNL     1       7.332   1.241   2.929  0.00  0.00    -0.115 NA
ATOM      7  N   UNL     1       7.854   2.386   2.653  0.00  0.00    -0.023 NA
ATOM      8  N   UNL     1       8.471   2.314   1.525  0.00  0.00    -0.043 NA
BRANCH   4   9
ATOM      9  C   UNL     1       8.917   0.607  -0.190  0.00  0.00    +0.267 C 
BRANCH   9  10
ATOM     10  C   UNL     1       7.922   0.812  -1.304  0.00  0.00    +0.329 C 
ATOM     11  O   UNL     1       6.855   1.329  -1.072  0.00  0.00    -0.249 OA
BRANCH  10  12
ATOM     12  O   UNL     1       8.222   0.420  -2.552  0.00  0.00    -0.464 OA
BRANCH  12  14
ATOM     13  C   UNL     1       7.733   0.141  -4.921  0.00  0.00    +0.048 C 
ATOM     14  C   UNL     1       7.216   0.649  -3.574  0.00  0.00    +0.229 C 
ENDBRANCH  12  14
ENDBRANCH  10  12
ENDBRANCH   9  10
ENDBRANCH   4   9
ENDBRANCH   3   5
ENDBRANCH   1   3
BRANCH   1  15
ATOM     15  C   UNL     1       4.856  -0.529   1.952  0.00  0.00    -0.042 C 
BRANCH  15  16
ATOM     16  C   UNL     1       3.654  -0.291   1.075  0.00  0.00    -0.060 A 
ATOM     17  C   UNL     1       2.630  -1.220   1.042  0.00  0.00    +0.005 A 
ATOM     18  C   UNL     1       1.525  -1.007   0.239  0.00  0.00    +0.050 A 
ATOM     19  C   UNL     1       1.441   0.140  -0.534  0.00  0.00    +0.166 A 
ATOM     20  C   UNL     1       2.471   1.076  -0.500  0.00  0.00    +0.166 A 
ATOM     21  C   UNL     1       3.576   0.855   0.307  0.00  0.00    +0.051 A 
ATOM     22  O   UNL     1       2.155   2.105  -1.339  0.00  0.00    -0.453 OA
ATOM     23  C   UNL     1       0.739   1.987  -1.574  0.00  0.00    +0.466 C 
ATOM     24  O   UNL     1       0.478   0.583  -1.395  0.00  0.00    -0.453 OA
ENDBRANCH  15  16
ENDBRANCH   1  15
BRANCH   1  25
ATOM     25  C   UNL     1       5.621  -2.530   0.822  0.00  0.00    -0.036 C 
BRANCH  25  26
ATOM     26  C   UNL     1       6.517  -2.992  -0.298  0.00  0.00    +0.001 A 
ATOM     27  C   UNL     1       7.653  -3.677  -0.016  0.00  0.00    +0.017 A 
ATOM     28  C   UNL     1       8.502  -4.112  -1.126  0.00  0.00    -0.001 A 
ATOM     29  C   UNL     1       9.685  -4.822  -0.898  0.00  0.00    +0.010 A 
ATOM     30  C   UNL     1      10.455  -5.214  -1.956  0.00  0.00    +0.004 A 
ATOM     31  C   UNL     1      10.074  -4.913  -3.256  0.00  0.00    -0.048 A 
ATOM     32  C   UNL     1       8.912  -4.215  -3.505  0.00  0.00    +0.029 A 
ATOM     33  C   UNL     1       8.112  -3.805  -2.444  0.00  0.00    +0.049 A 
ATOM     34  N   UNL     1       6.945  -3.106  -2.664  0.00  0.00    -0.322 N 
ATOM     35  H   UNL     1       6.678  -2.895  -3.572  0.00  0.00    +0.169 HD
ATOM     36  C   UNL     1       6.168  -2.715  -1.638  0.00  0.00    +0.251 A 
ATOM     37  O   UNL     1       5.141  -2.102  -1.869  0.00  0.00    -0.268 OA
ATOM     38  C   UNL     1      10.939  -5.356  -4.408  0.00  0.00    +0.044 C 
ENDBRANCH  25  26
ENDBRANCH   1  25
TORSDOF 10
