REMARK  Name = ZINC36306679
REMARK  19 active torsions:
REMARK  status: ('A' for Active; 'I' for Inactive)
REMARK    1  A    between atoms: C_1  and  C_2
REMARK    2  A    between atoms: C_2  and  C_3
REMARK    3  A    between atoms: C_3  and  C_4
REMARK    4  A    between atoms: C_4  and  O_6
REMARK    5  A    between atoms: O_6  and  C_7
REMARK    6  A    between atoms: C_7  and  C_8
REMARK    7  A    between atoms: C_8  and  C_10
REMARK    8  A    between atoms: C_8  and  O_37
REMARK    9  A    between atoms: C_10  and  N_11
REMARK   10  A    between atoms: N_11  and  C_12
REMARK   11  A    between atoms: N_11  and  C_33
REMARK   12  A    between atoms: C_12  and  C_13
REMARK   13  A    between atoms: C_14  and  C_27
REMARK   14  A    between atoms: N_16  and  C_26
REMARK   15  A    between atoms: C_17  and  O_18
REMARK   16  A    between atoms: O_18  and  C_19
REMARK   17  A    between atoms: C_33  and  C_34
REMARK   18  A    between atoms: C_34  and  C_35
REMARK   19  A    between atoms: C_34  and  C_36
REMARK                            x       y       z     vdW  Elec       q    Type
REMARK                         _______ _______ _______ _____ _____    ______ ____
ROOT
ATOM      1  C   UNL     1      -4.545  -7.918   2.106  0.00  0.00    +0.025 A 
ATOM      2  C   UNL     1      -3.184  -8.004   2.454  0.00  0.00    +0.098 A 
ATOM      3  N   UNL     1      -3.103  -8.119   3.763  0.00  0.00    -0.168 NA
ATOM      4  N   UNL     1      -4.402  -8.109   4.286  0.00  0.00    -0.235 N 
ATOM      5  C   UNL     1      -5.272  -7.979   3.251  0.00  0.00    +0.221 A 
ATOM      6  C   UNL     1      -4.760  -8.214   5.703  0.00  0.00    +0.176 C 
ENDROOT
BRANCH   2   7
ATOM      7  C   UNL     1      -2.039  -7.972   1.510  0.00  0.00    +0.002 A 
ATOM      8  C   UNL     1      -2.091  -8.701   0.324  0.00  0.00    +0.010 A 
ATOM      9  C   UNL     1      -1.024  -8.668  -0.551  0.00  0.00    +0.001 A 
ATOM     10  C   UNL     1       0.095  -7.912  -0.252  0.00  0.00    +0.000 A 
ATOM     11  C   UNL     1       0.152  -7.187   0.925  0.00  0.00    +0.001 A 
ATOM     12  C   UNL     1      -0.912  -7.209   1.804  0.00  0.00    +0.010 A 
ENDBRANCH   2   7
BRANCH   1  13
ATOM     13  C   UNL     1      -5.097  -7.776   0.711  0.00  0.00    -0.035 C 
BRANCH  13  14
ATOM     14  N   UNL     1      -5.359  -6.358   0.429  0.00  0.00    +0.384 N 
ATOM     15  H   UNL     1      -5.965  -5.980   1.142  0.00  0.00    -0.081 HD
BRANCH  14  16
ATOM     16  C   UNL     1      -4.091  -5.618   0.422  0.00  0.00    -0.043 C 
BRANCH  16  17
ATOM     17  C   UNL     1      -4.376  -4.119   0.311  0.00  0.00    +0.136 C 
BRANCH  17  18
ATOM     18  O   UNL     1      -4.921  -3.831  -0.978  0.00  0.00    -0.390 OA
ATOM     19  H   UNL     1      -4.337  -4.065  -1.712  0.00  0.00    +0.210 HD
ENDBRANCH  17  18
BRANCH  17  20
ATOM     20  C   UNL     1      -3.075  -3.337   0.501  0.00  0.00    +0.261 C 
BRANCH  20  21
ATOM     21  O   UNL     1      -3.358  -1.936   0.515  0.00  0.00    -0.462 OA
BRANCH  21  22
ATOM     22  C   UNL     1      -2.316  -1.105   0.674  0.00  0.00    +0.307 C 
ATOM     23  O   UNL     1      -1.200  -1.552   0.798  0.00  0.00    -0.251 OA
BRANCH  22  24
ATOM     24  C   UNL     1      -2.538   0.386   0.698  0.00  0.00    +0.120 C 
BRANCH  24  26
ATOM     25  C   UNL     1      -1.423   2.611   0.914  0.00  0.00    +0.004 C 
ATOM     26  C   UNL     1      -1.198   1.098   0.890  0.00  0.00    +0.008 C 
ENDBRANCH  24  26
ENDBRANCH  22  24
ENDBRANCH  21  22
ENDBRANCH  20  21
ENDBRANCH  17  20
ENDBRANCH  16  17
ENDBRANCH  14  16
BRANCH  14  27
ATOM     27  C   UNL     1      -6.008  -6.231  -0.882  0.00  0.00    -0.075 C 
BRANCH  27  28
ATOM     28  C   UNL     1      -7.360  -6.947  -0.854  0.00  0.00    -0.034 C 
ATOM     29  C   UNL     1      -8.280  -6.260   0.158  0.00  0.00    +0.005 C 
ATOM     30  C   UNL     1      -7.997  -6.888  -2.244  0.00  0.00    +0.005 C 
ENDBRANCH  27  28
ENDBRANCH  14  27
ENDBRANCH  13  14
ENDBRANCH   1  13
BRANCH   5  31
ATOM     31  O   UNL     1      -6.625  -7.922   3.345  0.00  0.00    -0.435 OA
BRANCH  31  32
ATOM     32  C   UNL     1      -7.313  -9.094   3.359  0.00  0.00    +0.165 A 
ATOM     33  C   UNL     1      -6.629 -10.301   3.386  0.00  0.00    +0.049 A 
ATOM     34  C   UNL     1      -7.331 -11.491   3.401  0.00  0.00    +0.004 A 
ATOM     35  C   UNL     1      -8.713 -11.482   3.388  0.00  0.00    +0.003 A 
ATOM     36  C   UNL     1      -9.399 -10.281   3.360  0.00  0.00    +0.042 A 
ATOM     37  C   UNL     1      -8.702  -9.086   3.352  0.00  0.00    +0.165 A 
ATOM     38  F   UNL     1      -9.371  -7.913   3.330  0.00  0.00    -0.202 F 
ENDBRANCH  31  32
ENDBRANCH   5  31
TORSDOF 15
