REMARK  Name = ZINC19685041
REMARK  2 active torsions:
REMARK  status: ('A' for Active; 'I' for Inactive)
REMARK    1  A    between atoms: C_1  and  C_2
REMARK    2  A    between atoms: C_2  and  C_3
REMARK                            x       y       z     vdW  Elec       q    Type
REMARK                         _______ _______ _______ _____ _____    ______ ____
ROOT
ATOM      1  C   UNL     1       0.000   1.080   2.488  0.00  0.00    +0.017 A 
ATOM      2  C   UNL     1       0.921   1.869   3.094  0.00  0.00    +0.019 A 
ATOM      3  C   UNL     1       1.612   1.354   4.278  0.00  0.00    -0.001 A 
ATOM      4  C   UNL     1       2.572   2.116   4.947  0.00  0.00    +0.014 A 
ATOM      5  C   UNL     1       3.205   1.611   6.053  0.00  0.00    -0.041 A 
ATOM      6  C   UNL     1       2.896   0.342   6.518  0.00  0.00    -0.028 A 
ATOM      7  C   UNL     1       1.948  -0.428   5.869  0.00  0.00    +0.031 A 
ATOM      8  C   UNL     1       1.297   0.064   4.745  0.00  0.00    +0.049 A 
ATOM      9  N   UNL     1       0.349  -0.688   4.083  0.00  0.00    -0.322 N 
ATOM     10  H   UNL     1       0.102  -1.698   4.440  0.00  0.00    +0.169 HD
ATOM     11  C   UNL     1      -0.283  -0.204   2.999  0.00  0.00    +0.252 A 
ATOM     12  O   UNL     1      -1.119  -0.895   2.442  0.00  0.00    -0.268 OA
ATOM     13  C   UNL     1       3.569  -0.240   7.735  0.00  0.00    +0.116 C 
ATOM     14  N   UNL     1       4.798   0.497   8.045  0.00  0.00    -0.312 NA
ATOM     15  C   UNL     1       4.517   1.939   8.140  0.00  0.00    +0.086 C 
ATOM     16  C   UNL     1       4.238   2.472   6.735  0.00  0.00    +0.050 C 
ATOM     17  H   UNL     1       5.204   0.146   9.005  0.00  0.00    +0.122 HD
ENDROOT
BRANCH   1  19
ATOM     18  C   UNL     1      -0.013   1.086   0.008  0.00  0.00    +0.009 C 
ATOM     19  C   UNL     1      -0.729   1.579   1.267  0.00  0.00    +0.037 C 
ENDBRANCH   1  19
TORSDOF 1
