REMARK  Name = ZINC39711270
REMARK  15 active torsions:
REMARK  status: ('A' for Active; 'I' for Inactive)
REMARK    1  A    between atoms: C_1  and  C_2
REMARK    2  A    between atoms: C_6  and  C_15
REMARK    3  A    between atoms: C_13  and  C_14
REMARK    4  A    between atoms: C_15  and  C_17
REMARK    5  A    between atoms: C_15  and  N_27
REMARK    6  A    between atoms: N_22  and  C_23
REMARK    7  A    between atoms: C_23  and  C_24
REMARK    8  A    between atoms: C_23  and  C_25
REMARK    9  A    between atoms: C_23  and  C_26
REMARK   10  A    between atoms: N_27  and  C_28
REMARK   11  A    between atoms: N_27  and  C_37
REMARK   12  A    between atoms: C_28  and  C_29
REMARK   13  A    between atoms: C_32  and  O_35
REMARK   14  A    between atoms: O_35  and  C_36
REMARK   15  A    between atoms: C_37  and  C_38
REMARK                            x       y       z     vdW  Elec       q    Type
REMARK                         _______ _______ _______ _____ _____    ______ ____
ROOT
ATOM      1  C   UNL     1       0.856  -5.491  -2.912  0.00  0.00    -0.009 C 
ENDROOT
BRANCH   1   7
ATOM      2  C   UNL     1      -2.862   0.285  -0.956  0.00  0.00    +0.044 C 
ATOM      3  C   UNL     1      -2.265  -1.077  -0.713  0.00  0.00    -0.047 A 
ATOM      4  C   UNL     1      -1.980  -1.877  -1.773  0.00  0.00    +0.013 A 
ATOM      5  C   UNL     1      -1.400  -3.197  -1.526  0.00  0.00    -0.007 A 
ATOM      6  C   UNL     1      -1.097  -4.034  -2.559  0.00  0.00    -0.006 C 
ATOM      7  C   UNL     1      -0.499  -5.382  -2.209  0.00  0.00    +0.088 C 
ATOM      8  C   UNL     1      -0.286  -5.689  -0.744  0.00  0.00    +0.223 C 
ATOM      9  O   UNL     1       0.191  -6.756  -0.407  0.00  0.00    -0.275 OA
ATOM     10  N   UNL     1      -0.621  -4.794   0.170  0.00  0.00    -0.285 N 
ATOM     11  C   UNL     1      -1.147  -3.607  -0.133  0.00  0.00    +0.041 A 
ATOM     12  C   UNL     1      -1.478  -2.703   0.892  0.00  0.00    +0.027 A 
ATOM     13  C   UNL     1      -2.010  -1.488   0.596  0.00  0.00    -0.046 A 
ATOM     14  C   UNL     1      -2.344  -0.549   1.726  0.00  0.00    +0.044 C 
ATOM     15  H   UNL     1      -0.476  -5.010   1.104  0.00  0.00    +0.155 HD
ENDBRANCH   1   7
BRANCH   1  16
ATOM     16  C   UNL     1       1.814  -4.446  -2.338  0.00  0.00    +0.205 C 
ATOM     17  N   UNL     1       2.029  -4.681  -0.903  0.00  0.00    -0.152 NA
ATOM     18  N   UNL     1       1.639  -3.695  -0.275  0.00  0.00    -0.070 NA
ATOM     19  N   UNL     1       1.129  -2.692  -1.100  0.00  0.00    -0.179 N 
ATOM     20  N   UNL     1       1.211  -3.099  -2.409  0.00  0.00    -0.183 NA
ATOM     21  H   UNL     1       0.774  -1.842  -0.797  0.00  0.00    +0.191 HD
BRANCH  20  22
ATOM     22  C   UNL     1       2.052  -2.186  -3.194  0.00  0.00    +0.035 C 
ATOM     23  C   UNL     1       2.206  -2.730  -4.616  0.00  0.00    +0.029 C 
ATOM     24  C   UNL     1       1.397  -0.804  -3.245  0.00  0.00    +0.029 C 
ATOM     25  C   UNL     1       3.430  -2.072  -2.539  0.00  0.00    +0.029 C 
ENDBRANCH  20  22
ENDBRANCH   1  16
BRANCH   1  26
ATOM     26  N   UNL     1       1.411  -6.834  -2.700  0.00  0.00    +0.389 N 
ATOM     27  H   UNL     1       1.648  -6.950  -1.725  0.00  0.00    -0.081 HD
BRANCH  26  28
ATOM     28  C   UNL     1       0.415  -7.843  -3.085  0.00  0.00    -0.042 C 
BRANCH  28  29
ATOM     29  C   UNL     1       0.937  -9.217  -2.752  0.00  0.00    -0.064 A 
ATOM     30  C   UNL     1       1.677  -9.919  -3.686  0.00  0.00    +0.005 A 
ATOM     31  C   UNL     1       2.156 -11.179  -3.384  0.00  0.00    +0.046 A 
ATOM     32  C   UNL     1       1.895 -11.740  -2.142  0.00  0.00    +0.120 A 
ATOM     33  C   UNL     1       1.152 -11.033  -1.207  0.00  0.00    +0.046 A 
ATOM     34  C   UNL     1       0.680  -9.772  -1.512  0.00  0.00    +0.005 A 
BRANCH  32  35
ATOM     35  O   UNL     1       2.365 -12.979  -1.843  0.00  0.00    -0.495 OA
ATOM     36  C   UNL     1       2.057 -13.494  -0.546  0.00  0.00    +0.277 C 
ENDBRANCH  32  35
ENDBRANCH  28  29
ENDBRANCH  26  28
BRANCH  26  37
ATOM     37  C   UNL     1       2.619  -7.000  -3.520  0.00  0.00    -0.046 C 
BRANCH  37  38
ATOM     38  C   UNL     1       3.831  -6.463  -2.757  0.00  0.00    +0.102 C 
ATOM     39  C   UNL     1       5.125  -6.789  -3.533  0.00  0.00    +0.032 C 
ATOM     40  C   UNL     1       6.110  -7.161  -2.391  0.00  0.00    +0.030 C 
ATOM     41  C   UNL     1       5.149  -7.842  -1.384  0.00  0.00    +0.160 C 
ATOM     42  O   UNL     1       3.921  -7.099  -1.476  0.00  0.00    -0.378 OA
ENDBRANCH  37  38
ENDBRANCH  26  37
ENDBRANCH   1  26
TORSDOF 9
