REMARK  Name = ZINC22357956
REMARK  6 active torsions:
REMARK  status: ('A' for Active; 'I' for Inactive)
REMARK    1  A    between atoms: C_1  and  C_2
REMARK    2  A    between atoms: C_12  and  C_14
REMARK    3  A    between atoms: C_14  and  N_15
REMARK    4  A    between atoms: N_15  and  C_16
REMARK    5  A    between atoms: C_19  and  N_25
REMARK    6  A    between atoms: C_21  and  C_22
REMARK                            x       y       z     vdW  Elec       q    Type
REMARK                         _______ _______ _______ _____ _____    ______ ____
ROOT
ATOM      1  C   UNL     1      -3.677   1.546   0.134  0.00  0.00    +0.040 A 
ATOM      2  C   UNL     1      -4.867   0.828   0.124  0.00  0.00    +0.025 A 
ATOM      3  C   UNL     1      -4.845  -0.546   0.012  0.00  0.00    +0.025 A 
ATOM      4  C   UNL     1      -3.635  -1.225  -0.092  0.00  0.00    +0.031 A 
ATOM      5  C   UNL     1      -2.442  -0.524  -0.090  0.00  0.00    +0.038 A 
ATOM      6  C   UNL     1      -2.454   0.869   0.028  0.00  0.00    +0.059 A 
ENDROOT
BRANCH   4   7
ATOM      7  N   UNL     1      -3.624  -2.620  -0.206  0.00  0.00    -0.330 N 
ATOM      8  C   UNL     1      -2.897  -3.045  -1.409  0.00  0.00    +0.105 C 
ATOM      9  C   UNL     1      -2.780  -4.571  -1.424  0.00  0.00    +0.019 C 
ATOM     10  C   UNL     1      -4.182  -5.185  -1.410  0.00  0.00    +0.003 C 
ATOM     11  C   UNL     1      -4.936  -4.689  -0.173  0.00  0.00    +0.019 C 
ATOM     12  C   UNL     1      -4.990  -3.160  -0.194  0.00  0.00    +0.105 C 
ENDBRANCH   4   7
BRANCH   6  13
ATOM     13  C   UNL     1      -1.186   1.622   0.037  0.00  0.00    +0.243 C 
ATOM     14  O   UNL     1      -1.202   2.838   0.032  0.00  0.00    -0.270 OA
ATOM     15  N   UNL     1      -0.011   0.963   0.051  0.00  0.00    -0.325 N 
ATOM     16  H   UNL     1       0.935   1.526   0.057  0.00  0.00    +0.145 HD
ATOM     17  H   UNL     1       0.004  -0.137   0.055  0.00  0.00    +0.145 HD
ENDBRANCH   6  13
BRANCH   1  18
ATOM     18  N   UNL     1      -3.700   2.933   0.247  0.00  0.00    -0.335 N 
ATOM     19  H   UNL     1      -2.765   3.506   0.165  0.00  0.00    +0.147 HD
BRANCH  18  20
ATOM     20  C   UNL     1      -4.969   3.628   0.478  0.00  0.00    +0.198 C 
BRANCH  20  31
ATOM     21  C   UNL     1      -5.076   7.993  -0.430  0.00  0.00    +0.029 C 
ATOM     22  C   UNL     1      -5.632   7.414   0.872  0.00  0.00    +0.083 C 
ATOM     23  C   UNL     1      -7.065   7.918   1.110  0.00  0.00    +0.059 C 
ATOM     24  C   UNL     1      -7.912   6.665   1.126  0.00  0.00    -0.024 A 
ATOM     25  C   UNL     1      -9.271   6.492   1.300  0.00  0.00    +0.005 A 
ATOM     26  C   UNL     1      -9.819   5.223   1.274  0.00  0.00    +0.000 A 
ATOM     27  C   UNL     1      -9.002   4.125   1.074  0.00  0.00    +0.002 A 
ATOM     28  C   UNL     1      -7.645   4.293   0.900  0.00  0.00    +0.024 A 
ATOM     29  C   UNL     1      -7.085   5.572   0.919  0.00  0.00    +0.040 A 
ATOM     30  N   UNL     1      -5.749   5.957   0.772  0.00  0.00    -0.267 N 
ATOM     31  C   UNL     1      -4.720   5.112   0.562  0.00  0.00    +0.237 C 
ATOM     32  O   UNL     1      -3.594   5.546   0.442  0.00  0.00    -0.274 OA
ENDBRANCH  20  31
ENDBRANCH  18  20
ENDBRANCH   1  18
TORSDOF 5
