REMARK  Name = ZINC12343104
REMARK  5 active torsions:
REMARK  status: ('A' for Active; 'I' for Inactive)
REMARK    1  A    between atoms: C_1  and  C_2
REMARK    2  A    between atoms: C_2  and  C_18
REMARK    3  A    between atoms: N_3  and  N_4
REMARK    4  A    between atoms: C_5  and  C_7
REMARK    5  A    between atoms: C_19  and  C_20
REMARK                            x       y       z     vdW  Elec       q    Type
REMARK                         _______ _______ _______ _____ _____    ______ ____
ROOT
ATOM      1  C   UNL     1      -0.018   1.503   0.010  0.00  0.00    +0.067 C 
ATOM      2  C   UNL     1       0.002  -0.004   0.002  0.00  0.00    +0.056 C 
ATOM      3  N   UNL     1       0.022  -0.661   1.126  0.00  0.00    -0.185 NA
ENDROOT
BRANCH   3   4
ATOM      4  N   UNL     1       0.024   0.033   2.343  0.00  0.00    -0.204 N 
ATOM      5  C   UNL     1       0.044  -0.647   3.507  0.00  0.00    +0.276 C 
ATOM      6  O   UNL     1       0.060  -1.861   3.500  0.00  0.00    -0.270 OA
ATOM      7  H   UNL     1       0.011   1.002   2.349  0.00  0.00    +0.177 HD
BRANCH   5   8
ATOM      8  C   UNL     1       0.046   0.099   4.816  0.00  0.00    +0.297 C 
ATOM      9  C   UNL     1       1.353   0.892   4.957  0.00  0.00    +0.283 C 
ATOM     10  O   UNL     1       1.328   1.576   6.215  0.00  0.00    -0.484 OA
ATOM     11  C   UNL     1       0.938   0.850   7.298  0.00  0.00    +0.162 A 
ATOM     12  C   UNL     1       1.229   1.318   8.571  0.00  0.00    +0.049 A 
ATOM     13  C   UNL     1       0.837   0.594   9.681  0.00  0.00    +0.004 A 
ATOM     14  C   UNL     1       0.154  -0.598   9.526  0.00  0.00    +0.004 A 
ATOM     15  C   UNL     1      -0.138  -1.070   8.260  0.00  0.00    +0.049 A 
ATOM     16  C   UNL     1       0.254  -0.349   7.142  0.00  0.00    +0.163 A 
ATOM     17  O   UNL     1      -0.035  -0.831   5.902  0.00  0.00    -0.472 OA
ENDBRANCH   5   8
ENDBRANCH   3   4
BRANCH   2  18
ATOM     18  C   UNL     1       0.000  -0.706  -1.230  0.00  0.00    +0.025 C 
ATOM     19  C   UNL     1       0.018  -2.055  -1.237  0.00  0.00    +0.010 C 
BRANCH  19  20
ATOM     20  C   UNL     1       0.016  -2.784  -2.515  0.00  0.00    -0.021 A 
ATOM     21  C   UNL     1       0.001  -2.080  -3.724  0.00  0.00    +0.012 A 
ATOM     22  C   UNL     1      -0.001  -2.766  -4.920  0.00  0.00    +0.050 A 
ATOM     23  C   UNL     1       0.011  -4.154  -4.930  0.00  0.00    +0.166 A 
ATOM     24  C   UNL     1       0.027  -4.862  -3.728  0.00  0.00    +0.167 A 
ATOM     25  C   UNL     1       0.035  -4.183  -2.526  0.00  0.00    +0.057 A 
ATOM     26  O   UNL     1       0.037  -6.198  -4.011  0.00  0.00    -0.453 OA
ATOM     27  C   UNL     1      -0.385  -6.304  -5.383  0.00  0.00    +0.466 C 
ATOM     28  O   UNL     1       0.013  -5.047  -5.962  0.00  0.00    -0.453 OA
ENDBRANCH  19  20
ENDBRANCH   2  18
TORSDOF 4
