REMARK  Name = ZINC11898447
REMARK  9 active torsions:
REMARK  status: ('A' for Active; 'I' for Inactive)
REMARK    1  A    between atoms: C_1  and  C_2
REMARK    2  A    between atoms: C_2  and  C_3
REMARK    3  A    between atoms: C_6  and  N_9
REMARK    4  A    between atoms: C_10  and  C_12
REMARK    5  A    between atoms: N_14  and  C_15
REMARK    6  A    between atoms: C_15  and  C_16
REMARK    7  A    between atoms: C_16  and  C_18
REMARK    8  A    between atoms: C_16  and  N_62
REMARK    9  A    between atoms: N_22  and  C_23
REMARK                            x       y       z     vdW  Elec       q    Type
REMARK                         _______ _______ _______ _____ _____    ______ ____
ROOT
ATOM      1  C   UNL     1      -0.211   1.312   0.204  0.00  0.00    -0.003 C 
ENDROOT
BRANCH   1  11
ATOM      2  C   UNL     1       0.290  -0.717   1.431  0.00  0.00    -0.073 C 
ATOM      3  C   UNL     1       0.329  -2.236   1.261  0.00  0.00    +0.017 C 
ATOM      4  C   UNL     1       1.364  -2.613   0.232  0.00  0.00    -0.048 A 
ATOM      5  C   UNL     1       1.801  -3.928   0.185  0.00  0.00    +0.004 A 
ATOM      6  C   UNL     1       2.745  -4.316  -0.745  0.00  0.00    +0.000 A 
ATOM      7  C   UNL     1       3.258  -3.388  -1.632  0.00  0.00    +0.000 A 
ATOM      8  C   UNL     1       2.825  -2.079  -1.585  0.00  0.00    +0.002 A 
ATOM      9  C   UNL     1       1.877  -1.687  -0.651  0.00  0.00    -0.061 A 
ATOM     10  C   UNL     1       1.439  -0.246  -0.635  0.00  0.00    -0.042 C 
ATOM     11  N   UNL     1       0.163  -0.116   0.088  0.00  0.00    +0.389 N 
ATOM     12  H   UNL     1      -0.570  -0.612  -0.433  0.00  0.00    -0.080 HD
ENDBRANCH   1  11
BRANCH   1  13
ATOM     13  C   UNL     1      -0.506   1.855  -1.171  0.00  0.00    +0.006 A 
ATOM     14  C   UNL     1      -0.514   1.144  -2.317  0.00  0.00    +0.021 A 
ATOM     15  C   UNL     1      -0.838   2.032  -3.361  0.00  0.00    +0.019 A 
ATOM     16  C   UNL     1      -1.007   3.254  -2.815  0.00  0.00    +0.085 A 
ATOM     17  N   UNL     1      -0.804   3.151  -1.471  0.00  0.00    -0.355 N 
ATOM     18  C   UNL     1      -0.892   4.252  -0.508  0.00  0.00    +0.148 C 
ENDBRANCH   1  13
BRANCH   1  19
ATOM     19  C   UNL     1      -1.460   1.433   1.079  0.00  0.00    +0.095 C 
BRANCH  19  22
ATOM     20  C   UNL     1      -3.681   0.440   1.210  0.00  0.00    +0.299 C 
ATOM     21  O   UNL     1      -3.854   1.035   2.254  0.00  0.00    -0.265 OA
ATOM     22  N   UNL     1      -2.517   0.571   0.544  0.00  0.00    -0.309 N 
ATOM     23  H   UNL     1      -2.379   0.095  -0.290  0.00  0.00    +0.149 HD
BRANCH  20  25
ATOM     24  N   UNL     1      -5.922  -0.571   1.332  0.00  0.00    -0.278 N 
ATOM     25  C   UNL     1      -4.758  -0.439   0.665  0.00  0.00    +0.303 C 
ATOM     26  O   UNL     1      -4.586  -1.035  -0.378  0.00  0.00    -0.265 OA
ATOM     27  H   UNL     1      -6.090  -0.039   2.126  0.00  0.00    +0.155 HD
BRANCH  24  31
ATOM     28  C   UNL     1      -8.801  -3.262  -0.016  0.00  0.00    -0.048 A 
ATOM     29  C   UNL     1      -7.458  -3.552  -0.172  0.00  0.00    +0.005 A 
ATOM     30  C   UNL     1      -6.501  -2.662   0.273  0.00  0.00    +0.023 A 
ATOM     31  C   UNL     1      -6.888  -1.474   0.879  0.00  0.00    +0.034 A 
ATOM     32  C   UNL     1      -8.238  -1.187   1.039  0.00  0.00    +0.023 A 
ATOM     33  C   UNL     1      -9.190  -2.079   0.587  0.00  0.00    +0.005 A 
BRANCH  28  35
ATOM     34  C   UNL     1     -10.187  -5.218   0.617  0.00  0.00    +0.009 C 
ATOM     35  C   UNL     1      -9.843  -4.235  -0.504  0.00  0.00    +0.032 C 
ENDBRANCH  28  35
ENDBRANCH  24  31
ENDBRANCH  20  25
ENDBRANCH  19  22
ENDBRANCH   1  19
TORSDOF 7
