REMARK  Name = ZINC39676511
REMARK  10 active torsions:
REMARK  status: ('A' for Active; 'I' for Inactive)
REMARK    1  A    between atoms: C_1  and  C_2
REMARK    2  A    between atoms: C_2  and  C_3
REMARK    3  A    between atoms: C_2  and  C_4
REMARK    4  A    between atoms: C_4  and  C_6
REMARK    5  A    between atoms: C_4  and  O_34
REMARK    6  A    between atoms: C_10  and  C_19
REMARK    7  A    between atoms: N_21  and  C_22
REMARK    8  A    between atoms: C_22  and  C_23
REMARK    9  A    between atoms: C_23  and  C_24
REMARK   10  A    between atoms: O_34  and  C_35
REMARK                            x       y       z     vdW  Elec       q    Type
REMARK                         _______ _______ _______ _____ _____    ______ ____
ROOT
ATOM      1  C   UNL     1      -1.135  -1.602   0.252  0.00  0.00    +0.257 C 
ATOM      2  O   UNL     1      -1.456  -2.380  -0.621  0.00  0.00    -0.272 OA
ATOM      3  N   UNL     1      -0.661  -2.064   1.426  0.00  0.00    -0.297 N 
ATOM      4  C   UNL     1      -0.335  -1.285   2.644  0.00  0.00    +0.121 C 
ATOM      5  C   UNL     1      -0.819  -2.170   3.814  0.00  0.00    +0.100 C 
ATOM      6  C   UNL     1      -0.824  -3.600   3.249  0.00  0.00    -0.004 C 
ATOM      7  C   UNL     1      -0.355  -3.467   1.793  0.00  0.00    +0.115 C 
ATOM      8  C   UNL     1       0.139  -4.483   4.037  0.00  0.00    -0.010 C 
ATOM      9  C   UNL     1       0.073  -5.913   3.494  0.00  0.00    -0.082 C 
ATOM     10  N   UNL     1      -1.298  -6.422   3.615  0.00  0.00    +0.379 N 
ATOM     11  C   UNL     1      -2.203  -5.623   2.780  0.00  0.00    -0.082 C 
ATOM     12  C   UNL     1      -2.234  -4.181   3.293  0.00  0.00    -0.010 C 
ATOM     13  H   UNL     1      -1.326  -7.385   3.313  0.00  0.00    -0.086 HD
ATOM     14  H   UNL     1      -1.593  -6.365   4.578  0.00  0.00    -0.086 HD
ENDROOT
BRANCH   5  15
ATOM     15  C   UNL     1       0.133  -2.066   4.978  0.00  0.00    +0.218 C 
ATOM     16  O   UNL     1       1.297  -1.785   4.787  0.00  0.00    -0.275 OA
ATOM     17  N   UNL     1      -0.309  -2.286   6.232  0.00  0.00    -0.315 N 
ATOM     18  H   UNL     1      -1.240  -2.511   6.386  0.00  0.00    +0.149 HD
BRANCH  17  19
ATOM     19  C   UNL     1       0.616  -2.186   7.364  0.00  0.00    +0.109 C 
BRANCH  19  20
ATOM     20  C   UNL     1      -0.135  -2.480   8.664  0.00  0.00    +0.056 C 
BRANCH  20  21
ATOM     21  C   UNL     1       0.817  -2.376   9.828  0.00  0.00    -0.021 A 
ATOM     22  C   UNL     1       1.186  -1.153  10.546  0.00  0.00    +0.004 A 
ATOM     23  C   UNL     1       0.828   0.190  10.420  0.00  0.00    +0.030 A 
ATOM     24  C   UNL     1       1.369   1.122  11.278  0.00  0.00    +0.042 A 
ATOM     25  C   UNL     1       2.265   0.732  12.264  0.00  0.00    +0.022 A 
ATOM     26  C   UNL     1       2.628  -0.590  12.400  0.00  0.00    +0.027 A 
ATOM     27  C   UNL     1       2.094  -1.548  11.545  0.00  0.00    +0.047 A 
ATOM     28  N   UNL     1       2.255  -2.911  11.431  0.00  0.00    -0.360 N 
ATOM     29  C   UNL     1       1.482  -3.387  10.408  0.00  0.00    +0.087 A 
ATOM     30 CL   UNL     1       0.927   2.794  11.126  0.00  0.00    -0.084 Cl
ATOM     31  H   UNL     1       2.828  -3.454  11.995  0.00  0.00    +0.165 HD
ENDBRANCH  20  21
ENDBRANCH  19  20
ENDBRANCH  17  19
ENDBRANCH   5  15
BRANCH   1  32
ATOM     32  C   UNL     1      -1.268  -0.118   0.025  0.00  0.00    +0.261 C 
BRANCH  32  34
ATOM     33  C   UNL     1      -0.038   1.967  -0.594  0.00  0.00    +0.011 C 
ATOM     34  C   UNL     1       0.081   0.452  -0.418  0.00  0.00    +0.033 C 
ATOM     35  C   UNL     1       1.139   0.143   0.644  0.00  0.00    +0.011 C 
ENDBRANCH  32  34
BRANCH  32  36
ATOM     36  O   UNL     1      -2.243   0.123  -0.992  0.00  0.00    -0.479 OA
BRANCH  36  37
ATOM     37  C   UNL     1      -3.105   1.153  -0.787  0.00  0.00    +0.122 A 
ATOM     38  C   UNL     1      -4.156   1.366  -1.668  0.00  0.00    +0.045 A 
ATOM     39  C   UNL     1      -5.031   2.413  -1.458  0.00  0.00    +0.004 A 
ATOM     40  C   UNL     1      -4.861   3.251  -0.371  0.00  0.00    +0.000 A 
ATOM     41  C   UNL     1      -3.814   3.041   0.509  0.00  0.00    +0.004 A 
ATOM     42  C   UNL     1      -2.940   1.991   0.306  0.00  0.00    +0.045 A 
ENDBRANCH  36  37
ENDBRANCH  32  36
ENDBRANCH   1  32
TORSDOF 8
