REMARK  Name = ZINC66553640
REMARK  5 active torsions:
REMARK  status: ('A' for Active; 'I' for Inactive)
REMARK    1  A    between atoms: C_1  and  C_2
REMARK    2  A    between atoms: C_3  and  C_13
REMARK    3  A    between atoms: C_5  and  C_7
REMARK    4  A    between atoms: C_13  and  N_14
REMARK    5  A    between atoms: C_15  and  C_17
REMARK                            x       y       z     vdW  Elec       q    Type
REMARK                         _______ _______ _______ _____ _____    ______ ____
ROOT
ATOM      1  C   UNL     1      -0.018   1.503   0.010  0.00  0.00    +0.066 C 
ATOM      2  C   UNL     1       0.002  -0.004   0.002  0.00  0.00    +0.051 A 
ATOM      3  C   UNL     1       0.005  -0.679  -1.179  0.00  0.00    +0.030 A 
ATOM      4  S   UNL     1       0.031  -2.368  -0.593  0.00  0.00    -0.070 S 
ATOM      5  C   UNL     1       0.035  -1.993   1.155  0.00  0.00    +0.109 A 
ATOM      6  N   UNL     1       0.022  -0.667   1.134  0.00  0.00    -0.244 NA
ENDROOT
BRANCH   5   7
ATOM      7  C   UNL     1       0.053  -2.913   2.313  0.00  0.00    +0.007 A 
ATOM      8  C   UNL     1       0.076  -4.293   2.110  0.00  0.00    +0.010 A 
ATOM      9  C   UNL     1       0.092  -5.146   3.194  0.00  0.00    +0.001 A 
ATOM     10  C   UNL     1       0.086  -4.636   4.480  0.00  0.00    +0.000 A 
ATOM     11  C   UNL     1       0.063  -3.268   4.688  0.00  0.00    +0.001 A 
ATOM     12  C   UNL     1       0.053  -2.404   3.612  0.00  0.00    +0.010 A 
ENDBRANCH   5   7
BRANCH   3  13
ATOM     13  C   UNL     1      -0.010  -0.149  -2.589  0.00  0.00    +0.149 C 
BRANCH  13  14
ATOM     14  N   UNL     1       1.367   0.042  -3.054  0.00  0.00    -0.306 N 
ATOM     15  C   UNL     1       1.600   0.510  -4.296  0.00  0.00    +0.254 C 
ATOM     16  O   UNL     1       0.668   0.775  -5.031  0.00  0.00    -0.270 OA
ATOM     17  H   UNL     1       2.110  -0.170  -2.468  0.00  0.00    +0.149 HD
BRANCH  15  18
ATOM     18  C   UNL     1       2.982   0.702  -4.762  0.00  0.00    +0.114 A 
ATOM     19  C   UNL     1       3.456   1.172  -5.982  0.00  0.00    +0.157 A 
ATOM     20  N   UNL     1       4.762   1.220  -6.074  0.00  0.00    -0.149 NA
ATOM     21  N   UNL     1       5.532   0.860  -5.110  0.00  0.00    -0.110 NA
ATOM     22  S   UNL     1       4.528   0.405  -3.920  0.00  0.00    +0.041 S 
ENDBRANCH  15  18
ENDBRANCH  13  14
ENDBRANCH   3  13
TORSDOF 4
