REMARK  Name = ZINC09101078
REMARK  12 active torsions:
REMARK  status: ('A' for Active; 'I' for Inactive)
REMARK    1  A    between atoms: C_1  and  C_2
REMARK    2  A    between atoms: C_6  and  N_30
REMARK    3  A    between atoms: C_7  and  N_8
REMARK    4  A    between atoms: C_9  and  C_11
REMARK    5  A    between atoms: C_11  and  S_12
REMARK    6  A    between atoms: S_12  and  C_13
REMARK    7  A    between atoms: C_16  and  C_25
REMARK    8  A    between atoms: N_17  and  C_18
REMARK    9  A    between atoms: C_25  and  C_27
REMARK   10  A    between atoms: C_25  and  N_55
REMARK   11  A    between atoms: C_28  and  N_55
REMARK   12  A    between atoms: C_29  and  N_55
REMARK                            x       y       z     vdW  Elec       q    Type
REMARK                         _______ _______ _______ _____ _____    ______ ____
ROOT
ATOM      1  C   UNL     1       0.736  -0.533   1.445  0.00  0.00    +0.197 A 
ATOM      2  N   UNL     1      -0.178  -0.044   0.640  0.00  0.00    -0.122 NA
ATOM      3  N   UNL     1      -0.185   1.239   0.712  0.00  0.00    -0.135 NA
ATOM      4  C   UNL     1       0.718   1.645   1.560  0.00  0.00    +0.125 A 
ATOM      5  N   UNL     1       1.338   0.531   2.059  0.00  0.00    -0.275 N 
ENDROOT
BRANCH   5   6
ATOM      6  C   UNL     1       2.375   0.490   3.003  0.00  0.00    +0.050 A 
ATOM      7  C   UNL     1       2.153   0.934   4.299  0.00  0.00    +0.028 A 
ATOM      8  C   UNL     1       3.174   0.888   5.228  0.00  0.00    +0.022 A 
ATOM      9  C   UNL     1       4.420   0.409   4.865  0.00  0.00    +0.041 A 
ATOM     10  C   UNL     1       4.646  -0.029   3.572  0.00  0.00    +0.022 A 
ATOM     11  C   UNL     1       3.626   0.010   2.641  0.00  0.00    +0.028 A 
ATOM     12 CL   UNL     1       5.704   0.358   6.033  0.00  0.00    -0.084 Cl
ENDBRANCH   5   6
BRANCH   4  13
ATOM     13  C   UNL     1       1.022   3.076   1.923  0.00  0.00    -0.003 C 
ATOM     14  C   UNL     1       1.797   3.738   0.783  0.00  0.00    -0.005 C 
BRANCH  13  17
ATOM     15  C   UNL     1       0.023   5.169   2.619  0.00  0.00    -0.096 C 
ATOM     16  C   UNL     1      -1.061   3.812   0.933  0.00  0.00    -0.096 C 
ATOM     17  N   UNL     1      -0.250   3.788   2.168  0.00  0.00    +0.382 N 
ATOM     18  H   UNL     1      -0.773   3.295   2.901  0.00  0.00    -0.082 HD
ENDBRANCH  13  17
ENDBRANCH   4  13
BRANCH   1  19
ATOM     19  S   UNL     1       1.116  -2.236   1.689  0.00  0.00    -0.076 S 
BRANCH  19  20
ATOM     20  C   UNL     1      -0.076  -2.989   0.555  0.00  0.00    +0.173 C 
BRANCH  20  22
ATOM     21  N   UNL     1      -0.722  -5.264  -0.172  0.00  0.00    -0.283 N 
ATOM     22  C   UNL     1       0.069  -4.489   0.597  0.00  0.00    +0.228 C 
ATOM     23  O   UNL     1       0.896  -4.998   1.322  0.00  0.00    -0.275 OA
ATOM     24  H   UNL     1      -1.430  -4.862  -0.699  0.00  0.00    +0.155 HD
BRANCH  21  31
ATOM     25  C   UNL     1       1.896  -6.226  -0.733  0.00  0.00    +0.046 C 
ATOM     26  C   UNL     1       0.741  -7.160  -0.479  0.00  0.00    -0.027 A 
ATOM     27  C   UNL     1       0.937  -8.527  -0.515  0.00  0.00    +0.005 A 
ATOM     28  C   UNL     1      -0.123  -9.385  -0.284  0.00  0.00    +0.003 A 
ATOM     29  C   UNL     1      -1.381  -8.878  -0.015  0.00  0.00    +0.034 A 
ATOM     30  C   UNL     1      -1.582  -7.512   0.028  0.00  0.00    +0.148 A 
ATOM     31  C   UNL     1      -0.521  -6.648  -0.210  0.00  0.00    +0.067 A 
BRANCH  30  32
ATOM     32  N   UNL     1      -2.927  -6.970   0.322  0.00  0.00    +0.058 N 
ATOM     33  O   UNL     1      -3.879  -7.724   0.423  0.00  0.00    -0.126 OA
ATOM     34  O   UNL     1      -3.083  -5.770   0.462  0.00  0.00    -0.126 OA
ENDBRANCH  30  32
ENDBRANCH  21  31
ENDBRANCH  20  22
ENDBRANCH  19  20
ENDBRANCH   1  19
TORSDOF 8
