REMARK  Name = ZINC40986393
REMARK  9 active torsions:
REMARK  status: ('A' for Active; 'I' for Inactive)
REMARK    1  A    between atoms: C_1  and  C_2
REMARK    2  A    between atoms: C_5  and  C_8
REMARK    3  A    between atoms: C_8  and  C_10
REMARK    4  A    between atoms: C_8  and  N_32
REMARK    5  A    between atoms: C_10  and  N_11
REMARK    6  A    between atoms: C_12  and  C_14
REMARK    7  A    between atoms: C_17  and  S_21
REMARK    8  A    between atoms: S_21  and  C_24
REMARK    9  A    between atoms: C_24  and  C_25
REMARK                            x       y       z     vdW  Elec       q    Type
REMARK                         _______ _______ _______ _____ _____    ______ ____
ROOT
ATOM      1  N   UNL     1       1.463  -6.250   0.252  0.00  0.00    -0.312 N 
ATOM      2  C   UNL     1       2.619  -6.918   0.429  0.00  0.00    +0.248 C 
ATOM      3  O   UNL     1       3.678  -6.321   0.399  0.00  0.00    -0.270 OA
ATOM      4  H   UNL     1       0.618  -6.726   0.276  0.00  0.00    +0.149 HD
ENDROOT
BRANCH   2   5
ATOM      5  C   UNL     1       2.601  -8.378   0.659  0.00  0.00    +0.092 A 
ATOM      6  C   UNL     1       1.395  -9.086   0.691  0.00  0.00    +0.130 A 
ATOM      7  N   UNL     1       1.425 -10.391   0.899  0.00  0.00    -0.219 NA
ATOM      8  C   UNL     1       2.568 -11.025   1.075  0.00  0.00    +0.272 A 
ATOM      9  N   UNL     1       3.728 -10.398   1.052  0.00  0.00    -0.199 NA
ATOM     10  C   UNL     1       3.792  -9.093   0.845  0.00  0.00    +0.146 A 
ATOM     11 CL   UNL     1       5.325  -8.280   0.810  0.00  0.00    -0.061 Cl
BRANCH   8  12
ATOM     12  S   UNL     1       2.544 -12.765   1.349  0.00  0.00    +0.036 S 
ATOM     13  O   UNL     1       3.732 -13.033   2.081  0.00  0.00    -0.166 OA
ATOM     14  O   UNL     1       1.268 -13.025   1.918  0.00  0.00    -0.166 OA
BRANCH  12  15
ATOM     15  C   UNL     1       2.651 -13.499  -0.306  0.00  0.00    +0.210 C 
BRANCH  15  16
ATOM     16  C   UNL     1       2.639 -15.002  -0.191  0.00  0.00    -0.026 A 
ATOM     17  C   UNL     1       3.828 -15.694  -0.054  0.00  0.00    +0.008 A 
ATOM     18  C   UNL     1       3.818 -17.072   0.052  0.00  0.00    +0.038 A 
ATOM     19  C   UNL     1       2.616 -17.759   0.021  0.00  0.00    +0.123 A 
ATOM     20  C   UNL     1       1.426 -17.065  -0.117  0.00  0.00    +0.038 A 
ATOM     21  C   UNL     1       1.438 -15.687  -0.218  0.00  0.00    +0.008 A 
ATOM     22  F   UNL     1       2.605 -19.106   0.124  0.00  0.00    -0.205 F 
ENDBRANCH  15  16
ENDBRANCH  12  15
ENDBRANCH   8  12
ENDBRANCH   2   5
BRANCH   1  23
ATOM     23  C   UNL     1       1.481  -4.803   0.025  0.00  0.00    +0.094 C 
BRANCH  23  24
ATOM     24  C   UNL     1       0.061  -4.315  -0.273  0.00  0.00    -0.020 C 
BRANCH  24  29
ATOM     25  C   UNL     1      -1.752  -6.590  -5.266  0.00  0.00    +0.044 C 
ATOM     26  C   UNL     1      -1.279  -5.997  -3.964  0.00  0.00    -0.050 A 
ATOM     27  C   UNL     1      -1.683  -6.552  -2.765  0.00  0.00    +0.003 A 
ATOM     28  C   UNL     1      -1.249  -6.008  -1.570  0.00  0.00    +0.002 A 
ATOM     29  C   UNL     1      -0.411  -4.909  -1.575  0.00  0.00    -0.059 A 
ATOM     30  C   UNL     1      -0.006  -4.354  -2.775  0.00  0.00    +0.002 A 
ATOM     31  C   UNL     1      -0.436  -4.901  -3.970  0.00  0.00    +0.003 A 
ENDBRANCH  24  29
BRANCH  24  32
ATOM     32  N   UNL     1       0.058  -2.850  -0.373  0.00  0.00    +0.385 N 
ATOM     33  C   UNL     1      -1.317  -2.359  -0.649  0.00  0.00    -0.078 C 
ATOM     34  C   UNL     1      -1.269  -0.885  -0.172  0.00  0.00    -0.020 C 
ATOM     35  C   UNL     1      -0.373  -0.957   1.086  0.00  0.00    -0.020 C 
ATOM     36  C   UNL     1       0.449  -2.249   0.920  0.00  0.00    -0.078 C 
ATOM     37  H   UNL     1       0.688  -2.549  -1.101  0.00  0.00    -0.081 HD
ENDBRANCH  24  32
ENDBRANCH  23  24
ENDBRANCH   1  23
TORSDOF 8
