REMARK  Name = ZINC09135728
REMARK  9 active torsions:
REMARK  status: ('A' for Active; 'I' for Inactive)
REMARK    1  A    between atoms: C_1  and  C_2
REMARK    2  A    between atoms: C_5  and  N_11
REMARK    3  A    between atoms: C_6  and  N_8
REMARK    4  A    between atoms: C_12  and  C_14
REMARK    5  A    between atoms: N_16  and  C_17
REMARK    6  A    between atoms: C_17  and  C_18
REMARK    7  A    between atoms: C_18  and  C_20
REMARK    8  A    between atoms: C_18  and  N_65
REMARK    9  A    between atoms: N_29  and  C_30
REMARK                            x       y       z     vdW  Elec       q    Type
REMARK                         _______ _______ _______ _____ _____    ______ ____
ROOT
ATOM      1  C   UNL     1       4.381  -3.167   4.062  0.00  0.00    +0.094 C 
ENDROOT
BRANCH   1   4
ATOM      2  C   UNL     1       6.122  -4.322   5.316  0.00  0.00    +0.299 C 
ATOM      3  O   UNL     1       6.760  -4.417   4.287  0.00  0.00    -0.265 OA
ATOM      4  N   UNL     1       4.920  -3.714   5.310  0.00  0.00    -0.309 N 
ATOM      5  H   UNL     1       4.410  -3.639   6.132  0.00  0.00    +0.149 HD
BRANCH   2   7
ATOM      6  N   UNL     1       7.874  -5.488   6.594  0.00  0.00    -0.276 N 
ATOM      7  C   UNL     1       6.671  -4.880   6.588  0.00  0.00    +0.303 C 
ATOM      8  O   UNL     1       6.034  -4.785   7.617  0.00  0.00    -0.265 OA
ATOM      9  H   UNL     1       8.415  -5.501   5.789  0.00  0.00    +0.155 HD
BRANCH   6  14
ATOM     10  C   UNL     1       9.773  -7.971  11.326  0.00  0.00    +0.044 C 
ATOM     11  C   UNL     1       9.268  -7.311  10.069  0.00  0.00    -0.048 A 
ATOM     12  C   UNL     1       8.447  -6.202  10.153  0.00  0.00    +0.005 A 
ATOM     13  C   UNL     1       7.983  -5.594   9.003  0.00  0.00    +0.026 A 
ATOM     14  C   UNL     1       8.342  -6.099   7.760  0.00  0.00    +0.064 A 
ATOM     15  C   UNL     1       9.163  -7.217   7.678  0.00  0.00    +0.148 A 
ATOM     16  C   UNL     1       9.628  -7.816   8.833  0.00  0.00    +0.038 A 
BRANCH  15  17
ATOM     17  N   UNL     1       9.543  -7.762   6.356  0.00  0.00    +0.058 N 
ATOM     18  O   UNL     1      10.197  -8.787   6.285  0.00  0.00    -0.126 OA
ATOM     19  O   UNL     1       9.203  -7.185   5.338  0.00  0.00    -0.126 OA
ENDBRANCH  15  17
ENDBRANCH   6  14
ENDBRANCH   2   7
ENDBRANCH   1   4
BRANCH   1  20
ATOM     20  C   UNL     1       2.995  -2.573   4.322  0.00  0.00    -0.020 C 
BRANCH  20  21
ATOM     21  C   UNL     1       2.560  -1.771   3.123  0.00  0.00    -0.059 A 
ATOM     22  C   UNL     1       2.170  -2.415   1.963  0.00  0.00    +0.004 A 
ATOM     23  C   UNL     1       1.775  -1.679   0.866  0.00  0.00    +0.023 A 
ATOM     24  C   UNL     1       1.766  -0.284   0.918  0.00  0.00    +0.033 A 
ATOM     25  C   UNL     1       2.152   0.355   2.082  0.00  0.00    -0.026 A 
ATOM     26  C   UNL     1       2.551  -0.392   3.180  0.00  0.00    +0.007 A 
ATOM     27  C   UNL     1       2.155   1.858   2.207  0.00  0.00    +0.038 C 
ATOM     28  C   UNL     1       2.064   2.490   0.815  0.00  0.00    +0.024 C 
ATOM     29  C   UNL     1       0.943   1.779   0.047  0.00  0.00    +0.105 C 
ATOM     30  N   UNL     1       1.361   0.403  -0.226  0.00  0.00    -0.333 N 
ATOM     31  C   UNL     1       0.310  -0.336  -0.940  0.00  0.00    +0.129 C 
ENDBRANCH  20  21
BRANCH  20  36
ATOM     32  C   UNL     1       2.189  -4.216   5.928  0.00  0.00    -0.078 C 
ATOM     33  C   UNL     1       0.831  -4.918   6.180  0.00  0.00    -0.020 C 
ATOM     34  C   UNL     1      -0.181  -3.965   5.505  0.00  0.00    -0.020 C 
ATOM     35  C   UNL     1       0.644  -3.161   4.482  0.00  0.00    -0.078 C 
ATOM     36  N   UNL     1       2.013  -3.670   4.573  0.00  0.00    +0.385 N 
ATOM     37  H   UNL     1       2.153  -4.413   3.878  0.00  0.00    -0.081 HD
ENDBRANCH  20  36
ENDBRANCH   1  20
TORSDOF 7
