REMARK  Name = ZINC36068520
REMARK  9 active torsions:
REMARK  status: ('A' for Active; 'I' for Inactive)
REMARK    1  A    between atoms: C_3  and  C_9
REMARK    2  A    between atoms: C_9  and  N_10
REMARK    3  A    between atoms: N_10  and  C_11
REMARK    4  A    between atoms: N_10  and  C_21
REMARK    5  A    between atoms: C_11  and  C_12
REMARK    6  A    between atoms: C_21  and  C_22
REMARK    7  A    between atoms: C_24  and  C_27
REMARK    8  A    between atoms: N_29  and  C_30
REMARK    9  A    between atoms: C_30  and  C_31
REMARK                            x       y       z     vdW  Elec       q    Type
REMARK                         _______ _______ _______ _____ _____    ______ ____
ROOT
ATOM      1  N   UNL     1       4.207   2.217   1.341  0.00  0.00    +0.391 N 
ATOM      2  H   UNL     1       3.427   2.462   1.933  0.00  0.00    -0.080 HD
ENDROOT
BRANCH   1   3
ATOM      3  C   UNL     1       3.773   2.209  -0.063  0.00  0.00    -0.040 C 
BRANCH   3   6
ATOM      4  C   UNL     1       0.212   0.971  -0.265  0.00  0.00    +0.002 A 
ATOM      5  C   UNL     1       1.304   1.808  -0.124  0.00  0.00    +0.003 A 
ATOM      6  C   UNL     1       2.584   1.296  -0.215  0.00  0.00    -0.044 A 
ATOM      7  C   UNL     1       2.774  -0.054  -0.448  0.00  0.00    +0.061 A 
ATOM      8  C   UNL     1       1.681  -0.892  -0.589  0.00  0.00    +0.059 A 
ATOM      9  C   UNL     1       0.400  -0.378  -0.497  0.00  0.00    +0.021 A 
ATOM     10 CL   UNL     1       1.918  -2.587  -0.881  0.00  0.00    -0.082 Cl
ATOM     11 CL   UNL     1       4.382  -0.698  -0.564  0.00  0.00    -0.082 Cl
ENDBRANCH   3   6
ENDBRANCH   1   3
BRANCH   1  12
ATOM     12  C   UNL     1       4.702   0.884   1.709  0.00  0.00    -0.042 C 
BRANCH  12  13
ATOM     13  C   UNL     1       5.045   0.863   3.176  0.00  0.00    -0.060 A 
ATOM     14  C   UNL     1       6.348   1.082   3.583  0.00  0.00    +0.005 A 
ATOM     15  C   UNL     1       6.668   1.064   4.928  0.00  0.00    +0.050 A 
ATOM     16  C   UNL     1       5.682   0.825   5.871  0.00  0.00    +0.166 A 
ATOM     17  C   UNL     1       4.369   0.604   5.462  0.00  0.00    +0.166 A 
ATOM     18  C   UNL     1       4.055   0.629   4.112  0.00  0.00    +0.051 A 
ATOM     19  O   UNL     1       3.596   0.396   6.567  0.00  0.00    -0.453 OA
ATOM     20  C   UNL     1       4.519   0.086   7.628  0.00  0.00    +0.466 C 
ATOM     21  O   UNL     1       5.731   0.755   7.234  0.00  0.00    -0.453 OA
ENDBRANCH  12  13
ENDBRANCH   1  12
BRANCH   1  22
ATOM     22  C   UNL     1       5.281   3.204   1.516  0.00  0.00    +0.020 C 
BRANCH  22  23
ATOM     23  C   UNL     1       4.741   4.587   1.257  0.00  0.00    +0.179 A 
ATOM     24  N   UNL     1       4.223   5.372   2.154  0.00  0.00    -0.210 NA
ATOM     25  C   UNL     1       3.850   6.531   1.547  0.00  0.00    +0.163 A 
ATOM     26  C   UNL     1       4.166   6.414   0.229  0.00  0.00    +0.230 A 
ATOM     27  O   UNL     1       4.723   5.203   0.067  0.00  0.00    -0.449 OA
BRANCH  25  28
ATOM     28  C   UNL     1       3.220   7.695   2.196  0.00  0.00    +0.266 C 
ATOM     29  O   UNL     1       2.932   8.677   1.538  0.00  0.00    -0.268 OA
ATOM     30  N   UNL     1       2.962   7.672   3.519  0.00  0.00    -0.308 N 
ATOM     31  H   UNL     1       3.191   6.889   4.044  0.00  0.00    +0.149 HD
BRANCH  30  32
ATOM     32  C   UNL     1       2.336   8.829   4.164  0.00  0.00    +0.136 C 
BRANCH  32  33
ATOM     33  C   UNL     1       2.156   8.545   5.657  0.00  0.00    +0.135 C 
ATOM     34  C   UNL     1       1.389   9.708   6.322  0.00  0.00    +0.035 C 
ATOM     35  C   UNL     1       2.118   9.846   7.686  0.00  0.00    +0.031 C 
ATOM     36  C   UNL     1       3.569   9.484   7.282  0.00  0.00    +0.160 C 
ATOM     37  O   UNL     1       3.437   8.450   6.291  0.00  0.00    -0.375 OA
ENDBRANCH  32  33
ENDBRANCH  30  32
ENDBRANCH  25  28
ENDBRANCH  22  23
ENDBRANCH   1  22
TORSDOF 9
