REMARK  Name = ZINC63514264
REMARK  11 active torsions:
REMARK  status: ('A' for Active; 'I' for Inactive)
REMARK    1  A    between atoms: C_1  and  C_2
REMARK    2  A    between atoms: C_4  and  C_14
REMARK    3  A    between atoms: C_7  and  O_12
REMARK    4  A    between atoms: O_12  and  C_13
REMARK    5  A    between atoms: C_14  and  C_15
REMARK    6  A    between atoms: C_15  and  N_16
REMARK    7  A    between atoms: C_17  and  C_19
REMARK    8  A    between atoms: C_21  and  S_27
REMARK    9  A    between atoms: S_27  and  N_30
REMARK   10  A    between atoms: N_30  and  C_31
REMARK   11  A    between atoms: N_30  and  C_32
REMARK                            x       y       z     vdW  Elec       q    Type
REMARK                         _______ _______ _______ _____ _____    ______ ____
ROOT
ATOM      1  N   UNL     1      -0.499   0.260  -4.305  0.00  0.00    -0.311 N 
ATOM      2  C   UNL     1       0.491  -0.387  -4.951  0.00  0.00    +0.246 C 
ATOM      3  O   UNL     1       1.352  -0.966  -4.319  0.00  0.00    -0.270 OA
ATOM      4  H   UNL     1      -1.187   0.722  -4.809  0.00  0.00    +0.149 HD
ENDROOT
BRANCH   2   5
ATOM      5  C   UNL     1       0.529  -0.392  -6.428  0.00  0.00    +0.057 A 
ATOM      6  C   UNL     1      -0.457   0.277  -7.157  0.00  0.00    +0.044 A 
ATOM      7  C   UNL     1      -0.416   0.269  -8.534  0.00  0.00    +0.124 A 
ATOM      8  C   UNL     1       0.599  -0.402  -9.197  0.00  0.00    +0.069 A 
ATOM      9  C   UNL     1       1.579  -1.068  -8.482  0.00  0.00    +0.042 A 
ATOM     10  C   UNL     1       1.554  -1.062  -7.101  0.00  0.00    +0.055 A 
ATOM     11 CL   UNL     1       2.787  -1.891  -6.204  0.00  0.00    -0.083 Cl
ATOM     12 CL   UNL     1       0.642  -0.408 -10.933  0.00  0.00    -0.081 Cl
BRANCH   7  13
ATOM     13  S   UNL     1      -1.659   1.113  -9.455  0.00  0.00    +0.062 S 
ATOM     14  O   UNL     1      -2.541   1.697  -8.507  0.00  0.00    -0.153 OA
ATOM     15  O   UNL     1      -0.982   1.882 -10.440  0.00  0.00    -0.153 OA
BRANCH  13  16
ATOM     16  N   UNL     1      -2.531  -0.036 -10.269  0.00  0.00    -0.183 NA
ATOM     17  C   UNL     1      -3.609  -0.755  -9.587  0.00  0.00    +0.131 C 
ATOM     18  C   UNL     1      -2.224  -0.333 -11.670  0.00  0.00    +0.131 C 
ENDBRANCH  13  16
ENDBRANCH   7  13
ENDBRANCH   2   5
BRANCH   1  19
ATOM     19  C   UNL     1      -0.537   0.265  -2.840  0.00  0.00    +0.109 C 
BRANCH  19  20
ATOM     20  C   UNL     1      -1.752   1.063  -2.364  0.00  0.00    +0.052 C 
BRANCH  20  23
ATOM     21  C   UNL     1      -2.823   3.249  -0.223  0.00  0.00    +0.035 C 
ATOM     22  C   UNL     1      -2.821   1.739   0.023  0.00  0.00    +0.103 C 
ATOM     23  C   UNL     1      -1.791   1.069  -0.857  0.00  0.00    -0.037 C 
ATOM     24  C   UNL     1      -0.912   0.474  -0.020  0.00  0.00    +0.003 A 
ATOM     25  C   UNL     1       0.298  -0.324  -0.249  0.00  0.00    +0.055 A 
ATOM     26  C   UNL     1       0.993  -0.800   0.812  0.00  0.00    +0.121 A 
ATOM     27  C   UNL     1       0.599  -0.557   2.139  0.00  0.00    +0.047 A 
ATOM     28  C   UNL     1      -0.498   0.166   2.450  0.00  0.00    +0.029 A 
ATOM     29  C   UNL     1      -1.327   0.729   1.379  0.00  0.00    +0.043 A 
ATOM     30  N   UNL     1      -2.420   1.453   1.405  0.00  0.00    -0.378 N 
ATOM     31  H   UNL     1      -2.885   1.749   2.203  0.00  0.00    +0.160 HD
BRANCH  26  32
ATOM     32  O   UNL     1       2.112  -1.539   0.585  0.00  0.00    -0.495 OA
ATOM     33  C   UNL     1       2.815  -2.021   1.732  0.00  0.00    +0.277 C 
ENDBRANCH  26  32
ENDBRANCH  20  23
ENDBRANCH  19  20
ENDBRANCH   1  19
TORSDOF 7
