REMARK  Name = ZINC06321053
REMARK  14 active torsions:
REMARK  status: ('A' for Active; 'I' for Inactive)
REMARK    1  A    between atoms: C_1  and  C_2
REMARK    2  A    between atoms: C_6  and  C_15
REMARK    3  A    between atoms: C_13  and  C_14
REMARK    4  A    between atoms: C_15  and  C_17
REMARK    5  A    between atoms: C_15  and  N_73
REMARK    6  A    between atoms: N_21  and  C_22
REMARK    7  A    between atoms: C_22  and  C_23
REMARK    8  A    between atoms: C_23  and  O_24
REMARK    9  A    between atoms: O_24  and  C_25
REMARK   10  A    between atoms: C_26  and  C_27
REMARK   11  A    between atoms: C_26  and  N_73
REMARK   12  A    between atoms: C_27  and  C_28
REMARK   13  A    between atoms: C_34  and  C_35
REMARK   14  A    between atoms: C_34  and  N_73
REMARK                            x       y       z     vdW  Elec       q    Type
REMARK                         _______ _______ _______ _____ _____    ______ ____
ROOT
ATOM      1  C   UNL     1       5.378  -1.544  -1.137  0.00  0.00    +0.039 C 
ENDROOT
BRANCH   1   7
ATOM      2  C   UNL     1      10.377   3.975  -1.548  0.00  0.00    +0.044 C 
ATOM      3  C   UNL     1       9.338   3.196  -0.782  0.00  0.00    -0.047 A 
ATOM      4  C   UNL     1       8.704   2.144  -1.379  0.00  0.00    +0.013 A 
ATOM      5  C   UNL     1       7.740   1.422  -0.668  0.00  0.00    -0.001 A 
ATOM      6  C   UNL     1       7.044   0.286  -1.276  0.00  0.00    +0.017 A 
ATOM      7  C   UNL     1       6.116  -0.374  -0.540  0.00  0.00    +0.011 A 
ATOM      8  C   UNL     1       5.842   0.028   0.785  0.00  0.00    +0.251 A 
ATOM      9  O   UNL     1       5.007  -0.582   1.431  0.00  0.00    -0.268 OA
ATOM     10  N   UNL     1       6.479   1.067   1.354  0.00  0.00    -0.322 N 
ATOM     11  H   UNL     1       6.267   1.316   2.267  0.00  0.00    +0.169 HD
ATOM     12  C   UNL     1       7.430   1.782   0.657  0.00  0.00    +0.049 A 
ATOM     13  C   UNL     1       8.089   2.857   1.244  0.00  0.00    +0.030 A 
ATOM     14  C   UNL     1       9.035   3.555   0.524  0.00  0.00    -0.046 A 
ATOM     15  C   UNL     1       9.748   4.719   1.163  0.00  0.00    +0.044 C 
ENDBRANCH   1   7
BRANCH   1  16
ATOM     16  C   UNL     1       5.762  -2.805  -0.406  0.00  0.00    +0.143 A 
ATOM     17  N   UNL     1       5.209  -3.277   0.685  0.00  0.00    -0.115 NA
ATOM     18  N   UNL     1       5.815  -4.370   0.997  0.00  0.00    -0.023 NA
ATOM     19  N   UNL     1       6.739  -4.609   0.133  0.00  0.00    -0.044 NA
ATOM     20  N   UNL     1       6.734  -3.670  -0.751  0.00  0.00    -0.228 N 
BRANCH  20  21
ATOM     21  C   UNL     1       7.623  -3.562  -1.910  0.00  0.00    +0.175 C 
BRANCH  21  22
ATOM     22  C   UNL     1       8.933  -2.892  -1.488  0.00  0.00    +0.183 C 
BRANCH  22  23
ATOM     23  O   UNL     1       9.800  -2.786  -2.619  0.00  0.00    -0.381 OA
ATOM     24  C   UNL     1      11.057  -2.171  -2.332  0.00  0.00    +0.194 C 
ENDBRANCH  22  23
ENDBRANCH  21  22
ENDBRANCH  20  21
ENDBRANCH   1  16
BRANCH   1  25
ATOM     25  N   UNL     1       3.924  -1.325  -0.983  0.00  0.00    +0.392 N 
ATOM     26  H   UNL     1       3.700  -1.264   0.018  0.00  0.00    -0.080 HD
BRANCH  25  27
ATOM     27  C   UNL     1       3.532  -0.061  -1.640  0.00  0.00    -0.072 C 
BRANCH  27  28
ATOM     28  C   UNL     1       2.118   0.311  -1.188  0.00  0.00    +0.016 C 
BRANCH  28  29
ATOM     29  C   UNL     1       1.689   1.581  -1.875  0.00  0.00    -0.049 A 
ATOM     30  C   UNL     1       1.944   2.806  -1.286  0.00  0.00    +0.003 A 
ATOM     31  C   UNL     1       1.554   3.971  -1.918  0.00  0.00    +0.000 A 
ATOM     32  C   UNL     1       0.900   3.913  -3.135  0.00  0.00    +0.000 A 
ATOM     33  C   UNL     1       0.640   2.688  -3.721  0.00  0.00    +0.000 A 
ATOM     34  C   UNL     1       1.035   1.522  -3.091  0.00  0.00    +0.003 A 
ENDBRANCH  28  29
ENDBRANCH  27  28
ENDBRANCH  25  27
BRANCH  25  35
ATOM     35  C   UNL     1       3.178  -2.455  -1.574  0.00  0.00    -0.042 C 
BRANCH  35  36
ATOM     36  C   UNL     1       3.481  -2.577  -3.045  0.00  0.00    -0.064 A 
ATOM     37  C   UNL     1       4.532  -3.368  -3.471  0.00  0.00    +0.002 A 
ATOM     38  C   UNL     1       4.811  -3.479  -4.820  0.00  0.00    +0.000 A 
ATOM     39  C   UNL     1       4.038  -2.800  -5.744  0.00  0.00    +0.000 A 
ATOM     40  C   UNL     1       2.987  -2.010  -5.318  0.00  0.00    +0.000 A 
ATOM     41  C   UNL     1       2.708  -1.898  -3.969  0.00  0.00    +0.002 A 
ENDBRANCH  35  36
ENDBRANCH  25  35
ENDBRANCH   1  25
TORSDOF 11
