REMARK  Name = ZINC14542183
REMARK  9 active torsions:
REMARK  status: ('A' for Active; 'I' for Inactive)
REMARK    1  A    between atoms: C_1  and  C_2
REMARK    2  A    between atoms: C_2  and  N_3
REMARK    3  A    between atoms: N_6  and  C_29
REMARK    4  A    between atoms: C_14  and  C_16
REMARK    5  A    between atoms: C_14  and  C_17
REMARK    6  A    between atoms: C_14  and  N_67
REMARK    7  A    between atoms: C_17  and  C_18
REMARK    8  A    between atoms: C_18  and  C_19
REMARK    9  A    between atoms: C_29  and  C_30
REMARK                            x       y       z     vdW  Elec       q    Type
REMARK                         _______ _______ _______ _____ _____    ______ ____
ROOT
ATOM      1  N   UNL     1      -1.696   1.237  -1.499  0.00  0.00    -0.271 N 
ATOM      2  C   UNL     1      -1.551   0.595  -2.674  0.00  0.00    +0.312 C 
ATOM      3  O   UNL     1      -2.413  -0.099  -3.176  0.00  0.00    -0.252 OA
ATOM      4  N   UNL     1      -0.350   0.807  -3.226  0.00  0.00    -0.218 N 
ATOM      5  C   UNL     1       0.413   1.615  -2.462  0.00  0.00    +0.247 C 
ATOM      6  O   UNL     1       1.543   1.991  -2.691  0.00  0.00    -0.273 OA
ATOM      7  C   UNL     1      -0.438   1.954  -1.260  0.00  0.00    +0.112 C 
ATOM      8  C   UNL     1       0.226   1.457   0.021  0.00  0.00    +0.017 C 
ATOM      9  C   UNL     1      -0.643   1.838   1.223  0.00  0.00    -0.076 C 
ATOM     10  C   UNL     1      -1.524   3.773   0.055  0.00  0.00    -0.076 C 
ATOM     11  C   UNL     1      -0.683   3.457  -1.185  0.00  0.00    +0.017 C 
ATOM     12  N   UNL     1      -0.796   3.308   1.256  0.00  0.00    +0.382 N 
ATOM     13  H   UNL     1       0.136   3.739   1.268  0.00  0.00    -0.081 HD
ENDROOT
BRANCH   1  15
ATOM     14  C   UNL     1      -4.027   1.957  -1.323  0.00  0.00    +0.024 C 
ATOM     15  C   UNL     1      -2.877   1.223  -0.631  0.00  0.00    +0.107 C 
ENDBRANCH   1  15
BRANCH  12  16
ATOM     16  C   UNL     1      -1.526   3.712   2.476  0.00  0.00    -0.071 C 
ATOM     17  C   UNL     1      -1.614   5.239   2.517  0.00  0.00    -0.013 C 
BRANCH  16  18
ATOM     18  C   UNL     1      -0.759   3.212   3.701  0.00  0.00    -0.011 C 
BRANCH  18  19
ATOM     19  C   UNL     1      -1.528   3.583   4.971  0.00  0.00    +0.036 C 
BRANCH  19  20
ATOM     20  C   UNL     1      -0.750   3.131   6.180  0.00  0.00    -0.022 A 
ATOM     21  C   UNL     1      -0.910   1.977   6.847  0.00  0.00    +0.087 A 
ATOM     22  N   UNL     1      -0.026   1.915   7.889  0.00  0.00    -0.360 N 
ATOM     23  H   UNL     1       0.048   1.176   8.514  0.00  0.00    +0.165 HD
ATOM     24  C   UNL     1       0.744   3.056   7.919  0.00  0.00    +0.047 A 
ATOM     25  C   UNL     1       0.328   3.866   6.846  0.00  0.00    +0.003 A 
ATOM     26  C   UNL     1       0.944   5.098   6.624  0.00  0.00    +0.010 A 
ATOM     27  C   UNL     1       1.951   5.512   7.449  0.00  0.00    +0.001 A 
ATOM     28  C   UNL     1       2.368   4.716   8.507  0.00  0.00    +0.002 A 
ATOM     29  C   UNL     1       1.769   3.499   8.749  0.00  0.00    +0.026 A 
ENDBRANCH  19  20
ENDBRANCH  18  19
ENDBRANCH  16  18
ENDBRANCH  12  16
BRANCH   4  30
ATOM     30  C   UNL     1       0.081   0.233  -4.503  0.00  0.00    +0.173 C 
BRANCH  30  31
ATOM     31  C   UNL     1       0.745  -1.097  -4.258  0.00  0.00    +0.059 A 
ATOM     32  C   UNL     1       0.004  -2.260  -4.361  0.00  0.00    +0.025 A 
ATOM     33  C   UNL     1       0.624  -3.478  -4.133  0.00  0.00    +0.003 A 
ATOM     34  C   UNL     1       1.972  -3.483  -3.809  0.00  0.00    +0.020 A 
ATOM     35  C   UNL     1       2.648  -2.280  -3.725  0.00  0.00    +0.111 A 
ATOM     36  N   UNL     1       2.027  -1.140  -3.953  0.00  0.00    -0.258 NA
ENDBRANCH  30  31
ENDBRANCH   4  30
TORSDOF 7
