REMARK  Name = ZINC33033065
REMARK  8 active torsions:
REMARK  status: ('A' for Active; 'I' for Inactive)
REMARK    1  A    between atoms: C_1  and  C_2
REMARK    2  A    between atoms: C_9  and  C_11
REMARK    3  A    between atoms: C_14  and  N_31
REMARK    4  A    between atoms: C_15  and  N_17
REMARK    5  A    between atoms: N_17  and  S_18
REMARK    6  A    between atoms: S_18  and  C_21
REMARK    7  A    between atoms: C_24  and  N_27
REMARK    8  A    between atoms: C_28  and  C_30
REMARK                            x       y       z     vdW  Elec       q    Type
REMARK                         _______ _______ _______ _____ _____    ______ ____
ROOT
ATOM      1  C   UNL     1       2.370   7.459   1.817  0.00  0.00    +0.039 A 
ATOM      2  C   UNL     1       2.150   7.133   3.158  0.00  0.00    +0.015 A 
ATOM      3  C   UNL     1       0.870   7.133   3.666  0.00  0.00    +0.026 A 
ATOM      4  C   UNL     1      -0.206   7.457   2.849  0.00  0.00    +0.052 A 
ATOM      5  C   UNL     1       0.007   7.782   1.506  0.00  0.00    +0.070 A 
ATOM      6  C   UNL     1       1.289   7.779   0.990  0.00  0.00    +0.039 A 
ENDROOT
BRANCH   1  14
ATOM      7  C   UNL     1       8.071   9.567   1.122  0.00  0.00    +0.009 C 
ATOM      8  C   UNL     1       6.613   9.488   1.578  0.00  0.00    +0.003 C 
ATOM      9  C   UNL     1       6.511   9.921   3.042  0.00  0.00    +0.006 C 
ATOM     10  C   UNL     1       5.048   9.873   3.490  0.00  0.00    +0.019 C 
ATOM     11  C   UNL     1       4.528   8.442   3.371  0.00  0.00    +0.108 C 
ATOM     12  N   UNL     1       4.756   7.962   2.001  0.00  0.00    -0.297 N 
ATOM     13  C   UNL     1       6.111   8.047   1.439  0.00  0.00    +0.111 C 
ATOM     14  C   UNL     1       3.741   7.458   1.272  0.00  0.00    +0.247 C 
ATOM     15  O   UNL     1       3.955   7.003   0.165  0.00  0.00    -0.270 OA
ENDBRANCH   1  14
BRANCH   4  16
ATOM     16  N   UNL     1      -1.499   7.455   3.368  0.00  0.00    -0.332 N 
ATOM     17  C   UNL     1      -1.528   6.856   4.709  0.00  0.00    +0.086 C 
ATOM     18  C   UNL     1      -2.973   6.801   5.210  0.00  0.00    -0.063 C 
ATOM     19  N   UNL     1      -3.533   8.159   5.231  0.00  0.00    +0.381 N 
ATOM     20  C   UNL     1      -3.505   8.759   3.890  0.00  0.00    -0.063 C 
ATOM     21  C   UNL     1      -2.059   8.814   3.389  0.00  0.00    +0.086 C 
ATOM     22  H   UNL     1      -4.576   8.120   5.579  0.00  0.00    -0.086 HD
ATOM     23  H   UNL     1      -2.943   8.789   5.913  0.00  0.00    -0.086 HD
ENDBRANCH   4  16
BRANCH   5  24
ATOM     24  N   UNL     1      -1.079   8.107   0.683  0.00  0.00    -0.214 N 
ATOM     25  H   UNL     1      -1.480   9.131   0.680  0.00  0.00    +0.174 HD
BRANCH  24  26
ATOM     26  S   UNL     1      -1.759   6.949  -0.285  0.00  0.00    +0.072 S 
ATOM     27  O   UNL     1      -0.689   6.313  -0.971  0.00  0.00    -0.150 OA
ATOM     28  O   UNL     1      -2.838   7.572  -0.968  0.00  0.00    -0.150 OA
BRANCH  26  29
ATOM     29  C   UNL     1      -2.470   5.734   0.776  0.00  0.00    +0.109 A 
ATOM     30  C   UNL     1      -3.782   5.865   1.192  0.00  0.00    +0.030 A 
ATOM     31  C   UNL     1      -4.342   4.915   2.024  0.00  0.00    +0.025 A 
ATOM     32  C   UNL     1      -3.585   3.827   2.441  0.00  0.00    +0.033 A 
ATOM     33  C   UNL     1      -2.266   3.702   2.026  0.00  0.00    +0.025 A 
ATOM     34  C   UNL     1      -1.714   4.653   1.190  0.00  0.00    +0.030 A 
BRANCH  32  35
ATOM     35  N   UNL     1      -4.150   2.863   3.284  0.00  0.00    -0.286 N 
ATOM     36  C   UNL     1      -5.449   2.529   3.150  0.00  0.00    +0.214 C 
ATOM     37  O   UNL     1      -6.151   3.128   2.364  0.00  0.00    -0.276 OA
ATOM     38  C   UNL     1      -6.029   1.415   3.983  0.00  0.00    +0.109 C 
ATOM     39  H   UNL     1      -3.533   2.377   4.054  0.00  0.00    +0.155 HD
ENDBRANCH  32  35
ENDBRANCH  26  29
ENDBRANCH  24  26
ENDBRANCH   5  24
TORSDOF 6
