REMARK  Name = ZINC15869173
REMARK  6 active torsions:
REMARK  status: ('A' for Active; 'I' for Inactive)
REMARK    1  A    between atoms: C_4  and  C_7
REMARK    2  A    between atoms: C_7  and  S_8
REMARK    3  A    between atoms: S_8  and  C_9
REMARK    4  A    between atoms: N_13  and  C_14
REMARK    5  A    between atoms: C_17  and  C_20
REMARK    6  A    between atoms: C_25  and  C_28
REMARK                            x       y       z     vdW  Elec       q    Type
REMARK                         _______ _______ _______ _____ _____    ______ ____
ROOT
ATOM      1  C   UNL     1      -1.900  13.360   0.088  0.00  0.00    +0.070 A 
ATOM      2  C   UNL     1      -0.511  13.415   0.076  0.00  0.00    +0.028 A 
ATOM      3  C   UNL     1       0.227  12.252   0.064  0.00  0.00    +0.015 A 
ATOM      4  C   UNL     1      -0.422  11.015   0.064  0.00  0.00    +0.037 A 
ATOM      5  C   UNL     1      -1.819  10.963   0.070  0.00  0.00    +0.015 A 
ATOM      6  C   UNL     1      -2.550  12.130   0.088  0.00  0.00    +0.028 A 
ENDROOT
BRANCH   4   7
ATOM      7  C   UNL     1       0.364   9.766   0.050  0.00  0.00    +0.250 C 
ATOM      8  O   UNL     1       1.579   9.814   0.039  0.00  0.00    -0.270 OA
ATOM      9  N   UNL     1      -0.264   8.574   0.049  0.00  0.00    -0.261 N 
ATOM     10  C   UNL     1       0.476   7.399   0.036  0.00  0.00    +0.165 A 
ATOM     11  N   UNL     1       0.056   6.148   0.028  0.00  0.00    -0.224 NA
ATOM     12  C   UNL     1       0.916   5.133   0.021  0.00  0.00    +0.087 A 
ATOM     13  C   UNL     1       2.259   5.395   0.009  0.00  0.00    +0.077 A 
ATOM     14  S   UNL     1       2.250   7.182   0.018  0.00  0.00    -0.060 S 
ATOM     15  H   UNL     1      -1.233   8.536   0.058  0.00  0.00    +0.157 HD
BRANCH  12  16
ATOM     16  C   UNL     1       0.425   3.738   0.018  0.00  0.00    +0.038 A 
ATOM     17  C   UNL     1      -0.863   3.276   0.028  0.00  0.00    +0.017 A 
ATOM     18  C   UNL     1      -1.079   1.914   0.017  0.00  0.00    +0.008 A 
ATOM     19  C   UNL     1      -0.013   1.076   0.008  0.00  0.00    +0.046 A 
ATOM     20  S   UNL     1       1.360   2.217   0.001  0.00  0.00    -0.095 S 
ENDBRANCH  12  16
ENDBRANCH   4   7
BRANCH   1  25
ATOM     21  C   UNL     1      -3.840  14.776  -0.512  0.00  0.00    +0.214 A 
ATOM     22  N   UNL     1      -4.178  16.017  -0.233  0.00  0.00    -0.101 NA
ATOM     23  N   UNL     1      -3.282  16.574   0.498  0.00  0.00    -0.022 NA
ATOM     24  N   UNL     1      -2.322  15.750   0.745  0.00  0.00    -0.038 NA
ATOM     25  N   UNL     1      -2.646  14.543   0.101  0.00  0.00    -0.187 N 
BRANCH  21  26
ATOM     26  S   UNL     1      -4.759  13.634  -1.490  0.00  0.00    -0.080 S 
BRANCH  26  27
ATOM     27  C   UNL     1      -6.178  14.667  -1.929  0.00  0.00    +0.112 C 
BRANCH  27  31
ATOM     28  C   UNL     1      -8.870  12.423  -4.372  0.00  0.00    +0.000 A 
ATOM     29  C   UNL     1      -9.011  12.411  -2.997  0.00  0.00    +0.000 A 
ATOM     30  C   UNL     1      -8.140  13.137  -2.206  0.00  0.00    +0.004 A 
ATOM     31  C   UNL     1      -7.128  13.875  -2.791  0.00  0.00    -0.037 A 
ATOM     32  C   UNL     1      -6.990  13.891  -4.167  0.00  0.00    +0.004 A 
ATOM     33  C   UNL     1      -7.858  13.161  -4.957  0.00  0.00    +0.000 A 
ENDBRANCH  27  31
ENDBRANCH  26  27
ENDBRANCH  21  26
ENDBRANCH   1  25
TORSDOF 6
