REMARK  Name = ZINC40982753
REMARK  17 active torsions:
REMARK  status: ('A' for Active; 'I' for Inactive)
REMARK    1  A    between atoms: C_1  and  C_2
REMARK    2  A    between atoms: C_2  and  C_3
REMARK    3  A    between atoms: C_3  and  S_4
REMARK    4  A    between atoms: S_4  and  C_5
REMARK    5  A    between atoms: C_10  and  C_22
REMARK    6  A    between atoms: C_12  and  C_16
REMARK    7  A    between atoms: C_13  and  C_15
REMARK    8  A    between atoms: C_16  and  O_18
REMARK    9  A    between atoms: O_18  and  C_19
REMARK   10  A    between atoms: C_19  and  C_20
REMARK   11  A    between atoms: C_27  and  O_28
REMARK   12  A    between atoms: O_28  and  C_29
REMARK   13  A    between atoms: C_29  and  C_30
REMARK   14  A    between atoms: C_33  and  C_36
REMARK   15  A    between atoms: C_36  and  C_37
REMARK   16  A    between atoms: C_36  and  C_38
REMARK   17  A    between atoms: C_36  and  C_39
REMARK                            x       y       z     vdW  Elec       q    Type
REMARK                         _______ _______ _______ _____ _____    ______ ____
ROOT
ATOM      1  C   UNL     1       1.310  -2.558   2.987  0.00  0.00    +0.210 A 
ATOM      2  N   UNL     1       1.901  -1.752   3.881  0.00  0.00    -0.187 NA
ATOM      3  C   UNL     1       2.611  -2.468   4.710  0.00  0.00    +0.219 A 
ATOM      4  N   UNL     1       2.482  -3.771   4.360  0.00  0.00    -0.220 N 
ATOM      5  N   UNL     1       1.639  -3.805   3.251  0.00  0.00    -0.141 NA
ATOM      6  C   UNL     1       3.131  -4.868   5.073  0.00  0.00    +0.182 C 
ATOM      7  C   UNL     1       4.161  -4.310   6.019  0.00  0.00    +0.082 C 
ATOM      8  C   UNL     1       4.244  -3.006   6.326  0.00  0.00    +0.020 C 
ATOM      9  N   UNL     1       3.395  -2.073   5.786  0.00  0.00    -0.287 N 
ATOM     10  C   UNL     1       5.305  -2.552   7.295  0.00  0.00    +0.061 C 
ATOM     11  H   UNL     1       3.345  -1.172   6.142  0.00  0.00    +0.155 HD
ENDROOT
BRANCH   6  12
ATOM     12  C   UNL     1       2.099  -5.641   5.853  0.00  0.00    +0.023 A 
ATOM     13  C   UNL     1       1.346  -5.006   6.822  0.00  0.00    +0.009 A 
ATOM     14  C   UNL     1       0.399  -5.715   7.538  0.00  0.00    +0.001 A 
ATOM     15  C   UNL     1       0.203  -7.061   7.286  0.00  0.00    +0.004 A 
ATOM     16  C   UNL     1       0.953  -7.700   6.318  0.00  0.00    +0.046 A 
ATOM     17  C   UNL     1       1.900  -6.989   5.594  0.00  0.00    +0.127 A 
BRANCH  17  18
ATOM     18  O   UNL     1       2.635  -7.614   4.637  0.00  0.00    -0.487 OA
BRANCH  18  19
ATOM     19  C   UNL     1       2.376  -9.004   4.425  0.00  0.00    +0.264 C 
BRANCH  19  20
ATOM     20  C   UNL     1       3.279  -9.521   3.335  0.00  0.00    -0.010 A 
ATOM     21  C   UNL     1       2.867  -9.475   2.016  0.00  0.00    +0.007 A 
ATOM     22  C   UNL     1       3.695  -9.950   1.016  0.00  0.00    +0.004 A 
ATOM     23  C   UNL     1       4.935 -10.471   1.335  0.00  0.00    -0.042 A 
ATOM     24  C   UNL     1       5.347 -10.518   2.654  0.00  0.00    +0.004 A 
ATOM     25  C   UNL     1       4.521 -10.038   3.653  0.00  0.00    +0.007 A 
BRANCH  23  26
ATOM     26  C   UNL     1       5.837 -10.990   0.245  0.00  0.00    -0.013 C 
ATOM     27  C   UNL     1       6.153  -9.860  -0.737  0.00  0.00    +0.015 C 
ATOM     28  C   UNL     1       7.138 -11.508   0.863  0.00  0.00    +0.015 C 
ATOM     29  C   UNL     1       5.137 -12.130  -0.497  0.00  0.00    +0.015 C 
ENDBRANCH  23  26
ENDBRANCH  19  20
ENDBRANCH  18  19
ENDBRANCH  17  18
ENDBRANCH   6  12
BRANCH   7  30
ATOM     30  C   UNL     1       5.083  -5.201   6.613  0.00  0.00    +0.339 C 
ATOM     31  O   UNL     1       6.063  -5.567   5.990  0.00  0.00    -0.245 OA
BRANCH  30  32
ATOM     32  O   UNL     1       4.877  -5.647   7.870  0.00  0.00    -0.457 OA
BRANCH  32  33
ATOM     33  C   UNL     1       5.849  -6.546   8.407  0.00  0.00    +0.259 C 
BRANCH  33  34
ATOM     34  C   UNL     1       5.455  -6.934   9.809  0.00  0.00    +0.006 C 
ATOM     35  C   UNL     1       5.521  -8.187  10.185  0.00  0.00    +0.007 C 
ENDBRANCH  33  34
ENDBRANCH  32  33
ENDBRANCH  30  32
ENDBRANCH   7  30
BRANCH   1  36
ATOM     36  S   UNL     1       0.255  -2.034   1.677  0.00  0.00    -0.084 S 
BRANCH  36  37
ATOM     37  C   UNL     1       0.203  -0.229   1.851  0.00  0.00    +0.077 C 
BRANCH  37  39
ATOM     38  C   UNL     1      -0.735   1.886   0.907  0.00  0.00    +0.004 C 
ATOM     39  C   UNL     1      -0.691   0.364   0.760  0.00  0.00    +0.008 C 
ENDBRANCH  37  39
ENDBRANCH  36  37
ENDBRANCH   1  36
TORSDOF 12
