REMARK  Name = ZINC35743111
REMARK  14 active torsions:
REMARK  status: ('A' for Active; 'I' for Inactive)
REMARK    1  A    between atoms: C_1  and  C_2
REMARK    2  A    between atoms: C_2  and  C_3
REMARK    3  A    between atoms: C_3  and  C_4
REMARK    4  A    between atoms: C_4  and  O_6
REMARK    5  A    between atoms: O_6  and  C_7
REMARK    6  A    between atoms: C_7  and  C_8
REMARK    7  A    between atoms: C_8  and  C_10
REMARK    8  A    between atoms: C_8  and  O_35
REMARK    9  A    between atoms: C_10  and  N_11
REMARK   10  A    between atoms: N_11  and  C_12
REMARK   11  A    between atoms: N_11  and  C_20
REMARK   12  A    between atoms: C_12  and  C_13
REMARK   13  A    between atoms: C_20  and  C_21
REMARK   14  A    between atoms: C_24  and  C_27
REMARK                            x       y       z     vdW  Elec       q    Type
REMARK                         _______ _______ _______ _____ _____    ______ ____
ROOT
ATOM      1  N   UNL     1      -5.194  -6.969   0.285  0.00  0.00    +0.387 N 
ATOM      2  H   UNL     1      -5.772  -6.787  -0.521  0.00  0.00    -0.081 HD
ENDROOT
BRANCH   1   3
ATOM      3  C   UNL     1      -3.841  -6.447   0.046  0.00  0.00    -0.043 C 
BRANCH   3   4
ATOM      4  C   UNL     1      -3.927  -4.969  -0.340  0.00  0.00    +0.136 C 
BRANCH   4   5
ATOM      5  O   UNL     1      -4.666  -4.836  -1.556  0.00  0.00    -0.390 OA
ATOM      6  H   UNL     1      -4.276  -5.305  -2.306  0.00  0.00    +0.210 HD
ENDBRANCH   4   5
BRANCH   4   7
ATOM      7  C   UNL     1      -2.516  -4.411  -0.537  0.00  0.00    +0.261 C 
BRANCH   7   8
ATOM      8  O   UNL     1      -2.589  -3.005  -0.783  0.00  0.00    -0.462 OA
BRANCH   8   9
ATOM      9  C   UNL     1      -1.429  -2.359  -0.979  0.00  0.00    +0.307 C 
ATOM     10  O   UNL     1      -0.385  -2.967  -0.942  0.00  0.00    -0.251 OA
BRANCH   9  11
ATOM     11  C   UNL     1      -1.428  -0.876  -1.244  0.00  0.00    +0.120 C 
BRANCH  11  13
ATOM     12  C   UNL     1       0.013   1.114  -1.698  0.00  0.00    +0.004 C 
ATOM     13  C   UNL     1       0.012  -0.392  -1.429  0.00  0.00    +0.008 C 
ENDBRANCH  11  13
ENDBRANCH   9  11
ENDBRANCH   8   9
ENDBRANCH   7   8
ENDBRANCH   4   7
ENDBRANCH   3   4
ENDBRANCH   1   3
BRANCH   1  14
ATOM     14  C   UNL     1      -5.772  -6.308   1.463  0.00  0.00    -0.043 C 
BRANCH  14  15
ATOM     15  C   UNL     1      -4.895  -6.559   2.662  0.00  0.00    -0.063 A 
ATOM     16  C   UNL     1      -5.103  -7.677   3.449  0.00  0.00    +0.002 A 
ATOM     17  C   UNL     1      -4.299  -7.909   4.549  0.00  0.00    +0.002 A 
ATOM     18  C   UNL     1      -3.286  -7.022   4.863  0.00  0.00    +0.020 A 
ATOM     19  C   UNL     1      -3.077  -5.904   4.076  0.00  0.00    +0.041 A 
ATOM     20  C   UNL     1      -3.879  -5.676   2.972  0.00  0.00    +0.021 A 
ATOM     21 CL   UNL     1      -1.805  -4.790   4.471  0.00  0.00    -0.084 Cl
ENDBRANCH  14  15
ENDBRANCH   1  14
BRANCH   1  22
ATOM     22  C   UNL     1      -5.124  -8.417   0.521  0.00  0.00    -0.030 C 
BRANCH  22  23
ATOM     23  C   UNL     1      -6.541  -8.982   0.647  0.00  0.00    +0.194 C 
ATOM     24  C   UNL     1      -6.508 -10.500   0.944  0.00  0.00    +0.104 C 
ATOM     25  C   UNL     1      -7.682 -11.020   0.136  0.00  0.00    +0.091 C 
ATOM     26  N   UNL     1      -8.028 -10.106  -0.708  0.00  0.00    -0.089 NA
ATOM     27  O   UNL     1      -7.225  -8.945  -0.622  0.00  0.00    -0.392 OA
BRANCH  25  28
ATOM     28  C   UNL     1      -8.318 -12.343   0.288  0.00  0.00    +0.001 A 
ATOM     29  C   UNL     1      -7.847 -13.242   1.247  0.00  0.00    +0.011 A 
ATOM     30  C   UNL     1      -8.445 -14.476   1.385  0.00  0.00    +0.022 A 
ATOM     31  C   UNL     1      -9.512 -14.827   0.574  0.00  0.00    +0.059 A 
ATOM     32  C   UNL     1      -9.985 -13.940  -0.380  0.00  0.00    +0.060 A 
ATOM     33  C   UNL     1      -9.397 -12.699  -0.523  0.00  0.00    +0.031 A 
ATOM     34 CL   UNL     1     -11.322 -14.388  -1.391  0.00  0.00    -0.082 Cl
ATOM     35 CL   UNL     1     -10.259 -16.383   0.754  0.00  0.00    -0.082 Cl
ENDBRANCH  25  28
ENDBRANCH  22  23
ENDBRANCH   1  22
TORSDOF 13
