REMARK  Name = ZINC08660983
REMARK  3 active torsions:
REMARK  status: ('A' for Active; 'I' for Inactive)
REMARK    1  A    between atoms: C_1  and  N_2
REMARK    2  A    between atoms: N_11  and  C_15
REMARK    3  A    between atoms: C_15  and  C_16
REMARK                            x       y       z     vdW  Elec       q    Type
REMARK                         _______ _______ _______ _____ _____    ______ ____
ROOT
ATOM      1  C   UNL     1      -2.406   3.471   2.995  0.00  0.00    +0.135 C 
ATOM      2  N   UNL     1      -2.192   4.422   4.089  0.00  0.00    -0.308 N 
ATOM      3  C   UNL     1      -3.232   4.779   4.888  0.00  0.00    +0.075 C 
ATOM      4  C   UNL     1      -3.055   5.655   5.903  0.00  0.00    +0.015 C 
ATOM      5  C   UNL     1      -1.789   6.208   6.146  0.00  0.00    +0.003 C 
ATOM      6  C   UNL     1      -0.737   5.854   5.354  0.00  0.00    +0.025 C 
ATOM      7  C   UNL     1      -0.942   4.947   4.301  0.00  0.00    +0.052 C 
ATOM      8  C   UNL     1       0.127   4.575   3.474  0.00  0.00    +0.098 C 
ATOM      9  C   UNL     1       0.120   4.202   2.122  0.00  0.00    +0.260 C 
ATOM     10  O   UNL     1      -0.919   4.164   1.479  0.00  0.00    -0.269 OA
ATOM     11  N   UNL     1       1.281   3.889   1.571  0.00  0.00    -0.251 N 
ATOM     12  C   UNL     1       2.421   3.942   2.292  0.00  0.00    +0.121 C 
ATOM     13  S   UNL     1       4.019   3.591   1.788  0.00  0.00    -0.027 S 
ATOM     14  S   UNL     1       1.867   4.453   3.855  0.00  0.00    -0.059 S 
ENDROOT
BRANCH  11  15
ATOM     15  C   UNL     1       1.331   3.488   0.163  0.00  0.00    +0.150 C 
BRANCH  15  16
ATOM     16  C   UNL     1       1.169   1.993   0.061  0.00  0.00    -0.030 A 
ATOM     17  C   UNL     1      -0.092   1.441  -0.067  0.00  0.00    +0.005 A 
ATOM     18  C   UNL     1      -0.240   0.070  -0.161  0.00  0.00    +0.000 A 
ATOM     19  C   UNL     1       0.873  -0.749  -0.128  0.00  0.00    +0.000 A 
ATOM     20  C   UNL     1       2.134  -0.198  -0.001  0.00  0.00    +0.000 A 
ATOM     21  C   UNL     1       2.282   1.174   0.092  0.00  0.00    +0.005 A 
ENDBRANCH  15  16
ENDBRANCH  11  15
TORSDOF 2
