REMARK  Name = ZINC21462829
REMARK  14 active torsions:
REMARK  status: ('A' for Active; 'I' for Inactive)
REMARK    1  A    between atoms: C_1  and  C_2
REMARK    2  A    between atoms: C_2  and  C_3
REMARK    3  A    between atoms: C_2  and  C_4
REMARK    4  A    between atoms: C_8  and  C_29
REMARK    5  A    between atoms: C_9  and  N_10
REMARK    6  A    between atoms: C_11  and  C_13
REMARK    7  A    between atoms: C_13  and  S_14
REMARK    8  A    between atoms: S_14  and  C_15
REMARK    9  A    between atoms: C_18  and  C_21
REMARK   10  A    between atoms: N_19  and  C_20
REMARK   11  A    between atoms: C_24  and  O_27
REMARK   12  A    between atoms: O_27  and  C_28
REMARK   13  A    between atoms: C_29  and  C_30
REMARK   14  A    between atoms: C_29  and  C_31
REMARK                            x       y       z     vdW  Elec       q    Type
REMARK                         _______ _______ _______ _____ _____    ______ ____
ROOT
ATOM      1  N   UNL     1      -2.577  -0.516   2.516  0.00  0.00    -0.284 N 
ATOM      2  C   UNL     1      -1.847  -0.063   1.478  0.00  0.00    +0.228 C 
ATOM      3  O   UNL     1      -1.542   1.109   1.416  0.00  0.00    -0.275 OA
ATOM      4  H   UNL     1      -2.794  -1.590   2.609  0.00  0.00    +0.155 HD
ENDROOT
BRANCH   1  10
ATOM      5  C   UNL     1      -3.893   1.424   3.096  0.00  0.00    -0.023 A 
ATOM      6  C   UNL     1      -4.372   2.304   4.047  0.00  0.00    +0.006 A 
ATOM      7  C   UNL     1      -4.013   2.154   5.374  0.00  0.00    +0.001 A 
ATOM      8  C   UNL     1      -3.179   1.119   5.754  0.00  0.00    +0.006 A 
ATOM      9  C   UNL     1      -2.701   0.232   4.809  0.00  0.00    -0.023 A 
ATOM     10  C   UNL     1      -3.059   0.381   3.476  0.00  0.00    +0.040 A 
BRANCH   5  12
ATOM     11  C   UNL     1      -5.482   0.699   1.335  0.00  0.00    +0.012 C 
ATOM     12  C   UNL     1      -4.280   1.593   1.649  0.00  0.00    +0.015 C 
ATOM     13  C   UNL     1      -4.649   3.054   1.387  0.00  0.00    +0.012 C 
ENDBRANCH   5  12
BRANCH   9  14
ATOM     14  C   UNL     1      -1.791  -0.895   5.224  0.00  0.00    +0.015 C 
ATOM     15  C   UNL     1      -0.525  -0.319   5.864  0.00  0.00    +0.012 C 
ATOM     16  C   UNL     1      -2.513  -1.787   6.236  0.00  0.00    +0.012 C 
ENDBRANCH   9  14
ENDBRANCH   1  10
BRANCH   2  17
ATOM     17  C   UNL     1      -1.409  -1.014   0.393  0.00  0.00    +0.173 C 
BRANCH  17  18
ATOM     18  S   UNL     1      -0.453  -0.111  -0.851  0.00  0.00    -0.077 S 
BRANCH  18  19
ATOM     19  C   UNL     1      -0.081  -1.425  -1.964  0.00  0.00    +0.192 A 
ATOM     20  N   UNL     1      -0.440  -2.682  -1.834  0.00  0.00    -0.122 NA
ATOM     21  N   UNL     1      -0.004  -3.371  -2.827  0.00  0.00    -0.128 NA
ATOM     22  C   UNL     1       0.668  -2.598  -3.648  0.00  0.00    +0.165 A 
ATOM     23  N   UNL     1       0.639  -1.327  -3.121  0.00  0.00    -0.305 N 
ATOM     24  C   UNL     1       1.254  -0.122  -3.683  0.00  0.00    +0.153 C 
BRANCH  22  25
ATOM     25  C   UNL     1       1.331  -3.014  -4.902  0.00  0.00    +0.019 A 
ATOM     26  C   UNL     1       0.974  -4.215  -5.517  0.00  0.00    +0.015 A 
ATOM     27  C   UNL     1       1.590  -4.597  -6.689  0.00  0.00    +0.046 A 
ATOM     28  C   UNL     1       2.574  -3.794  -7.253  0.00  0.00    +0.120 A 
ATOM     29  C   UNL     1       2.935  -2.601  -6.641  0.00  0.00    +0.046 A 
ATOM     30  C   UNL     1       2.320  -2.209  -5.472  0.00  0.00    +0.015 A 
BRANCH  28  31
ATOM     31  O   UNL     1       3.183  -4.177  -8.405  0.00  0.00    -0.495 OA
ATOM     32  C   UNL     1       2.763  -5.415  -8.981  0.00  0.00    +0.277 C 
ENDBRANCH  28  31
ENDBRANCH  22  25
ENDBRANCH  18  19
ENDBRANCH  17  18
ENDBRANCH   2  17
TORSDOF 8
