REMARK  Name = ZINC33810238
REMARK  11 active torsions:
REMARK  status: ('A' for Active; 'I' for Inactive)
REMARK    1  A    between atoms: C_1  and  C_2
REMARK    2  A    between atoms: C_5  and  C_8
REMARK    3  A    between atoms: C_8  and  S_9
REMARK    4  A    between atoms: S_9  and  C_10
REMARK    5  A    between atoms: C_17  and  C_27
REMARK    6  A    between atoms: C_29  and  O_37
REMARK    7  A    between atoms: C_30  and  O_35
REMARK    8  A    between atoms: C_31  and  O_33
REMARK    9  A    between atoms: O_33  and  C_34
REMARK   10  A    between atoms: O_35  and  C_36
REMARK   11  A    between atoms: O_37  and  C_38
REMARK                            x       y       z     vdW  Elec       q    Type
REMARK                         _______ _______ _______ _____ _____    ______ ____
ROOT
ATOM      1  C   UNL     1       0.002  -0.004   0.002  0.00  0.00    +0.171 A 
ATOM      2  N   UNL     1       1.177  -0.693  -0.014  0.00  0.00    -0.208 NA
ATOM      3  C   UNL     1       2.369  -0.017  -0.020  0.00  0.00    +0.135 A 
ATOM      4  C   UNL     1       2.364   1.343  -0.010  0.00  0.00    +0.069 A 
ATOM      5  C   UNL     1       1.125   2.019   0.002  0.00  0.00    +0.258 A 
ATOM      6  O   UNL     1       1.092   3.241   0.006  0.00  0.00    -0.267 OA
ATOM      7  N   UNL     1      -0.016   1.313   0.009  0.00  0.00    -0.302 N 
ATOM      8  C   UNL     1       3.648   2.119  -0.010  0.00  0.00    +0.093 C 
ATOM      9  C   UNL     1       4.807   1.260  -0.448  0.00  0.00    +0.024 C 
ATOM     10  C   UNL     1       4.716  -0.087  -0.437  0.00  0.00    +0.017 C 
ATOM     11  N   UNL     1       3.561  -0.705  -0.040  0.00  0.00    -0.302 N 
ATOM     12  C   UNL     1       5.882  -0.949  -0.855  0.00  0.00    +0.051 C 
ATOM     13  C   UNL     1       6.705  -0.218  -1.918  0.00  0.00    +0.014 C 
ATOM     14  C   UNL     1       7.180   1.116  -1.332  0.00  0.00    +0.080 C 
ATOM     15  C   UNL     1       5.983   1.902  -0.871  0.00  0.00    +0.162 C 
ATOM     16  O   UNL     1       6.035   3.116  -0.863  0.00  0.00    -0.292 OA
ATOM     17  H   UNL     1       3.591  -1.761   0.266  0.00  0.00    +0.153 HD
ATOM     18  H   UNL     1      -0.976   1.850   0.021  0.00  0.00    +0.171 HD
ENDROOT
BRANCH   8  19
ATOM     19  C   UNL     1       3.913   2.633   1.381  0.00  0.00    -0.028 A 
ATOM     20  C   UNL     1       4.083   1.742   2.424  0.00  0.00    +0.054 A 
ATOM     21  C   UNL     1       4.332   2.211   3.705  0.00  0.00    +0.165 A 
ATOM     22  C   UNL     1       4.401   3.579   3.942  0.00  0.00    +0.204 A 
ATOM     23  C   UNL     1       4.223   4.471   2.891  0.00  0.00    +0.165 A 
ATOM     24  C   UNL     1       3.979   3.994   1.612  0.00  0.00    +0.054 A 
BRANCH  23  25
ATOM     25  O   UNL     1       4.289   5.811   3.118  0.00  0.00    -0.491 OA
ATOM     26  C   UNL     1       4.097   6.669   1.991  0.00  0.00    +0.277 C 
ENDBRANCH  23  25
BRANCH  22  27
ATOM     27  O   UNL     1       4.640   4.043   5.199  0.00  0.00    -0.488 OA
ATOM     28  C   UNL     1       3.502   4.286   6.028  0.00  0.00    +0.277 C 
ENDBRANCH  22  27
BRANCH  21  29
ATOM     29  O   UNL     1       4.505   1.333   4.730  0.00  0.00    -0.491 OA
ATOM     30  C   UNL     1       4.422  -0.058   4.414  0.00  0.00    +0.277 C 
ENDBRANCH  21  29
ENDBRANCH   8  19
BRANCH   1  31
ATOM     31  S   UNL     1      -1.521  -0.890   0.013  0.00  0.00    -0.083 S 
BRANCH  31  32
ATOM     32  C   UNL     1      -2.689   0.492   0.033  0.00  0.00    +0.112 C 
BRANCH  32  37
ATOM     33  C   UNL     1      -8.094  -1.553   0.078  0.00  0.00    +0.044 C 
ATOM     34  C   UNL     1      -6.684  -1.019   0.066  0.00  0.00    -0.050 A 
ATOM     35  C   UNL     1      -6.025  -0.782   1.258  0.00  0.00    +0.003 A 
ATOM     36  C   UNL     1      -4.732  -0.293   1.247  0.00  0.00    +0.005 A 
ATOM     37  C   UNL     1      -4.098  -0.042   0.044  0.00  0.00    -0.037 A 
ATOM     38  C   UNL     1      -4.759  -0.274  -1.147  0.00  0.00    +0.005 A 
ATOM     39  C   UNL     1      -6.050  -0.768  -1.137  0.00  0.00    +0.003 A 
ENDBRANCH  32  37
ENDBRANCH  31  32
ENDBRANCH   1  31
TORSDOF 7
