REMARK  Name = ZINC33937385
REMARK  10 active torsions:
REMARK  status: ('A' for Active; 'I' for Inactive)
REMARK    1  A    between atoms: C_1  and  C_2
REMARK    2  A    between atoms: C_2  and  C_3
REMARK    3  A    between atoms: C_3  and  C_5
REMARK    4  A    between atoms: C_3  and  N_17
REMARK    5  A    between atoms: N_9  and  C_10
REMARK    6  A    between atoms: C_10  and  C_11
REMARK    7  A    between atoms: N_17  and  C_18
REMARK    8  A    between atoms: N_17  and  C_32
REMARK    9  A    between atoms: C_18  and  C_19
REMARK   10  A    between atoms: C_23  and  C_31
REMARK                            x       y       z     vdW  Elec       q    Type
REMARK                         _______ _______ _______ _____ _____    ______ ____
ROOT
ATOM      1  N   UNL     1      -0.141  -0.106  -2.451  0.00  0.00    +0.391 N 
ATOM      2  H   UNL     1      -0.756  -0.898  -2.339  0.00  0.00    -0.080 HD
ENDROOT
BRANCH   1   3
ATOM      3  C   UNL     1       0.434  -0.119  -3.802  0.00  0.00    -0.067 C 
ATOM      4  C   UNL     1      -0.647   0.243  -4.841  0.00  0.00    -0.015 C 
ATOM      5  C   UNL     1      -0.322  -0.658  -6.058  0.00  0.00    -0.002 C 
ATOM      6  C   UNL     1       0.123  -1.984  -5.392  0.00  0.00    -0.002 C 
ATOM      7  C   UNL     1       0.924  -1.534  -4.153  0.00  0.00    -0.015 C 
ENDBRANCH   1   3
BRANCH   1   8
ATOM      8  C   UNL     1       0.939  -0.179  -1.458  0.00  0.00    +0.003 C 
BRANCH   8   9
ATOM      9  C   UNL     1       1.896   0.965  -1.671  0.00  0.00    +0.138 A 
ATOM     10  N   UNL     1       2.411   1.352  -2.812  0.00  0.00    -0.115 NA
ATOM     11  N   UNL     1       3.179   2.360  -2.580  0.00  0.00    -0.023 NA
ATOM     12  N   UNL     1       3.167   2.627  -1.321  0.00  0.00    -0.044 NA
ATOM     13  N   UNL     1       2.383   1.792  -0.727  0.00  0.00    -0.228 N 
BRANCH  13  14
ATOM     14  C   UNL     1       2.082   1.749   0.707  0.00  0.00    +0.178 C 
BRANCH  14  15
ATOM     15  C   UNL     1       3.091   0.841   1.413  0.00  0.00    +0.140 C 
ATOM     16  C   UNL     1       2.847   0.854   2.943  0.00  0.00    +0.035 C 
ATOM     17  C   UNL     1       3.457  -0.516   3.349  0.00  0.00    +0.031 C 
ATOM     18  C   UNL     1       3.128  -1.397   2.125  0.00  0.00    +0.160 C 
ATOM     19  O   UNL     1       2.900  -0.524   1.011  0.00  0.00    -0.375 OA
ENDBRANCH  14  15
ENDBRANCH  13  14
ENDBRANCH   8   9
BRANCH   8  21
ATOM     20  C   UNL     1       0.745  -2.664  -1.276  0.00  0.00    +0.002 C 
ATOM     21  C   UNL     1       1.686  -1.505  -1.614  0.00  0.00    -0.011 C 
ENDBRANCH   8  21
ENDBRANCH   1   8
BRANCH   1  22
ATOM     22  C   UNL     1      -0.903   1.135  -2.255  0.00  0.00    -0.036 C 
BRANCH  22  23
ATOM     23  C   UNL     1      -1.633   1.074  -0.938  0.00  0.00    +0.001 A 
ATOM     24  C   UNL     1      -1.117   1.699   0.150  0.00  0.00    +0.017 A 
ATOM     25  C   UNL     1      -1.851   1.621   1.415  0.00  0.00    -0.001 A 
ATOM     26  C   UNL     1      -1.370   2.245   2.570  0.00  0.00    +0.013 A 
ATOM     27  C   UNL     1      -2.078   2.154   3.734  0.00  0.00    -0.050 A 
ATOM     28  C   UNL     1      -3.272   1.446   3.781  0.00  0.00    +0.005 A 
ATOM     29  C   UNL     1      -3.765   0.823   2.655  0.00  0.00    +0.026 A 
ATOM     30  C   UNL     1      -3.061   0.903   1.458  0.00  0.00    +0.049 A 
ATOM     31  N   UNL     1      -3.531   0.289   0.316  0.00  0.00    -0.322 N 
ATOM     32  H   UNL     1      -4.365  -0.205   0.348  0.00  0.00    +0.169 HD
ATOM     33  C   UNL     1      -2.853   0.371  -0.842  0.00  0.00    +0.251 A 
ATOM     34  O   UNL     1      -3.301  -0.179  -1.833  0.00  0.00    -0.268 OA
ATOM     35  C   UNL     1      -1.560   2.826   4.979  0.00  0.00    +0.044 C 
ENDBRANCH  22  23
ENDBRANCH   1  22
TORSDOF 8
