REMARK  Name = ZINC02163779
REMARK  11 active torsions:
REMARK  status: ('A' for Active; 'I' for Inactive)
REMARK    1  A    between atoms: C_1  and  C_2
REMARK    2  A    between atoms: C_2  and  O_3
REMARK    3  A    between atoms: O_3  and  C_4
REMARK    4  A    between atoms: C_6  and  C_15
REMARK    5  A    between atoms: C_9  and  O_10
REMARK    6  A    between atoms: O_10  and  C_11
REMARK    7  A    between atoms: C_11  and  C_12
REMARK    8  A    between atoms: C_17  and  C_30
REMARK    9  A    between atoms: C_18  and  N_29
REMARK   10  A    between atoms: C_25  and  C_27
REMARK   11  A    between atoms: C_25  and  C_28
REMARK                            x       y       z     vdW  Elec       q    Type
REMARK                         _______ _______ _______ _____ _____    ______ ____
ROOT
ATOM      1  C   UNL     1      -0.217  -4.968   0.485  0.00  0.00    +0.101 C 
ATOM      2  C   UNL     1       0.884  -5.812   1.063  0.00  0.00    +0.098 C 
ATOM      3  C   UNL     1       1.049  -7.095   0.660  0.00  0.00    +0.198 C 
ATOM      4  O   UNL     1       0.245  -7.646  -0.263  0.00  0.00    -0.445 OA
ATOM      5  C   UNL     1      -0.974  -7.121  -0.490  0.00  0.00    +0.115 C 
ATOM      6  C   UNL     1      -1.262  -5.849  -0.157  0.00  0.00    +0.046 C 
ATOM      7  C   UNL     1      -2.537  -5.301  -0.392  0.00  0.00    +0.164 C 
ATOM      8  O   UNL     1      -2.753  -4.143  -0.096  0.00  0.00    -0.292 OA
ATOM      9  C   UNL     1      -3.638  -6.125  -1.005  0.00  0.00    +0.086 C 
ATOM     10  C   UNL     1      -3.408  -7.598  -0.650  0.00  0.00    -0.021 C 
ATOM     11  C   UNL     1      -2.016  -8.003  -1.137  0.00  0.00    +0.081 C 
ATOM     12  C   UNL     1      -3.496  -7.782   0.866  0.00  0.00    +0.012 C 
ATOM     13  C   UNL     1      -4.468  -8.463  -1.335  0.00  0.00    +0.012 C 
ENDROOT
BRANCH   1  16
ATOM     14  C   UNL     1       0.777  -1.811  -1.336  0.00  0.00    +0.163 A 
ATOM     15  C   UNL     1       0.248  -2.669  -0.385  0.00  0.00    +0.054 A 
ATOM     16  C   UNL     1       0.357  -4.037  -0.551  0.00  0.00    -0.030 A 
ATOM     17  C   UNL     1       0.992  -4.553  -1.665  0.00  0.00    +0.023 A 
ATOM     18  C   UNL     1       1.522  -3.702  -2.619  0.00  0.00    +0.063 A 
ATOM     19  C   UNL     1       1.411  -2.329  -2.461  0.00  0.00    +0.177 A 
ATOM     20 BR   UNL     1       2.390  -4.412  -4.141  0.00  0.00    -0.046 Br
BRANCH  14  21
ATOM     21  O   UNL     1       0.671  -0.465  -1.174  0.00  0.00    -0.489 OA
BRANCH  21  23
ATOM     22  C   UNL     1      -0.019   1.526   0.010  0.00  0.00    +0.048 C 
ATOM     23  C   UNL     1       0.002  -0.004   0.002  0.00  0.00    +0.226 C 
ENDBRANCH  21  23
ENDBRANCH  14  21
BRANCH  19  24
ATOM     24  O   UNL     1       1.926  -1.491  -3.400  0.00  0.00    -0.475 OA
BRANCH  24  25
ATOM     25  C   UNL     1       3.283  -1.079  -3.227  0.00  0.00    +0.317 C 
BRANCH  25  26
ATOM     26  C   UNL     1       3.668  -0.182  -4.329  0.00  0.00    -0.065 C 
ATOM     27  C   UNL     1       3.974   0.534  -5.208  0.00  0.00    +0.007 C 
ENDBRANCH  25  26
ENDBRANCH  24  25
ENDBRANCH  19  24
ENDBRANCH   1  16
BRANCH   3  28
ATOM     28  N   UNL     1       2.059  -7.847   1.206  0.00  0.00    -0.328 N 
ATOM     29  H   UNL     1       2.186  -8.767   0.925  0.00  0.00    +0.145 HD
ATOM     30  H   UNL     1       2.646  -7.459   1.874  0.00  0.00    +0.145 HD
ENDBRANCH   3  28
BRANCH   2  31
ATOM     31  C   UNL     1       1.766  -5.256   2.046  0.00  0.00    +0.101 C 
ATOM     32  N   UNL     1       2.465  -4.815   2.825  0.00  0.00    -0.191 NA
ENDBRANCH   2  31
TORSDOF 8
