REMARK  Name = ZINC39674329
REMARK  8 active torsions:
REMARK  status: ('A' for Active; 'I' for Inactive)
REMARK    1  A    between atoms: C_1  and  C_2
REMARK    2  A    between atoms: C_4  and  C_9
REMARK    3  A    between atoms: C_5  and  C_8
REMARK    4  A    between atoms: C_9  and  C_11
REMARK    5  A    between atoms: C_9  and  N_12
REMARK    6  A    between atoms: C_13  and  C_15
REMARK    7  A    between atoms: C_26  and  C_28
REMARK    8  A    between atoms: C_28  and  C_34
REMARK                            x       y       z     vdW  Elec       q    Type
REMARK                         _______ _______ _______ _____ _____    ______ ____
ROOT
ATOM      1  C   UNL     1      -2.417  -1.016  -5.211  0.00  0.00    +0.100 C 
ATOM      2  C   UNL     1      -3.060  -2.349  -4.766  0.00  0.00    +0.121 C 
ATOM      3  N   UNL     1      -3.645  -2.914  -6.005  0.00  0.00    -0.300 N 
ATOM      4  C   UNL     1      -2.646  -2.608  -7.057  0.00  0.00    +0.115 C 
ATOM      5  C   UNL     1      -2.146  -1.190  -6.714  0.00  0.00    -0.004 C 
ATOM      6  C   UNL     1      -0.651  -1.076  -6.998  0.00  0.00    -0.010 C 
ATOM      7  C   UNL     1      -0.412  -1.194  -8.506  0.00  0.00    -0.082 C 
ATOM      8  N   UNL     1      -1.146  -0.132  -9.205  0.00  0.00    +0.379 N 
ATOM      9  C   UNL     1      -2.590  -0.305  -9.002  0.00  0.00    -0.082 C 
ATOM     10  C   UNL     1      -2.921  -0.149  -7.516  0.00  0.00    -0.010 C 
ATOM     11  C   UNL     1      -4.820  -3.559  -6.145  0.00  0.00    +0.222 C 
ATOM     12  O   UNL     1      -5.118  -4.053  -7.212  0.00  0.00    -0.275 OA
ATOM     13  H   UNL     1      -0.862   0.766  -8.842  0.00  0.00    -0.086 HD
ATOM     14  H   UNL     1      -0.939  -0.174 -10.191  0.00  0.00    -0.086 HD
ENDROOT
BRANCH  11  15
ATOM     15  C   UNL     1      -5.763  -3.668  -4.974  0.00  0.00    +0.044 C 
ATOM     16  C   UNL     1      -5.033  -4.301  -3.788  0.00  0.00    +0.016 C 
ATOM     17  C   UNL     1      -4.540  -5.696  -4.178  0.00  0.00    +0.001 C 
ATOM     18  C   UNL     1      -5.736  -6.569  -4.566  0.00  0.00    +0.000 C 
ATOM     19  C   UNL     1      -6.466  -5.936  -5.752  0.00  0.00    +0.001 C 
ATOM     20  C   UNL     1      -6.958  -4.541  -5.362  0.00  0.00    +0.016 C 
ATOM     21  C   UNL     1      -6.256  -2.273  -4.585  0.00  0.00    +0.021 C 
ENDBRANCH  11  15
BRANCH   1  23
ATOM     22  N   UNL     1      -0.649   0.469  -4.323  0.00  0.00    -0.309 N 
ATOM     23  C   UNL     1      -1.127  -0.783  -4.468  0.00  0.00    +0.219 C 
ATOM     24  O   UNL     1      -0.518  -1.722  -4.001  0.00  0.00    -0.275 OA
ATOM     25  H   UNL     1      -1.136   1.220  -4.697  0.00  0.00    +0.149 HD
BRANCH  22  26
ATOM     26  C   UNL     1       0.606   0.696  -3.602  0.00  0.00    +0.100 C 
ATOM     27  C   UNL     1       1.785   0.514  -4.559  0.00  0.00    +0.033 C 
BRANCH  26  30
ATOM     28  C   UNL     1       1.475   3.597  -4.866  0.00  0.00    +0.039 C 
ATOM     29  C   UNL     1       0.401   3.401  -3.793  0.00  0.00    +0.154 C 
ATOM     30  C   UNL     1       0.620   2.097  -3.047  0.00  0.00    -0.001 C 
ATOM     31  C   UNL     1       0.828   2.480  -1.785  0.00  0.00    +0.063 C 
ATOM     32  N   UNL     1       0.764   3.825  -1.675  0.00  0.00    -0.159 NA
ATOM     33  N   UNL     1       0.530   4.418  -2.736  0.00  0.00    -0.180 NA
ATOM     34  C   UNL     1       1.097   1.540  -0.639  0.00  0.00    +0.067 C 
ENDBRANCH  26  30
ENDBRANCH  22  26
ENDBRANCH   1  23
TORSDOF 4
