REMARK  Name = ZINC39991725
REMARK  11 active torsions:
REMARK  status: ('A' for Active; 'I' for Inactive)
REMARK    1  A    between atoms: C_1  and  C_2
REMARK    2  A    between atoms: C_3  and  C_15
REMARK    3  A    between atoms: C_5  and  S_7
REMARK    4  A    between atoms: S_7  and  C_8
REMARK    5  A    between atoms: C_15  and  C_17
REMARK    6  A    between atoms: N_21  and  C_30
REMARK    7  A    between atoms: C_22  and  C_24
REMARK    8  A    between atoms: C_30  and  C_31
REMARK    9  A    between atoms: C_31  and  N_32
REMARK   10  A    between atoms: N_32  and  C_33
REMARK   11  A    between atoms: N_32  and  C_34
REMARK                            x       y       z     vdW  Elec       q    Type
REMARK                         _______ _______ _______ _____ _____    ______ ____
ROOT
ATOM      1  C   UNL     1       0.093  -1.329  -3.625  0.00  0.00    +0.077 C 
ATOM      2  C   UNL     1      -0.010  -1.194  -4.967  0.00  0.00    +0.249 C 
ATOM      3  C   UNL     1       0.090  -2.524  -5.598  0.00  0.00    +0.288 C 
ATOM      4  O   UNL     1       0.033  -2.734  -6.794  0.00  0.00    -0.266 OA
ATOM      5  N   UNL     1       0.254  -3.470  -4.655  0.00  0.00    -0.285 N 
ATOM      6  C   UNL     1       0.276  -2.803  -3.348  0.00  0.00    +0.145 C 
ATOM      7  O   UNL     1      -0.180  -0.024  -5.627  0.00  0.00    -0.282 OA
ENDROOT
BRANCH   6   8
ATOM      8  C   UNL     1       1.597  -3.042  -2.663  0.00  0.00    -0.022 A 
ATOM      9  C   UNL     1       2.777  -2.892  -3.366  0.00  0.00    +0.006 A 
ATOM     10  C   UNL     1       3.989  -3.111  -2.737  0.00  0.00    +0.000 A 
ATOM     11  C   UNL     1       4.020  -3.480  -1.406  0.00  0.00    +0.000 A 
ATOM     12  C   UNL     1       2.839  -3.629  -0.702  0.00  0.00    +0.000 A 
ATOM     13  C   UNL     1       1.628  -3.406  -1.329  0.00  0.00    +0.006 A 
ENDBRANCH   6   8
BRANCH   1  14
ATOM     14  C   UNL     1       0.045  -0.250  -2.630  0.00  0.00    +0.203 C 
ATOM     15  O   UNL     1       0.923   0.595  -2.604  0.00  0.00    -0.286 OA
BRANCH  14  18
ATOM     16  C   UNL     1      -0.231   1.756  -0.283  0.00  0.00    +0.067 C 
ATOM     17  C   UNL     1      -1.222   0.673  -0.625  0.00  0.00    +0.058 A 
ATOM     18  C   UNL     1      -1.024  -0.191  -1.700  0.00  0.00    +0.083 A 
ATOM     19  S   UNL     1      -2.490  -1.204  -1.581  0.00  0.00    -0.057 S 
ATOM     20  C   UNL     1      -3.179  -0.461  -0.237  0.00  0.00    +0.140 A 
ATOM     21  N   UNL     1      -2.310   0.489   0.073  0.00  0.00    -0.237 NA
BRANCH  20  22
ATOM     22  S   UNL     1      -4.693  -0.859   0.572  0.00  0.00    -0.063 S 
BRANCH  22  23
ATOM     23  C   UNL     1      -4.864   0.395   1.797  0.00  0.00    +0.015 A 
ATOM     24  C   UNL     1      -5.623   1.528   1.532  0.00  0.00    +0.016 A 
ATOM     25  C   UNL     1      -5.756   2.510   2.494  0.00  0.00    +0.021 A 
ATOM     26  C   UNL     1      -5.133   2.366   3.722  0.00  0.00    +0.041 A 
ATOM     27  C   UNL     1      -4.376   1.238   3.989  0.00  0.00    +0.021 A 
ATOM     28  C   UNL     1      -4.245   0.251   3.033  0.00  0.00    +0.016 A 
ATOM     29 CL   UNL     1      -5.301   3.602   4.929  0.00  0.00    -0.084 Cl
ENDBRANCH  22  23
ENDBRANCH  20  22
ENDBRANCH  14  18
ENDBRANCH   1  14
BRANCH   5  30
ATOM     30  C   UNL     1       0.392  -4.909  -4.892  0.00  0.00    +0.090 C 
BRANCH  30  31
ATOM     31  C   UNL     1       1.871  -5.257  -5.069  0.00  0.00    -0.060 C 
BRANCH  31  32
ATOM     32  N   UNL     1       2.010  -6.700  -5.306  0.00  0.00    +0.377 N 
ATOM     33  C   UNL     1       1.373  -7.050  -6.583  0.00  0.00    -0.097 C 
ATOM     34  C   UNL     1       3.435  -7.053  -5.357  0.00  0.00    -0.097 C 
ATOM     35  H   UNL     1       1.564  -7.208  -4.557  0.00  0.00    -0.083 HD
ENDBRANCH  31  32
ENDBRANCH  30  31
ENDBRANCH   5  30
TORSDOF 8
