REMARK  Name = ZINC66599629
REMARK  6 active torsions:
REMARK  status: ('A' for Active; 'I' for Inactive)
REMARK    1  A    between atoms: C_1  and  C_2
REMARK    2  A    between atoms: C_2  and  N_3
REMARK    3  A    between atoms: C_4  and  C_6
REMARK    4  A    between atoms: N_14  and  C_15
REMARK    5  A    between atoms: C_15  and  C_16
REMARK    6  A    between atoms: C_16  and  C_21
REMARK                            x       y       z     vdW  Elec       q    Type
REMARK                         _______ _______ _______ _____ _____    ______ ____
ROOT
ATOM      1  C   UNL     1       1.585  -2.310   2.614  0.00  0.00    +0.078 C 
ATOM      2  C   UNL     1       3.020  -1.778   2.609  0.00  0.00    +0.032 C 
ATOM      3  C   UNL     1       3.745  -2.262   3.869  0.00  0.00    +0.110 C 
ATOM      4  N   UNL     1       3.644  -3.727   3.938  0.00  0.00    -0.286 N 
ATOM      5  C   UNL     1       2.315  -4.348   3.860  0.00  0.00    +0.110 C 
ATOM      6  C   UNL     1       1.607  -3.840   2.600  0.00  0.00    +0.032 C 
ATOM      7  C   UNL     1       4.750  -4.485   4.071  0.00  0.00    +0.302 C 
ATOM      8  O   UNL     1       5.850  -3.968   4.039  0.00  0.00    -0.253 OA
ATOM      9  N   UNL     1       4.637  -5.818   4.239  0.00  0.00    -0.299 N 
ATOM     10  H   UNL     1       3.765  -6.240   4.193  0.00  0.00    +0.150 HD
ENDROOT
BRANCH   1  12
ATOM     11  N   UNL     1       0.716  -0.482   1.192  0.00  0.00    -0.315 N 
ATOM     12  C   UNL     1       0.859  -1.807   1.393  0.00  0.00    +0.216 C 
ATOM     13  O   UNL     1       0.404  -2.594   0.591  0.00  0.00    -0.276 OA
ATOM     14  H   UNL     1       1.081   0.148   1.833  0.00  0.00    +0.149 HD
BRANCH  11  16
ATOM     15  C   UNL     1      -0.011   1.537   0.018  0.00  0.00    +0.024 C 
ATOM     16  C   UNL     1       0.011   0.007   0.004  0.00  0.00    +0.101 C 
ENDBRANCH  11  16
ENDBRANCH   1  12
BRANCH   9  17
ATOM     17  C   UNL     1       5.831  -6.628   4.493  0.00  0.00    +0.112 C 
BRANCH  17  18
ATOM     18  C   UNL     1       5.428  -8.096   4.645  0.00  0.00    -0.016 C 
ATOM     19  C   UNL     1       4.503  -8.266   5.868  0.00  0.00    +0.008 C 
ATOM     20  C   UNL     1       4.925  -9.627   6.477  0.00  0.00    +0.001 C 
ATOM     21  C   UNL     1       6.462  -9.624   6.288  0.00  0.00    +0.001 C 
ATOM     22  C   UNL     1       6.673  -8.960   4.912  0.00  0.00    +0.008 C 
ATOM     23  C   UNL     1       4.717  -8.578   3.379  0.00  0.00    +0.013 C 
ENDBRANCH  17  18
ENDBRANCH   9  17
TORSDOF 4
