REMARK  Name = ZINC02782235
REMARK  6 active torsions:
REMARK  status: ('A' for Active; 'I' for Inactive)
REMARK    1  A    between atoms: C_1  and  C_2
REMARK    2  A    between atoms: C_2  and  C_4
REMARK    3  A    between atoms: C_2  and  N_19
REMARK    4  A    between atoms: N_6  and  N_7
REMARK    5  A    between atoms: C_20  and  C_28
REMARK    6  A    between atoms: C_22  and  C_24
REMARK                            x       y       z     vdW  Elec       q    Type
REMARK                         _______ _______ _______ _____ _____    ______ ____
ROOT
ATOM      1  C   UNL     1       0.731  -0.503   1.223  0.00  0.00    +0.257 C 
ATOM      2  O   UNL     1       0.159  -1.213   2.023  0.00  0.00    -0.272 OA
ATOM      3  N   UNL     1       2.019  -0.161   1.426  0.00  0.00    -0.205 N 
ATOM      4  H   UNL     1       2.476   0.406   0.786  0.00  0.00    +0.177 HD
ENDROOT
BRANCH   3   5
ATOM      5  N   UNL     1       2.696  -0.625   2.561  0.00  0.00    -0.174 NA
ATOM      6  C   UNL     1       3.949  -0.293   2.758  0.00  0.00    +0.152 C 
ATOM      7  C   UNL     1       4.821  -0.690   3.888  0.00  0.00    +0.028 A 
ATOM      8  C   UNL     1       4.618  -1.478   5.016  0.00  0.00    +0.013 A 
ATOM      9  C   UNL     1       5.649  -1.669   5.912  0.00  0.00    +0.016 A 
ATOM     10  C   UNL     1       6.882  -1.078   5.688  0.00  0.00    +0.020 A 
ATOM     11  C   UNL     1       7.093  -0.293   4.571  0.00  0.00    +0.039 A 
ATOM     12  C   UNL     1       6.065  -0.090   3.657  0.00  0.00    +0.044 A 
ATOM     13  N   UNL     1       6.012   0.639   2.474  0.00  0.00    -0.280 N 
ATOM     14  C   UNL     1       4.801   0.555   1.899  0.00  0.00    +0.269 C 
ATOM     15  O   UNL     1       4.464   1.085   0.857  0.00  0.00    -0.268 OA
ATOM     16 BR   UNL     1       8.289  -1.346   6.923  0.00  0.00    -0.050 Br
ATOM     17  H   UNL     1       6.757   1.142   2.109  0.00  0.00    +0.155 HD
ENDBRANCH   3   5
BRANCH   1  19
ATOM     18  C   UNL     1      -0.019   1.526   0.010  0.00  0.00    +0.042 C 
ATOM     19  C   UNL     1       0.002  -0.004   0.002  0.00  0.00    +0.191 C 
BRANCH  19  20
ATOM     20  N   UNL     1      -1.372  -0.511   0.012  0.00  0.00    -0.256 N 
ATOM     21  C   UNL     1      -1.936  -1.297  -0.929  0.00  0.00    +0.044 A 
ATOM     22  C   UNL     1      -3.212  -1.543  -0.551  0.00  0.00    +0.057 A 
ATOM     23  C   UNL     1      -3.436  -0.884   0.662  0.00  0.00    +0.165 A 
ATOM     24  N   UNL     1      -2.332  -0.271   1.004  0.00  0.00    -0.166 NA
BRANCH  23  25
ATOM     25  C   UNL     1      -4.724  -0.887   1.444  0.00  0.00    +0.436 C 
ATOM     26  F   UNL     1      -4.722  -1.960   2.342  0.00  0.00    -0.164 F 
ATOM     27  F   UNL     1      -4.842   0.313   2.153  0.00  0.00    -0.164 F 
ATOM     28  F   UNL     1      -5.803  -1.018   0.565  0.00  0.00    -0.164 F 
ENDBRANCH  23  25
BRANCH  21  29
ATOM     29  C   UNL     1      -1.264  -1.809  -2.177  0.00  0.00    +0.037 C 
ATOM     30  C   UNL     1      -2.130  -1.973  -3.428  0.00  0.00    +0.010 C 
ATOM     31  C   UNL     1      -1.649  -3.208  -2.663  0.00  0.00    +0.010 C 
ENDBRANCH  21  29
ENDBRANCH  19  20
ENDBRANCH   1  19
TORSDOF 5
