REMARK  Name = ZINC18525114
REMARK  9 active torsions:
REMARK  status: ('A' for Active; 'I' for Inactive)
REMARK    1  A    between atoms: C_1  and  C_2
REMARK    2  A    between atoms: C_3  and  C_7
REMARK    3  A    between atoms: C_10  and  S_13
REMARK    4  A    between atoms: N_11  and  N_12
REMARK    5  A    between atoms: S_13  and  C_14
REMARK    6  A    between atoms: C_14  and  C_15
REMARK    7  A    between atoms: N_17  and  C_18
REMARK    8  A    between atoms: C_21  and  S_24
REMARK    9  A    between atoms: S_24  and  N_27
REMARK                            x       y       z     vdW  Elec       q    Type
REMARK                         _______ _______ _______ _____ _____    ______ ____
ROOT
ATOM      1  C   UNL     1       0.428   0.076   2.486  0.00  0.00    +0.227 C 
ATOM      2  O   UNL     1       0.457  -0.589   3.500  0.00  0.00    -0.275 OA
ATOM      3  N   UNL     1      -0.242   1.246   2.466  0.00  0.00    -0.285 N 
ATOM      4  H   UNL     1      -0.209   1.810   1.677  0.00  0.00    +0.155 HD
ENDROOT
BRANCH   3   5
ATOM      5  C   UNL     1      -0.983   1.647   3.583  0.00  0.00    +0.034 A 
ATOM      6  C   UNL     1      -2.168   2.352   3.415  0.00  0.00    +0.025 A 
ATOM      7  C   UNL     1      -2.901   2.740   4.519  0.00  0.00    +0.030 A 
ATOM      8  C   UNL     1      -2.449   2.439   5.791  0.00  0.00    +0.106 A 
ATOM      9  C   UNL     1      -1.267   1.743   5.962  0.00  0.00    +0.030 A 
ATOM     10  C   UNL     1      -0.532   1.346   4.861  0.00  0.00    +0.025 A 
BRANCH   8  11
ATOM     11  S   UNL     1      -3.383   2.944   7.198  0.00  0.00    +0.061 S 
ATOM     12  O   UNL     1      -4.725   3.103   6.758  0.00  0.00    -0.153 OA
ATOM     13  O   UNL     1      -3.027   2.067   8.257  0.00  0.00    -0.153 OA
BRANCH  11  14
ATOM     14  N   UNL     1      -2.845   4.449   7.628  0.00  0.00    -0.177 NA
ATOM     15  C   UNL     1      -1.758   4.552   8.577  0.00  0.00    +0.109 C 
ATOM     16  C   UNL     1      -2.318   4.597  10.014  0.00  0.00    +0.017 C 
ATOM     17  C   UNL     1      -2.981   5.886  10.264  0.00  0.00    +0.001 C 
ATOM     18  C   UNL     1      -4.193   6.151   9.376  0.00  0.00    +0.001 C 
ATOM     19  C   UNL     1      -3.734   6.747   8.068  0.00  0.00    +0.017 C 
ATOM     20  C   UNL     1      -3.498   5.632   7.033  0.00  0.00    +0.109 C 
ENDBRANCH  11  14
ENDBRANCH   8  11
ENDBRANCH   3   5
BRANCH   1  21
ATOM     21  C   UNL     1       1.140  -0.405   1.248  0.00  0.00    +0.173 C 
BRANCH  21  22
ATOM     22  S   UNL     1       1.938  -1.993   1.591  0.00  0.00    -0.075 S 
BRANCH  22  26
ATOM     23  C   UNL     1       3.776  -3.218  -1.632  0.00  0.00    +0.185 A 
ATOM     24  N   UNL     1       3.251  -2.077  -2.014  0.00  0.00    -0.127 NA
ATOM     25  N   UNL     1       2.602  -1.545  -1.042  0.00  0.00    -0.121 NA
ATOM     26  C   UNL     1       2.673  -2.312   0.022  0.00  0.00    +0.209 A 
ATOM     27  N   UNL     1       3.428  -3.401  -0.315  0.00  0.00    -0.224 N 
BRANCH  23  30
ATOM     28  C   UNL     1       4.569  -2.794  -4.636  0.00  0.00    +0.087 C 
ATOM     29  C   UNL     1       4.947  -3.963  -3.764  0.00  0.00    +0.112 A 
ATOM     30  C   UNL     1       4.594  -4.130  -2.461  0.00  0.00    +0.061 A 
ATOM     31  C   UNL     1       5.188  -5.409  -2.049  0.00  0.00    +0.053 A 
ATOM     32  C   UNL     1       5.837  -5.880  -3.126  0.00  0.00    +0.196 A 
ATOM     33  O   UNL     1       5.691  -5.013  -4.139  0.00  0.00    -0.467 OA
ENDBRANCH  23  30
BRANCH  27  34
ATOM     34  N   UNL     1       3.762  -4.454   0.489  0.00  0.00    -0.295 N 
ATOM     35  H   UNL     1       3.072  -5.188   0.430  0.00  0.00    +0.163 HD
ATOM     36  H   UNL     1       4.682  -4.803   0.264  0.00  0.00    +0.163 HD
ENDBRANCH  27  34
ENDBRANCH  22  26
ENDBRANCH  21  22
ENDBRANCH   1  21
TORSDOF 8
