REMARK  Name = ZINC44253585
REMARK  7 active torsions:
REMARK  status: ('A' for Active; 'I' for Inactive)
REMARK    1  A    between atoms: C_3  and  S_17
REMARK    2  A    between atoms: C_4  and  C_10
REMARK    3  A    between atoms: C_6  and  N_7
REMARK    4  A    between atoms: C_10  and  C_12
REMARK    5  A    between atoms: C_10  and  N_16
REMARK    6  A    between atoms: C_12  and  C_13
REMARK    7  A    between atoms: S_17  and  C_18
REMARK                            x       y       z     vdW  Elec       q    Type
REMARK                         _______ _______ _______ _____ _____    ______ ____
ROOT
ATOM      1  C   UNL     1       0.041   1.453   0.740  0.00  0.00    +0.034 A 
ATOM      2  C   UNL     1       1.215   2.139   0.495  0.00  0.00    +0.017 A 
ATOM      3  C   UNL     1       2.397   1.438   0.290  0.00  0.00    +0.010 A 
ATOM      4  C   UNL     1       2.394   0.048   0.332  0.00  0.00    -0.046 A 
ATOM      5  C   UNL     1       1.217  -0.630   0.577  0.00  0.00    +0.035 A 
ATOM      6  C   UNL     1       0.042   0.071   0.781  0.00  0.00    +0.126 A 
ENDROOT
BRANCH   6   7
ATOM      7  N   UNL     1      -1.218  -0.661   1.044  0.00  0.00    +0.056 N 
ATOM      8  O   UNL     1      -2.246  -0.050   1.222  0.00  0.00    -0.126 OA
ATOM      9  O   UNL     1      -1.219  -1.869   1.080  0.00  0.00    -0.126 OA
ENDBRANCH   6   7
BRANCH   4  10
ATOM     10  C   UNL     1       3.673  -0.716   0.110  0.00  0.00    -0.034 C 
BRANCH  10  11
ATOM     11  N   UNL     1       3.535  -2.072   0.659  0.00  0.00    +0.383 N 
ATOM     12  H   UNL     1       2.775  -2.546   0.196  0.00  0.00    -0.089 HD
ATOM     13  H   UNL     1       4.392  -2.583   0.510  0.00  0.00    -0.089 HD
ATOM     14  H   UNL     1       3.345  -2.016   1.648  0.00  0.00    -0.089 HD
ENDBRANCH  10  11
BRANCH  10  15
ATOM     15  C   UNL     1       3.962  -0.801  -1.391  0.00  0.00    +0.084 C 
BRANCH  15  16
ATOM     16  C   UNL     1       5.302  -1.457  -1.608  0.00  0.00    +0.209 C 
ATOM     17  O   UNL     1       5.960  -1.821  -0.656  0.00  0.00    -0.276 OA
ATOM     18  N   UNL     1       5.768  -1.639  -2.859  0.00  0.00    -0.329 N 
ATOM     19  H   UNL     1       5.242  -1.348  -3.620  0.00  0.00    +0.145 HD
ATOM     20  H   UNL     1       6.630  -2.061  -2.999  0.00  0.00    +0.145 HD
ENDBRANCH  15  16
ENDBRANCH  10  15
ENDBRANCH   4  10
BRANCH   3  21
ATOM     21  S   UNL     1       3.897   2.308  -0.023  0.00  0.00    -0.122 S 
BRANCH  21  22
ATOM     22  C   UNL     1       3.377   4.041  -0.163  0.00  0.00    +0.051 C 
ATOM     23  C   UNL     1       2.584   4.233  -1.457  0.00  0.00    +0.014 C 
ATOM     24  C   UNL     1       2.146   5.694  -1.575  0.00  0.00    +0.001 C 
ATOM     25  C   UNL     1       3.381   6.596  -1.595  0.00  0.00    +0.000 C 
ATOM     26  C   UNL     1       4.175   6.404  -0.301  0.00  0.00    +0.001 C 
ATOM     27  C   UNL     1       4.612   4.943  -0.183  0.00  0.00    +0.014 C 
ENDBRANCH  21  22
ENDBRANCH   3  21
TORSDOF 7
