REMARK  Name = ZINC38799921
REMARK  6 active torsions:
REMARK  status: ('A' for Active; 'I' for Inactive)
REMARK    1  A    between atoms: C_2  and  C_3
REMARK    2  A    between atoms: C_3  and  N_4
REMARK    3  A    between atoms: C_5  and  C_7
REMARK    4  A    between atoms: N_19  and  N_23
REMARK    5  A    between atoms: C_20  and  N_22
REMARK    6  A    between atoms: C_24  and  C_25
REMARK                            x       y       z     vdW  Elec       q    Type
REMARK                         _______ _______ _______ _____ _____    ______ ____
ROOT
ATOM      1  C   UNL     1      -2.357  -3.600  -2.301  0.00  0.00    +0.131 C 
ATOM      2  C   UNL     1      -2.231  -2.572  -3.404  0.00  0.00    +0.095 A 
ATOM      3  C   UNL     1      -3.303  -2.749  -4.293  0.00  0.00    +0.162 A 
ATOM      4  N   UNL     1      -3.411  -1.957  -5.354  0.00  0.00    -0.227 NA
ATOM      5  C   UNL     1      -2.506  -0.999  -5.572  0.00  0.00    +0.091 A 
ATOM      6  C   UNL     1      -2.604  -0.150  -6.688  0.00  0.00    +0.030 A 
ATOM      7  C   UNL     1      -1.667   0.818  -6.884  0.00  0.00    +0.002 A 
ATOM      8  C   UNL     1      -0.608   0.982  -5.993  0.00  0.00    +0.002 A 
ATOM      9  C   UNL     1      -0.481   0.178  -4.902  0.00  0.00    +0.030 A 
ATOM     10  C   UNL     1      -1.429  -0.832  -4.667  0.00  0.00    +0.090 A 
ATOM     11  N   UNL     1      -1.332  -1.637  -3.603  0.00  0.00    -0.246 NA
ATOM     12  N   UNL     1      -4.128  -3.789  -3.894  0.00  0.00    -0.219 N 
ATOM     13  C   UNL     1      -3.626  -4.394  -2.655  0.00  0.00    +0.058 C 
ENDROOT
BRANCH   1  15
ATOM     14  N   UNL     1      -1.528  -2.144  -0.482  0.00  0.00    -0.311 N 
ATOM     15  C   UNL     1      -2.517  -2.922  -0.965  0.00  0.00    +0.222 C 
ATOM     16  O   UNL     1      -3.535  -3.076  -0.324  0.00  0.00    -0.275 OA
ATOM     17  H   UNL     1      -0.714  -2.020  -0.994  0.00  0.00    +0.149 HD
BRANCH  14  18
ATOM     18  C   UNL     1      -1.684  -1.484   0.817  0.00  0.00    +0.131 C 
BRANCH  18  20
ATOM     19  C   UNL     1      -0.547   0.596   1.401  0.00  0.00    +0.005 C 
ATOM     20  C   UNL     1      -0.446  -0.680   1.123  0.00  0.00    -0.016 C 
ENDBRANCH  18  20
ENDBRANCH  14  18
ENDBRANCH   1  15
BRANCH  13  21
ATOM     21  N   UNL     1      -3.296  -5.808  -2.875  0.00  0.00    +0.392 N 
ATOM     22  H   UNL     1      -2.805  -6.168  -2.070  0.00  0.00    -0.087 HD
ATOM     23  H   UNL     1      -4.145  -6.334  -3.013  0.00  0.00    -0.087 HD
ATOM     24  H   UNL     1      -2.710  -5.894  -3.692  0.00  0.00    -0.087 HD
ENDBRANCH  13  21
BRANCH  12  25
ATOM     25  N   UNL     1      -5.187  -4.171  -4.523  0.00  0.00    -0.188 NA
ATOM     26  C   UNL     1      -5.967  -5.087  -3.998  0.00  0.00    +0.136 C 
BRANCH  26  27
ATOM     27  C   UNL     1      -7.053  -5.582  -4.727  0.00  0.00    +0.000 C 
ATOM     28  C   UNL     1      -7.975  -6.546  -4.316  0.00  0.00    +0.004 A 
ATOM     29  C   UNL     1      -8.114  -7.287  -3.124  0.00  0.00    +0.010 A 
ATOM     30  C   UNL     1      -9.131  -8.177  -2.998  0.00  0.00    +0.001 A 
ATOM     31  C   UNL     1     -10.054  -8.383  -4.026  0.00  0.00    +0.002 A 
ATOM     32  C   UNL     1      -9.982  -7.707  -5.198  0.00  0.00    +0.026 A 
ATOM     33  C   UNL     1      -8.946  -6.759  -5.403  0.00  0.00    +0.043 A 
ATOM     34  N   UNL     1      -8.662  -5.986  -6.433  0.00  0.00    -0.380 N 
ATOM     35  C   UNL     1      -7.477  -5.181  -6.122  0.00  0.00    +0.150 C 
ATOM     36  H   UNL     1      -9.162  -5.952  -7.263  0.00  0.00    +0.160 HD
ENDBRANCH  26  27
ENDBRANCH  12  25
TORSDOF 6
