REMARK  Name = ZINC38547609
REMARK  9 active torsions:
REMARK  status: ('A' for Active; 'I' for Inactive)
REMARK    1  A    between atoms: C_1  and  C_2
REMARK    2  A    between atoms: C_6  and  N_8
REMARK    3  A    between atoms: N_8  and  C_9
REMARK    4  A    between atoms: C_9  and  C_11
REMARK    5  A    between atoms: C_9  and  C_17
REMARK    6  A    between atoms: C_18  and  C_31
REMARK    7  A    between atoms: C_19  and  C_30
REMARK    8  A    between atoms: C_21  and  N_22
REMARK    9  A    between atoms: C_23  and  C_25
REMARK                            x       y       z     vdW  Elec       q    Type
REMARK                         _______ _______ _______ _____ _____    ______ ____
ROOT
ATOM      1  C   UNL     1       0.106  -4.061   2.459  0.00  0.00    +0.153 C 
ENDROOT
BRANCH   1   2
ATOM      2  C   UNL     1       0.806  -4.532   3.707  0.00  0.00    +0.010 A 
ATOM      3  C   UNL     1       1.813  -5.478   3.635  0.00  0.00    -0.033 A 
ATOM      4  C   UNL     1       2.423  -5.880   4.776  0.00  0.00    -0.008 A 
ATOM      5  S   UNL     1       1.573  -4.912   6.013  0.00  0.00    -0.078 S 
ATOM      6  C   UNL     1       0.464  -4.031   4.927  0.00  0.00    +0.078 A 
ATOM      7  C   UNL     1       3.531  -6.884   4.955  0.00  0.00    +0.052 C 
ATOM      8  C   UNL     1       2.226  -6.054   2.304  0.00  0.00    +0.045 C 
BRANCH   6   9
ATOM      9  N   UNL     1      -0.505  -3.077   5.245  0.00  0.00    -0.273 N 
ATOM     10  C   UNL     1      -0.609  -2.617   6.508  0.00  0.00    +0.284 C 
ATOM     11  O   UNL     1       0.142  -3.033   7.371  0.00  0.00    -0.266 OA
ATOM     12  H   UNL     1      -1.103  -2.745   4.557  0.00  0.00    +0.156 HD
BRANCH  10  13
ATOM     13  C   UNL     1      -1.626  -1.615   6.842  0.00  0.00    +0.189 A 
ATOM     14  C   UNL     1      -1.835  -1.064   8.073  0.00  0.00    +0.054 A 
ATOM     15  C   UNL     1      -2.899  -0.159   7.935  0.00  0.00    +0.042 A 
ATOM     16  C   UNL     1      -3.289  -0.198   6.642  0.00  0.00    +0.196 A 
ATOM     17  O   UNL     1      -2.516  -1.073   5.985  0.00  0.00    -0.458 OA
ENDBRANCH  10  13
ENDBRANCH   6   9
ENDBRANCH   1   2
BRANCH   1  18
ATOM     18  C   UNL     1      -1.286  -4.638   2.416  0.00  0.00    +0.066 A 
ATOM     19  C   UNL     1      -2.372  -3.794   2.280  0.00  0.00    +0.025 A 
ATOM     20  C   UNL     1      -3.647  -4.335   2.241  0.00  0.00    +0.003 A 
ATOM     21  C   UNL     1      -3.784  -5.712   2.340  0.00  0.00    +0.020 A 
ATOM     22  C   UNL     1      -2.651  -6.492   2.474  0.00  0.00    +0.111 A 
ATOM     23  N   UNL     1      -1.453  -5.943   2.502  0.00  0.00    -0.258 NA
ENDBRANCH   1  18
BRANCH   1  24
ATOM     24  N   UNL     1       0.027  -2.598   2.466  0.00  0.00    -0.318 N 
ATOM     25  H   UNL     1       0.009  -2.117   3.309  0.00  0.00    +0.148 HD
BRANCH  24  31
ATOM     26  C   UNL     1      -0.220   1.629   0.232  0.00  0.00    +0.063 C 
ATOM     27  C   UNL     1      -0.140   0.125   0.163  0.00  0.00    +0.014 A 
ATOM     28  C   UNL     1      -0.117  -0.500  -1.068  0.00  0.00    +0.021 A 
ATOM     29  C   UNL     1      -0.043  -1.885  -1.125  0.00  0.00    +0.005 A 
ATOM     30  C   UNL     1       0.006  -2.594   0.062  0.00  0.00    +0.041 A 
ATOM     31  C   UNL     1      -0.021  -1.898   1.266  0.00  0.00    +0.097 A 
ATOM     32  N   UNL     1      -0.087  -0.576   1.279  0.00  0.00    -0.347 N 
ATOM     33  H   UNL     1      -0.100  -0.111   2.131  0.00  0.00    +0.167 HD
ENDBRANCH  24  31
ENDBRANCH   1  24
TORSDOF 6
