REMARK  Name = ZINC31557767
REMARK  8 active torsions:
REMARK  status: ('A' for Active; 'I' for Inactive)
REMARK    1  A    between atoms: C_3  and  C_6
REMARK    2  A    between atoms: C_6  and  N_7
REMARK    3  A    between atoms: C_8  and  C_10
REMARK    4  A    between atoms: N_15  and  C_16
REMARK    5  A    between atoms: C_16  and  C_17
REMARK    6  A    between atoms: C_17  and  C_18
REMARK    7  A    between atoms: N_20  and  C_21
REMARK    8  A    between atoms: C_22  and  C_31
REMARK                            x       y       z     vdW  Elec       q    Type
REMARK                         _______ _______ _______ _____ _____    ______ ____
ROOT
ATOM      1  C   UNL     1       7.948   1.697   3.681  0.00  0.00    -0.069 C 
ENDROOT
BRANCH   1   6
ATOM      2  C   UNL     1       5.944   0.555   2.996  0.00  0.00    +0.019 C 
ATOM      3  C   UNL     1       5.449  -0.715   3.718  0.00  0.00    -0.008 C 
ATOM      4  C   UNL     1       6.651  -1.686   3.581  0.00  0.00    -0.020 C 
ATOM      5  C   UNL     1       7.852  -0.715   3.697  0.00  0.00    -0.078 C 
ATOM      6  N   UNL     1       7.418   0.513   2.992  0.00  0.00    +0.388 N 
ATOM      7  H   UNL     1       7.754   0.497   2.041  0.00  0.00    -0.081 HD
BRANCH   2   9
ATOM      8  N   UNL     1       4.101   0.607   1.347  0.00  0.00    -0.310 N 
ATOM      9  C   UNL     1       5.428   0.575   1.580  0.00  0.00    +0.200 C 
ATOM     10  O   UNL     1       6.207   0.561   0.650  0.00  0.00    -0.278 OA
ATOM     11  H   UNL     1       3.478   0.617   2.090  0.00  0.00    +0.149 HD
BRANCH   8  12
ATOM     12  C   UNL     1       3.599   0.625  -0.029  0.00  0.00    +0.178 C 
BRANCH  12  15
ATOM     13  C   UNL     1      -0.016   1.341   0.009  0.00  0.00    +0.041 A 
ATOM     14  C   UNL     1       1.331   1.769  -0.001  0.00  0.00    +0.046 A 
ATOM     15  C   UNL     1       2.092   0.660  -0.014  0.00  0.00    +0.122 A 
ATOM     16  O   UNL     1       1.282  -0.411  -0.012  0.00  0.00    -0.466 OA
ATOM     17  C   UNL     1       0.002  -0.004   0.002  0.00  0.00    +0.195 A 
ENDBRANCH  12  15
ENDBRANCH   8  12
ENDBRANCH   2   9
ENDBRANCH   1   6
BRANCH   1  18
ATOM     18  C   UNL     1       9.474   1.713   3.567  0.00  0.00    +0.078 C 
BRANCH  18  19
ATOM     19  C   UNL     1      10.018   2.928   4.274  0.00  0.00    +0.216 C 
ATOM     20  O   UNL     1       9.260   3.704   4.817  0.00  0.00    -0.276 OA
ATOM     21  N   UNL     1      11.347   3.151   4.304  0.00  0.00    -0.279 N 
ATOM     22  H   UNL     1      11.953   2.530   3.870  0.00  0.00    +0.155 HD
BRANCH  21  23
ATOM     23  C   UNL     1      11.848   4.269   4.956  0.00  0.00    +0.090 A 
ATOM     24  C   UNL     1      13.169   4.660   5.082  0.00  0.00    +0.084 A 
ATOM     25  C   UNL     1      13.438   5.885   5.821  0.00  0.00    -0.018 A 
ATOM     26  C   UNL     1      12.330   6.489   6.301  0.00  0.00    -0.004 A 
ATOM     27  S   UNL     1      10.989   5.464   5.765  0.00  0.00    -0.077 S 
ATOM     28  C   UNL     1      12.252   7.744   7.113  0.00  0.00    +0.043 C 
ATOM     29  C   UNL     1      13.101   8.831   6.442  0.00  0.00    +0.005 C 
ATOM     30  C   UNL     1      14.525   8.740   6.983  0.00  0.00    +0.001 C 
ATOM     31  C   UNL     1      14.879   7.287   7.294  0.00  0.00    +0.005 C 
ATOM     32  C   UNL     1      14.839   6.444   6.024  0.00  0.00    +0.037 C 
BRANCH  24  33
ATOM     33  C   UNL     1      14.230   3.888   4.510  0.00  0.00    +0.102 C 
ATOM     34  N   UNL     1      15.072   3.276   4.055  0.00  0.00    -0.191 NA
ENDBRANCH  24  33
ENDBRANCH  21  23
ENDBRANCH  18  19
ENDBRANCH   1  18
TORSDOF 8
