REMARK  Name = ZINC43573537
REMARK  3 active torsions:
REMARK  status: ('A' for Active; 'I' for Inactive)
REMARK    1  A    between atoms: C_3  and  N_21
REMARK    2  A    between atoms: C_6  and  N_7
REMARK    3  A    between atoms: N_10  and  C_11
REMARK                            x       y       z     vdW  Elec       q    Type
REMARK                         _______ _______ _______ _____ _____    ______ ____
ROOT
ATOM      1  N   UNL     1      -1.202  -0.721   0.010  0.00  0.00    -0.269 N 
ATOM      2  C   UNL     1      -1.007  -2.051   0.112  0.00  0.00    +0.304 C 
ATOM      3  O   UNL     1       0.117  -2.491   0.262  0.00  0.00    -0.252 OA
ATOM      4  N   UNL     1      -2.057  -2.893   0.047  0.00  0.00    -0.294 N 
ATOM      5  H   UNL     1      -2.103  -0.364  -0.030  0.00  0.00    +0.156 HD
ATOM      6  H   UNL     1      -2.954  -2.541  -0.073  0.00  0.00    +0.151 HD
ENDROOT
BRANCH   4   7
ATOM      7  C   UNL     1      -1.846  -4.338   0.158  0.00  0.00    +0.037 C 
ATOM      8  C   UNL     1      -0.926  -4.807  -0.971  0.00  0.00    +0.029 C 
ATOM      9  C   UNL     1      -0.705  -6.316  -0.855  0.00  0.00    -0.008 C 
ATOM     10  C   UNL     1      -2.050  -7.038  -0.960  0.00  0.00    +0.007 C 
ATOM     11  C   UNL     1      -2.970  -6.569   0.170  0.00  0.00    -0.008 C 
ATOM     12  C   UNL     1      -3.191  -5.060   0.054  0.00  0.00    +0.029 C 
ATOM     13  C   UNL     1      -2.323  -6.888   1.519  0.00  0.00    +0.007 C 
ATOM     14  C   UNL     1      -0.978  -6.166   1.623  0.00  0.00    -0.008 C 
ATOM     15  C   UNL     1      -0.059  -6.635   0.494  0.00  0.00    +0.007 C 
ATOM     16  C   UNL     1      -1.199  -4.657   1.508  0.00  0.00    +0.029 C 
ENDBRANCH   4   7
BRANCH   1  22
ATOM     17  C   UNL     1       1.065  -0.248  -0.678  0.00  0.00    +0.025 A 
ATOM     18  C   UNL     1       2.148   0.607  -0.726  0.00  0.00    +0.025 A 
ATOM     19  C   UNL     1       2.070   1.861  -0.135  0.00  0.00    +0.036 A 
ATOM     20  C   UNL     1       0.902   2.255   0.505  0.00  0.00    +0.025 A 
ATOM     21  C   UNL     1      -0.181   1.400   0.553  0.00  0.00    +0.025 A 
ATOM     22  C   UNL     1      -0.102   0.146  -0.038  0.00  0.00    +0.035 A 
BRANCH  19  23
ATOM     23  N   UNL     1       3.169   2.728  -0.183  0.00  0.00    -0.271 N 
ATOM     24  C   UNL     1       3.157   4.109   0.313  0.00  0.00    +0.114 C 
ATOM     25  C   UNL     1       4.642   4.509   0.456  0.00  0.00    +0.029 C 
ATOM     26  C   UNL     1       5.321   3.573  -0.570  0.00  0.00    +0.098 C 
ATOM     27  C   UNL     1       4.372   2.400  -0.685  0.00  0.00    +0.220 C 
ATOM     28  O   UNL     1       4.656   1.322  -1.162  0.00  0.00    -0.275 OA
ENDBRANCH  19  23
ENDBRANCH   1  22
TORSDOF 3
