REMARK  Name = ZINC33810268
REMARK  6 active torsions:
REMARK  status: ('A' for Active; 'I' for Inactive)
REMARK    1  A    between atoms: C_1  and  C_2
REMARK    2  A    between atoms: C_5  and  C_8
REMARK    3  A    between atoms: C_8  and  S_9
REMARK    4  A    between atoms: S_9  and  C_10
REMARK    5  A    between atoms: C_17  and  C_27
REMARK    6  A    between atoms: C_31  and  C_33
REMARK                            x       y       z     vdW  Elec       q    Type
REMARK                         _______ _______ _______ _____ _____    ______ ____
ROOT
ATOM      1  C   UNL     1      -2.132   6.852   3.787  0.00  0.00    +0.171 A 
ATOM      2  N   UNL     1      -1.664   5.574   3.720  0.00  0.00    -0.208 NA
ATOM      3  C   UNL     1      -1.277   5.048   2.516  0.00  0.00    +0.135 A 
ATOM      4  C   UNL     1      -1.360   5.814   1.395  0.00  0.00    +0.069 A 
ATOM      5  C   UNL     1      -1.853   7.132   1.507  0.00  0.00    +0.258 A 
ATOM      6  O   UNL     1      -1.944   7.841   0.515  0.00  0.00    -0.267 OA
ATOM      7  N   UNL     1      -2.222   7.602   2.708  0.00  0.00    -0.302 N 
ATOM      8  C   UNL     1      -0.936   5.277   0.060  0.00  0.00    +0.092 C 
ATOM      9  C   UNL     1      -0.862   3.771   0.076  0.00  0.00    +0.024 C 
ATOM     10  C   UNL     1      -0.806   3.091   1.240  0.00  0.00    +0.017 C 
ATOM     11  N   UNL     1      -0.813   3.755   2.437  0.00  0.00    -0.302 N 
ATOM     12  C   UNL     1      -0.737   1.583   1.261  0.00  0.00    +0.051 C 
ATOM     13  C   UNL     1      -0.013   1.086   0.008  0.00  0.00    +0.014 C 
ATOM     14  C   UNL     1      -0.762   1.597  -1.227  0.00  0.00    +0.080 C 
ATOM     15  C   UNL     1      -0.853   3.097  -1.158  0.00  0.00    +0.162 C 
ATOM     16  O   UNL     1      -0.918   3.738  -2.188  0.00  0.00    -0.292 OA
ATOM     17  H   UNL     1      -0.443   3.247   3.340  0.00  0.00    +0.153 HD
ATOM     18  H   UNL     1      -2.604   8.631   2.784  0.00  0.00    +0.171 HD
ENDROOT
BRANCH   8  19
ATOM     19  C   UNL     1       0.420   5.834  -0.288  0.00  0.00    -0.035 A 
ATOM     20  C   UNL     1       1.509   5.557   0.517  0.00  0.00    +0.004 A 
ATOM     21  C   UNL     1       2.752   6.068   0.198  0.00  0.00    +0.001 A 
ATOM     22  C   UNL     1       2.908   6.857  -0.927  0.00  0.00    +0.003 A 
ATOM     23  C   UNL     1       1.819   7.134  -1.732  0.00  0.00    -0.050 A 
ATOM     24  C   UNL     1       0.576   6.619  -1.415  0.00  0.00    +0.008 A 
ATOM     25  C   UNL     1       1.988   7.994  -2.958  0.00  0.00    +0.044 C 
ENDBRANCH   8  19
BRANCH   1  26
ATOM     26  S   UNL     1      -2.626   7.513   5.344  0.00  0.00    -0.083 S 
BRANCH  26  27
ATOM     27  C   UNL     1      -3.135   9.173   4.834  0.00  0.00    +0.112 C 
BRANCH  27  32
ATOM     28  C   UNL     1      -4.957  12.133   9.451  0.00  0.00    +0.044 C 
ATOM     29  C   UNL     1      -4.482  11.361   8.247  0.00  0.00    -0.050 A 
ATOM     30  C   UNL     1      -3.150  11.405   7.880  0.00  0.00    +0.003 A 
ATOM     31  C   UNL     1      -2.714  10.697   6.775  0.00  0.00    +0.005 A 
ATOM     32  C   UNL     1      -3.610   9.944   6.038  0.00  0.00    -0.037 A 
ATOM     33  C   UNL     1      -4.943   9.905   6.403  0.00  0.00    +0.005 A 
ATOM     34  C   UNL     1      -5.378  10.609   7.510  0.00  0.00    +0.003 A 
ENDBRANCH  27  32
ENDBRANCH  26  27
ENDBRANCH   1  26
TORSDOF 4
