REMARK  Name = ZINC34757594
REMARK  9 active torsions:
REMARK  status: ('A' for Active; 'I' for Inactive)
REMARK    1  A    between atoms: C_1  and  C_2
REMARK    2  A    between atoms: C_5  and  C_37
REMARK    3  A    between atoms: C_6  and  C_8
REMARK    4  A    between atoms: C_8  and  S_9
REMARK    5  A    between atoms: S_9  and  C_10
REMARK    6  A    between atoms: N_25  and  C_28
REMARK    7  A    between atoms: C_28  and  C_29
REMARK    8  A    between atoms: C_29  and  C_30
REMARK    9  A    between atoms: C_30  and  C_31
REMARK                            x       y       z     vdW  Elec       q    Type
REMARK                         _______ _______ _______ _____ _____    ______ ____
ROOT
ATOM      1  C   UNL     1       1.617  -4.175   4.437  0.00  0.00    +0.191 A 
ATOM      2  N   UNL     1       2.715  -4.533   5.091  0.00  0.00    -0.206 NA
ATOM      3  C   UNL     1       2.671  -5.046   6.310  0.00  0.00    +0.134 A 
ATOM      4  C   UNL     1       1.409  -5.220   6.942  0.00  0.00    +0.051 A 
ATOM      5  C   UNL     1       1.126  -5.765   8.281  0.00  0.00    -0.025 A 
ATOM      6  C   UNL     1      -0.163  -5.827   8.651  0.00  0.00    -0.004 A 
ATOM      7  S   UNL     1      -1.072  -5.172   7.270  0.00  0.00    -0.073 S 
ATOM      8  C   UNL     1       0.290  -4.819   6.193  0.00  0.00    +0.115 A 
ATOM      9  N   UNL     1       0.415  -4.310   4.981  0.00  0.00    -0.215 NA
ATOM     10  C   UNL     1      -0.331  -6.404  10.031  0.00  0.00    +0.043 C 
ATOM     11  C   UNL     1       1.013  -7.104  10.325  0.00  0.00    +0.010 C 
ATOM     12  C   UNL     1       1.982  -6.310   9.428  0.00  0.00    +0.037 C 
ATOM     13  N   UNL     1       3.837  -5.408   6.960  0.00  0.00    -0.318 N 
ATOM     14  C   UNL     1       4.435  -6.737   6.756  0.00  0.00    +0.088 C 
ATOM     15  C   UNL     1       5.918  -6.555   6.417  0.00  0.00    -0.060 C 
ATOM     16  N   UNL     1       6.564  -5.754   7.465  0.00  0.00    +0.382 N 
ATOM     17  C   UNL     1       5.994  -4.401   7.483  0.00  0.00    -0.060 C 
ATOM     18  C   UNL     1       4.518  -4.474   7.870  0.00  0.00    +0.088 C 
ATOM     19  H   UNL     1       6.415  -6.192   8.362  0.00  0.00    -0.082 HD
ENDROOT
BRANCH   1  20
ATOM     20  S   UNL     1       1.759  -3.499   2.816  0.00  0.00    -0.081 S 
BRANCH  20  21
ATOM     21  C   UNL     1       0.044  -3.157   2.331  0.00  0.00    +0.112 C 
BRANCH  21  27
ATOM     22  C   UNL     1       0.161   0.836  -0.683  0.00  0.00    +0.044 C 
ATOM     23  C   UNL     1       0.078  -0.657  -0.498  0.00  0.00    -0.050 A 
ATOM     24  C   UNL     1      -0.019  -1.486  -1.600  0.00  0.00    +0.003 A 
ATOM     25  C   UNL     1      -0.095  -2.856  -1.430  0.00  0.00    +0.004 A 
ATOM     26  C   UNL     1      -0.075  -3.397  -0.158  0.00  0.00    -0.046 A 
ATOM     27  C   UNL     1       0.023  -2.568   0.944  0.00  0.00    -0.034 A 
ATOM     28  C   UNL     1       0.103  -1.198   0.774  0.00  0.00    +0.008 A 
ATOM     29  C   UNL     1      -0.159  -4.890   0.028  0.00  0.00    +0.044 C 
ENDBRANCH  21  27
ENDBRANCH  20  21
ENDBRANCH   1  20
BRANCH  16  30
ATOM     30  C   UNL     1       8.006  -5.673   7.198  0.00  0.00    -0.078 C 
BRANCH  30  31
ATOM     31  C   UNL     1       8.698  -4.946   8.353  0.00  0.00    -0.014 C 
BRANCH  31  32
ATOM     32  C   UNL     1      10.200  -4.861   8.075  0.00  0.00    +0.033 C 
BRANCH  32  33
ATOM     33  C   UNL     1      10.882  -4.144   9.212  0.00  0.00    -0.047 A 
ATOM     34  C   UNL     1      11.027  -2.770   9.176  0.00  0.00    +0.003 A 
ATOM     35  C   UNL     1      11.652  -2.113  10.219  0.00  0.00    +0.000 A 
ATOM     36  C   UNL     1      12.132  -2.830  11.299  0.00  0.00    +0.000 A 
ATOM     37  C   UNL     1      11.987  -4.205  11.336  0.00  0.00    +0.000 A 
ATOM     38  C   UNL     1      11.358  -4.861  10.294  0.00  0.00    +0.003 A 
ENDBRANCH  32  33
ENDBRANCH  31  32
ENDBRANCH  30  31
ENDBRANCH  16  30
TORSDOF 7
