REMARK  Name = ZINC06600072
REMARK  13 active torsions:
REMARK  status: ('A' for Active; 'I' for Inactive)
REMARK    1  A    between atoms: C_1  and  C_2
REMARK    2  A    between atoms: C_2  and  O_3
REMARK    3  A    between atoms: O_3  and  C_4
REMARK    4  A    between atoms: C_4  and  C_5
REMARK    5  A    between atoms: C_5  and  C_6
REMARK    6  A    between atoms: C_6  and  N_7
REMARK    7  A    between atoms: N_7  and  C_8
REMARK    8  A    between atoms: C_8  and  C_10
REMARK    9  A    between atoms: C_8  and  C_18
REMARK   10  A    between atoms: C_13  and  O_16
REMARK   11  A    between atoms: O_16  and  C_17
REMARK   12  A    between atoms: N_20  and  C_21
REMARK   13  A    between atoms: C_27  and  C_29
REMARK                            x       y       z     vdW  Elec       q    Type
REMARK                         _______ _______ _______ _____ _____    ______ ____
ROOT
ATOM      1  N   UNL     1      -4.101  -4.388   0.025  0.00  0.00    -0.283 N 
ATOM      2  C   UNL     1      -3.816  -5.338  -0.888  0.00  0.00    +0.261 C 
ATOM      3  O   UNL     1      -4.274  -6.454  -0.765  0.00  0.00    -0.271 OA
ENDROOT
BRANCH   2   4
ATOM      4  C   UNL     1      -2.928  -5.014  -2.061  0.00  0.00    +0.296 C 
ATOM      5  C   UNL     1      -3.729  -4.242  -3.119  0.00  0.00    +0.283 C 
ATOM      6  O   UNL     1      -2.861  -3.963  -4.223  0.00  0.00    -0.484 OA
ATOM      7  C   UNL     1      -2.094  -4.993  -4.673  0.00  0.00    +0.162 A 
ATOM      8  C   UNL     1      -1.511  -4.909  -5.930  0.00  0.00    +0.049 A 
ATOM      9  C   UNL     1      -0.725  -5.944  -6.399  0.00  0.00    +0.004 A 
ATOM     10  C   UNL     1      -0.516  -7.065  -5.618  0.00  0.00    +0.004 A 
ATOM     11  C   UNL     1      -1.094  -7.156  -4.366  0.00  0.00    +0.049 A 
ATOM     12  C   UNL     1      -1.886  -6.121  -3.889  0.00  0.00    +0.163 A 
ATOM     13  O   UNL     1      -2.451  -6.226  -2.655  0.00  0.00    -0.473 OA
ENDBRANCH   2   4
BRANCH   1  14
ATOM     14  C   UNL     1      -3.539  -3.043  -0.119  0.00  0.00    +0.111 C 
BRANCH  14  15
ATOM     15  C   UNL     1      -2.120  -3.018   0.454  0.00  0.00    +0.047 C 
BRANCH  15  16
ATOM     16  C   UNL     1      -1.605  -1.578   0.477  0.00  0.00    +0.161 C 
BRANCH  16  17
ATOM     17  O   UNL     1      -0.280  -1.555   1.012  0.00  0.00    -0.380 OA
BRANCH  17  19
ATOM     18  C   UNL     1       1.709  -0.345   1.663  0.00  0.00    +0.034 C 
ATOM     19  C   UNL     1       0.298  -0.250   1.077  0.00  0.00    +0.156 C 
ENDBRANCH  17  19
ENDBRANCH  16  17
ENDBRANCH  15  16
ENDBRANCH  14  15
ENDBRANCH   1  14
BRANCH   1  20
ATOM     20  C   UNL     1      -4.972  -4.701   1.161  0.00  0.00    +0.192 C 
BRANCH  20  21
ATOM     21  C   UNL     1      -4.673  -6.093   1.654  0.00  0.00    -0.018 A 
ATOM     22  C   UNL     1      -3.363  -6.493   1.843  0.00  0.00    +0.009 A 
ATOM     23  C   UNL     1      -3.087  -7.767   2.300  0.00  0.00    +0.046 A 
ATOM     24  C   UNL     1      -4.126  -8.649   2.559  0.00  0.00    +0.120 A 
ATOM     25  C   UNL     1      -5.439  -8.248   2.363  0.00  0.00    +0.046 A 
ATOM     26  C   UNL     1      -5.710  -6.971   1.911  0.00  0.00    +0.009 A 
BRANCH  24  27
ATOM     27  O   UNL     1      -3.857  -9.905   3.004  0.00  0.00    -0.495 OA
ATOM     28  C   UNL     1      -2.482 -10.249   3.183  0.00  0.00    +0.277 C 
ENDBRANCH  24  27
ENDBRANCH  20  21
BRANCH  20  29
ATOM     29  C   UNL     1      -4.725  -3.712   2.270  0.00  0.00    +0.238 C 
ATOM     30  O   UNL     1      -3.957  -2.789   2.100  0.00  0.00    -0.273 OA
ATOM     31  N   UNL     1      -5.359  -3.852   3.451  0.00  0.00    -0.311 N 
ATOM     32  H   UNL     1      -5.974  -4.590   3.587  0.00  0.00    +0.149 HD
BRANCH  31  33
ATOM     33  C   UNL     1      -5.120  -2.890   4.530  0.00  0.00    +0.073 C 
ATOM     34  C   UNL     1      -3.874  -3.305   5.316  0.00  0.00    +0.022 C 
ATOM     35  C   UNL     1      -3.624  -2.300   6.442  0.00  0.00    +0.002 C 
ATOM     36  C   UNL     1      -4.832  -2.274   7.380  0.00  0.00    +0.000 C 
ATOM     37  C   UNL     1      -6.078  -1.859   6.594  0.00  0.00    +0.002 C 
ATOM     38  C   UNL     1      -6.328  -2.864   5.467  0.00  0.00    +0.022 C 
ENDBRANCH  31  33
ENDBRANCH  20  29
ENDBRANCH   1  20
TORSDOF 11
