REMARK  Name = ZINC09223979
REMARK  4 active torsions:
REMARK  status: ('A' for Active; 'I' for Inactive)
REMARK    1  A    between atoms: C_6  and  N_7
REMARK    2  A    between atoms: C_8  and  C_10
REMARK    3  A    between atoms: C_10  and  S_11
REMARK    4  A    between atoms: S_11  and  C_12
REMARK                            x       y       z     vdW  Elec       q    Type
REMARK                         _______ _______ _______ _____ _____    ______ ____
ROOT
ATOM      1  N   UNL     1       5.669  -0.166   4.071  0.00  0.00    -0.284 N 
ATOM      2  C   UNL     1       4.625   0.047   3.246  0.00  0.00    +0.227 C 
ATOM      3  O   UNL     1       4.724  -0.209   2.064  0.00  0.00    -0.275 OA
ATOM      4  H   UNL     1       5.618   0.113   4.999  0.00  0.00    +0.155 HD
ENDROOT
BRANCH   1  10
ATOM      5  C   UNL     1       6.755  -1.629   2.489  0.00  0.00    +0.052 A 
ATOM      6  C   UNL     1       7.903  -2.244   2.014  0.00  0.00    +0.069 A 
ATOM      7  C   UNL     1       9.127  -2.016   2.645  0.00  0.00    +0.068 A 
ATOM      8  C   UNL     1       9.194  -1.174   3.746  0.00  0.00    +0.045 A 
ATOM      9  C   UNL     1       8.050  -0.559   4.213  0.00  0.00    +0.041 A 
ATOM     10  C   UNL     1       6.827  -0.789   3.589  0.00  0.00    +0.050 A 
ATOM     11 BR   UNL     1       8.143   0.594   5.709  0.00  0.00    -0.048 Br
ATOM     12  N   UNL     1      10.082  -2.760   1.952  0.00  0.00    -0.306 N 
ATOM     13  H   UNL     1      11.029  -2.802   2.159  0.00  0.00    +0.170 HD
ATOM     14  C   UNL     1       9.465  -3.409   0.947  0.00  0.00    +0.325 A 
ATOM     15  O   UNL     1      10.013  -4.147   0.149  0.00  0.00    -0.247 OA
ATOM     16  N   UNL     1       8.151  -3.119   0.958  0.00  0.00    -0.306 N 
ATOM     17  H   UNL     1       7.489  -3.460   0.337  0.00  0.00    +0.170 HD
ENDBRANCH   1  10
BRANCH   2  18
ATOM     18  C   UNL     1       3.334   0.602   3.790  0.00  0.00    +0.171 C 
BRANCH  18  19
ATOM     19  S   UNL     1       2.135   0.772   2.445  0.00  0.00    -0.096 S 
BRANCH  19  20
ATOM     20  C   UNL     1       0.762   1.421   3.339  0.00  0.00    +0.109 A 
ATOM     21  C   UNL     1      -0.457   1.725   2.671  0.00  0.00    +0.043 A 
ATOM     22  C   UNL     1      -0.778   1.571   1.244  0.00  0.00    -0.025 A 
ATOM     23  C   UNL     1      -2.013   1.936   0.858  0.00  0.00    -0.004 A 
ATOM     24  S   UNL     1      -2.816   2.494   2.343  0.00  0.00    -0.073 S 
ATOM     25  C   UNL     1      -1.484   2.238   3.483  0.00  0.00    +0.113 A 
ATOM     26  N   UNL     1      -1.312   2.420   4.779  0.00  0.00    -0.228 NA
ATOM     27  C   UNL     1      -0.159   2.120   5.345  0.00  0.00    +0.223 A 
ATOM     28  N   UNL     1       0.849   1.635   4.643  0.00  0.00    -0.229 NA
ATOM     29  C   UNL     1      -2.228   1.739  -0.619  0.00  0.00    +0.043 C 
ATOM     30  C   UNL     1      -0.805   1.599  -1.203  0.00  0.00    +0.010 C 
ATOM     31  C   UNL     1      -0.019   1.069   0.012  0.00  0.00    +0.037 C 
ENDBRANCH  19  20
ENDBRANCH  18  19
ENDBRANCH   2  18
TORSDOF 4
