REMARK  Name = ZINC36790567
REMARK  4 active torsions:
REMARK  status: ('A' for Active; 'I' for Inactive)
REMARK    1  A    between atoms: C_4  and  C_8
REMARK    2  A    between atoms: C_14  and  C_16
REMARK    3  A    between atoms: C_16  and  C_17
REMARK    4  A    between atoms: C_17  and  N_18
REMARK                            x       y       z     vdW  Elec       q    Type
REMARK                         _______ _______ _______ _____ _____    ______ ____
ROOT
ATOM      1  C   UNL     1       3.699  -0.689  -0.038  0.00  0.00    +0.082 A 
ATOM      2  C   UNL     1       3.728  -2.056  -0.051  0.00  0.00    +0.077 A 
ATOM      3  S   UNL     1       5.492  -2.350  -0.068  0.00  0.00    -0.060 S 
ATOM      4  C   UNL     1       6.003  -0.637  -0.057  0.00  0.00    +0.165 A 
ATOM      5  N   UNL     1       4.839  -0.015  -0.047  0.00  0.00    -0.225 NA
ATOM      6  N   UNL     1       7.286  -0.102  -0.061  0.00  0.00    -0.265 N 
ATOM      7  C   UNL     1       8.357  -0.921  -0.077  0.00  0.00    +0.220 C 
ATOM      8  O   UNL     1       8.201  -2.123  -0.087  0.00  0.00    -0.275 OA
ATOM      9  H   UNL     1       7.410   0.859  -0.053  0.00  0.00    +0.157 HD
ENDROOT
BRANCH   1  13
ATOM     10  C   UNL     1      -0.017   1.380   0.010  0.00  0.00    +0.021 A 
ATOM     11  C   UNL     1       1.169   2.093   0.002  0.00  0.00    +0.022 A 
ATOM     12  C   UNL     1       2.378   1.427  -0.013  0.00  0.00    +0.050 A 
ATOM     13  C   UNL     1       2.403   0.032  -0.021  0.00  0.00    +0.021 A 
ATOM     14  C   UNL     1       1.206  -0.681  -0.013  0.00  0.00    +0.031 A 
ATOM     15  C   UNL     1       0.002  -0.004   0.002  0.00  0.00    +0.042 A 
ATOM     16 CL   UNL     1      -1.490  -0.891   0.012  0.00  0.00    -0.084 Cl
ATOM     17 CL   UNL     1       3.865   2.323  -0.024  0.00  0.00    -0.083 Cl
ENDBRANCH   1  13
BRANCH   7  18
ATOM     18  C   UNL     1       9.748  -0.341  -0.083  0.00  0.00    +0.115 C 
BRANCH  18  19
ATOM     19  C   UNL     1      10.774  -1.476  -0.101  0.00  0.00    +0.127 C 
BRANCH  19  20
ATOM     20  N   UNL     1      12.126  -0.912  -0.106  0.00  0.00    -0.224 N 
ATOM     21  C   UNL     1      12.815  -0.605  -1.225  0.00  0.00    +0.247 C 
ATOM     22  O   UNL     1      12.448  -0.738  -2.372  0.00  0.00    -0.273 OA
ATOM     23  C   UNL     1      14.141  -0.061  -0.745  0.00  0.00    +0.113 C 
ATOM     24  C   UNL     1      14.321   1.382  -1.205  0.00  0.00    +0.035 C 
ATOM     25  C   UNL     1      15.654   1.923  -0.683  0.00  0.00    +0.003 C 
ATOM     26  C   UNL     1      16.798   1.055  -1.212  0.00  0.00    +0.000 C 
ATOM     27  C   UNL     1      16.616  -0.383  -0.723  0.00  0.00    +0.003 C 
ATOM     28  C   UNL     1      15.286  -0.934  -1.245  0.00  0.00    +0.035 C 
ATOM     29  N   UNL     1      14.045  -0.127   0.719  0.00  0.00    -0.285 N 
ATOM     30  C   UNL     1      12.829  -0.633   0.998  0.00  0.00    +0.309 C 
ATOM     31  O   UNL     1      12.417  -0.819   2.127  0.00  0.00    -0.252 OA
ATOM     32  H   UNL     1      14.722   0.145   1.358  0.00  0.00    +0.151 HD
ENDBRANCH  19  20
ENDBRANCH  18  19
ENDBRANCH   7  18
TORSDOF 4
