REMARK  Name = ZINC63426751
REMARK  15 active torsions:
REMARK  status: ('A' for Active; 'I' for Inactive)
REMARK    1  A    between atoms: C_1  and  C_2
REMARK    2  A    between atoms: C_5  and  C_40
REMARK    3  A    between atoms: C_6  and  N_8
REMARK    4  A    between atoms: C_9  and  C_11
REMARK    5  A    between atoms: C_11  and  S_12
REMARK    6  A    between atoms: S_12  and  C_13
REMARK    7  A    between atoms: C_17  and  C_20
REMARK    8  A    between atoms: C_20  and  C_22
REMARK    9  A    between atoms: C_20  and  N_32
REMARK   10  A    between atoms: C_22  and  C_23
REMARK   11  A    between atoms: C_33  and  O_35
REMARK   12  A    between atoms: O_35  and  C_36
REMARK   13  A    between atoms: C_36  and  C_37
REMARK   14  A    between atoms: C_36  and  C_38
REMARK   15  A    between atoms: C_36  and  C_39
REMARK                            x       y       z     vdW  Elec       q    Type
REMARK                         _______ _______ _______ _____ _____    ______ ____
ROOT
ATOM      1  C   UNL     1      -0.680  -6.123   7.794  0.00  0.00    +0.133 C 
ENDROOT
BRANCH   1   5
ATOM      2  C   UNL     1       0.541  -2.801   7.699  0.00  0.00    +0.319 C 
ATOM      3  N   UNL     1       1.705  -3.687   7.565  0.00  0.00    -0.146 NA
ATOM      4  N   UNL     1       1.338  -4.825   7.246  0.00  0.00    -0.155 NA
ATOM      5  C   UNL     1      -0.124  -4.867   7.119  0.00  0.00    +0.280 C 
ATOM      6  O   UNL     1      -0.598  -3.681   7.795  0.00  0.00    -0.316 OA
BRANCH   2   7
ATOM      7  S   UNL     1       0.391  -1.734   6.239  0.00  0.00    -0.095 S 
BRANCH   7   8
ATOM      8  C   UNL     1       0.280  -2.900   4.854  0.00  0.00    +0.169 C 
BRANCH   8  10
ATOM      9  N   UNL     1       0.052  -2.797   2.393  0.00  0.00    -0.285 N 
ATOM     10  C   UNL     1       0.150  -2.135   3.562  0.00  0.00    +0.227 C 
ATOM     11  O   UNL     1       0.134  -0.922   3.575  0.00  0.00    -0.275 OA
ATOM     12  H   UNL     1      -0.016  -3.765   2.388  0.00  0.00    +0.155 HD
BRANCH   9  18
ATOM     13  C   UNL     1       1.264   1.227  -0.158  0.00  0.00    +0.044 C 
ATOM     14  C   UNL     1       0.628  -0.137  -0.079  0.00  0.00    -0.049 A 
ATOM     15  C   UNL     1       0.039  -0.690  -1.201  0.00  0.00    +0.004 A 
ATOM     16  C   UNL     1      -0.546  -1.941  -1.133  0.00  0.00    +0.005 A 
ATOM     17  C   UNL     1      -0.543  -2.643   0.057  0.00  0.00    -0.029 A 
ATOM     18  C   UNL     1       0.048  -2.090   1.185  0.00  0.00    +0.037 A 
ATOM     19  C   UNL     1       0.639  -0.835   1.112  0.00  0.00    +0.027 A 
ATOM     20  C   UNL     1      -1.181  -4.006   0.131  0.00  0.00    +0.045 C 
ENDBRANCH   9  18
ENDBRANCH   8  10
ENDBRANCH   7   8
ENDBRANCH   2   7
ENDBRANCH   1   5
BRANCH   1  21
ATOM     21  N   UNL     1      -2.141  -6.129   7.687  0.00  0.00    -0.274 N 
ATOM     22  C   UNL     1      -2.727  -6.125   6.473  0.00  0.00    +0.401 C 
ATOM     23  O   UNL     1      -2.044  -6.117   5.468  0.00  0.00    -0.226 OA
ATOM     24  H   UNL     1      -2.686  -6.136   8.489  0.00  0.00    +0.152 HD
BRANCH  22  25
ATOM     25  O   UNL     1      -4.070  -6.131   6.375  0.00  0.00    -0.445 OA
BRANCH  25  26
ATOM     26  C   UNL     1      -4.624  -6.127   5.057  0.00  0.00    +0.107 C 
ATOM     27  C   UNL     1      -4.151  -7.370   4.301  0.00  0.00    +0.055 C 
ATOM     28  C   UNL     1      -6.151  -6.135   5.146  0.00  0.00    +0.055 C 
ATOM     29  C   UNL     1      -4.163  -4.871   4.314  0.00  0.00    +0.055 C 
ENDBRANCH  25  26
ENDBRANCH  22  25
ENDBRANCH   1  21
BRANCH   1  30
ATOM     30  C   UNL     1      -0.112  -7.365   7.105  0.00  0.00    +0.060 C 
BRANCH  30  31
ATOM     31  C   UNL     1      -0.561  -8.599   7.846  0.00  0.00    -0.040 C 
ATOM     32  C   UNL     1      -1.630  -9.377   7.558  0.00  0.00    -0.001 A 
ATOM     33  C   UNL     1      -2.655  -9.309   6.510  0.00  0.00    +0.010 A 
ATOM     34  C   UNL     1      -3.623 -10.253   6.478  0.00  0.00    +0.001 A 
ATOM     35  C   UNL     1      -3.672 -11.291   7.418  0.00  0.00    +0.002 A 
ATOM     36  C   UNL     1      -2.765 -11.420   8.409  0.00  0.00    +0.026 A 
ATOM     37  C   UNL     1      -1.703 -10.483   8.538  0.00  0.00    +0.043 A 
ATOM     38  N   UNL     1      -0.718 -10.394   9.398  0.00  0.00    -0.380 N 
ATOM     39  C   UNL     1       0.096  -9.222   9.057  0.00  0.00    +0.144 C 
ATOM     40  H   UNL     1      -0.552 -11.003  10.135  0.00  0.00    +0.160 HD
ENDBRANCH  30  31
ENDBRANCH   1  30
TORSDOF 10
