REMARK  Name = ZINC12641387
REMARK  9 active torsions:
REMARK  status: ('A' for Active; 'I' for Inactive)
REMARK    1  A    between atoms: C_5  and  C_7
REMARK    2  A    between atoms: C_7  and  C_9
REMARK    3  A    between atoms: C_7  and  N_19
REMARK    4  A    between atoms: N_11  and  C_12
REMARK    5  A    between atoms: C_12  and  C_13
REMARK    6  A    between atoms: N_19  and  C_20
REMARK    7  A    between atoms: C_20  and  C_21
REMARK    8  A    between atoms: C_27  and  C_29
REMARK    9  A    between atoms: N_31  and  C_32
REMARK                            x       y       z     vdW  Elec       q    Type
REMARK                         _______ _______ _______ _____ _____    ______ ____
ROOT
ATOM      1  N   UNL     1      -0.530   0.709  -5.757  0.00  0.00    -0.276 N 
ATOM      2  C   UNL     1       0.210   1.196  -6.774  0.00  0.00    +0.302 C 
ATOM      3  O   UNL     1       1.419   1.234  -6.679  0.00  0.00    -0.265 OA
ENDROOT
BRANCH   2   4
ATOM      4  C   UNL     1      -0.459   1.687  -8.017  0.00  0.00    +0.299 C 
ATOM      5  O   UNL     1      -1.670   1.723  -8.080  0.00  0.00    -0.265 OA
ATOM      6  N   UNL     1       0.284   2.089  -9.067  0.00  0.00    -0.305 N 
ATOM      7  H   UNL     1       1.252   2.060  -9.016  0.00  0.00    +0.149 HD
BRANCH   6   8
ATOM      8  C   UNL     1      -0.372   2.571 -10.286  0.00  0.00    +0.073 C 
ATOM      9  C   UNL     1      -0.725   1.380 -11.179  0.00  0.00    +0.022 C 
ATOM     10  C   UNL     1      -1.410   1.883 -12.452  0.00  0.00    +0.002 C 
ATOM     11  C   UNL     1      -0.464   2.821 -13.203  0.00  0.00    +0.000 C 
ATOM     12  C   UNL     1      -0.110   4.012 -12.310  0.00  0.00    +0.002 C 
ATOM     13  C   UNL     1       0.575   3.509 -11.037  0.00  0.00    +0.022 C 
ENDBRANCH   6   8
ENDBRANCH   2   4
BRANCH   1  14
ATOM     14  C   UNL     1       0.118   0.306  -4.507  0.00  0.00    +0.195 C 
BRANCH  14  19
ATOM     15  C   UNL     1       1.417   3.799  -3.902  0.00  0.00    +0.001 A 
ATOM     16  C   UNL     1       1.711   3.756  -2.552  0.00  0.00    +0.003 A 
ATOM     17  C   UNL     1       1.491   2.597  -1.833  0.00  0.00    +0.039 A 
ATOM     18  C   UNL     1       0.970   1.479  -2.464  0.00  0.00    +0.129 A 
ATOM     19  C   UNL     1       0.680   1.522  -3.817  0.00  0.00    +0.017 A 
ATOM     20  C   UNL     1       0.901   2.683  -4.534  0.00  0.00    +0.009 A 
ATOM     21  F   UNL     1       0.750   0.347  -1.761  0.00  0.00    -0.205 F 
ENDBRANCH  14  19
BRANCH  14  22
ATOM     22  C   UNL     1       1.234  -0.661  -4.809  0.00  0.00    +0.238 C 
ATOM     23  O   UNL     1       1.418  -1.038  -5.946  0.00  0.00    -0.273 OA
ATOM     24  N   UNL     1       2.027  -1.106  -3.814  0.00  0.00    -0.311 N 
ATOM     25  H   UNL     1       1.880  -0.804  -2.904  0.00  0.00    +0.149 HD
BRANCH  24  26
ATOM     26  C   UNL     1       3.112  -2.046  -4.107  0.00  0.00    +0.135 C 
BRANCH  26  27
ATOM     27  C   UNL     1       3.853  -2.389  -2.814  0.00  0.00    +0.135 C 
ATOM     28  C   UNL     1       5.071  -3.285  -3.127  0.00  0.00    +0.035 C 
ATOM     29  C   UNL     1       5.056  -4.288  -1.942  0.00  0.00    +0.031 C 
ATOM     30  C   UNL     1       3.533  -4.432  -1.698  0.00  0.00    +0.160 C 
ATOM     31  O   UNL     1       2.989  -3.125  -1.939  0.00  0.00    -0.375 OA
ENDBRANCH  26  27
ENDBRANCH  24  26
ENDBRANCH  14  22
ENDBRANCH   1  14
BRANCH   1  32
ATOM     32  C   UNL     1      -1.982   0.584  -5.903  0.00  0.00    +0.141 C 
BRANCH  32  33
ATOM     33  C   UNL     1      -2.311  -0.715  -6.640  0.00  0.00    +0.136 C 
ATOM     34  C   UNL     1      -3.832  -0.806  -6.889  0.00  0.00    +0.035 C 
ATOM     35  C   UNL     1      -4.117  -2.312  -6.638  0.00  0.00    +0.031 C 
ATOM     36  C   UNL     1      -3.097  -2.621  -5.513  0.00  0.00    +0.160 C 
ATOM     37  O   UNL     1      -1.936  -1.839  -5.835  0.00  0.00    -0.375 OA
ENDBRANCH  32  33
ENDBRANCH   1  32
TORSDOF 9
