REMARK  Name = ZINC33018503
REMARK  8 active torsions:
REMARK  status: ('A' for Active; 'I' for Inactive)
REMARK    1  A    between atoms: C_1  and  C_2
REMARK    2  A    between atoms: C_3  and  C_8
REMARK    3  A    between atoms: C_4  and  C_7
REMARK    4  A    between atoms: C_8  and  C_9
REMARK    5  A    between atoms: C_9  and  N_10
REMARK    6  A    between atoms: C_11  and  C_13
REMARK    7  A    between atoms: C_17  and  C_19
REMARK    8  A    between atoms: C_19  and  N_20
REMARK                            x       y       z     vdW  Elec       q    Type
REMARK                         _______ _______ _______ _____ _____    ______ ____
ROOT
ATOM      1  C   UNL     1      -1.305   1.933   0.019  0.00  0.00    +0.037 A 
ATOM      2  C   UNL     1      -1.327   3.329   0.032  0.00  0.00    +0.013 A 
ATOM      3  C   UNL     1      -2.534   3.996   0.036  0.00  0.00    +0.001 A 
ATOM      4  C   UNL     1      -3.721   3.285   0.038  0.00  0.00    +0.005 A 
ATOM      5  C   UNL     1      -3.706   1.902   0.030  0.00  0.00    -0.027 A 
ATOM      6  C   UNL     1      -2.506   1.222   0.021  0.00  0.00    +0.018 A 
ENDROOT
BRANCH   1   8
ATOM      7  N   UNL     1       1.143   1.901   0.001  0.00  0.00    -0.311 N 
ATOM      8  C   UNL     1      -0.014   1.211   0.009  0.00  0.00    +0.244 C 
ATOM      9  O   UNL     1       0.002  -0.004   0.002  0.00  0.00    -0.270 OA
ATOM     10  H   UNL     1       1.129   3.001   0.007  0.00  0.00    +0.149 HD
BRANCH   7  11
ATOM     11  C   UNL     1       2.422   1.186  -0.015  0.00  0.00    +0.109 C 
BRANCH  11  12
ATOM     12  C   UNL     1       3.571   2.196  -0.020  0.00  0.00    +0.059 C 
BRANCH  12  15
ATOM     13  C   UNL     1       5.277   1.242  -2.610  0.00  0.00    +0.069 C 
ATOM     14  C   UNL     1       5.636   1.041  -1.160  0.00  0.00    +0.084 A 
ATOM     15  C   UNL     1       4.886   1.460  -0.037  0.00  0.00    +0.019 A 
ATOM     16  C   UNL     1       5.627   1.052   1.021  0.00  0.00    +0.138 A 
ATOM     17  O   UNL     1       6.708   0.443   0.515  0.00  0.00    -0.359 OA
ATOM     18  N   UNL     1       6.697   0.449  -0.694  0.00  0.00    -0.083 NA
ATOM     19  C   UNL     1       5.300   1.245   2.480  0.00  0.00    +0.089 C 
ENDBRANCH  12  15
ENDBRANCH  11  12
ENDBRANCH   7  11
ENDBRANCH   1   8
BRANCH   5  20
ATOM     20  C   UNL     1      -5.004   1.135   0.032  0.00  0.00    +0.162 C 
BRANCH  20  21
ATOM     21  N   UNL     1      -5.418   0.879   1.414  0.00  0.00    -0.286 N 
ATOM     22  C   UNL     1      -5.003  -0.284   2.053  0.00  0.00    +0.161 A 
ATOM     23  C   UNL     1      -5.385  -0.542   3.371  0.00  0.00    +0.090 A 
ATOM     24  C   UNL     1      -4.953  -1.708   3.990  0.00  0.00    +0.031 A 
ATOM     25  C   UNL     1      -4.149  -2.578   3.268  0.00  0.00    +0.022 A 
ATOM     26  C   UNL     1      -3.805  -2.259   1.968  0.00  0.00    +0.113 A 
ATOM     27  N   UNL     1      -4.229  -1.145   1.405  0.00  0.00    -0.236 NA
ATOM     28  N   UNL     1      -6.196   0.360   4.064  0.00  0.00    -0.309 N 
ATOM     29  C   UNL     1      -6.705   0.352   5.322  0.00  0.00    +0.092 A 
ATOM     30  C   UNL     1      -7.439   1.476   5.507  0.00  0.00    +0.020 A 
ATOM     31  C   UNL     1      -7.393   2.220   4.324  0.00  0.00    +0.033 A 
ATOM     32  C   UNL     1      -6.615   1.514   3.433  0.00  0.00    +0.112 A 
ATOM     33  C   UNL     1      -6.201   1.770   2.053  0.00  0.00    +0.277 A 
ATOM     34  O   UNL     1      -6.563   2.784   1.484  0.00  0.00    -0.265 OA
ENDBRANCH  20  21
ENDBRANCH   5  20
TORSDOF 6
