REMARK  Name = ZINC39926830
REMARK  5 active torsions:
REMARK  status: ('A' for Active; 'I' for Inactive)
REMARK    1  A    between atoms: C_6  and  C_10
REMARK    2  A    between atoms: C_10  and  S_11
REMARK    3  A    between atoms: S_11  and  C_12
REMARK    4  A    between atoms: C_16  and  C_26
REMARK    5  A    between atoms: N_18  and  C_19
REMARK                            x       y       z     vdW  Elec       q    Type
REMARK                         _______ _______ _______ _____ _____    ______ ____
ROOT
ATOM      1  C   UNL     1      -5.014  -5.337  -1.426  0.00  0.00    +0.218 C 
ATOM      2  N   UNL     1      -6.186  -5.148  -0.541  0.00  0.00    -0.226 NA
ATOM      3  N   UNL     1      -6.394  -6.466   0.078  0.00  0.00    -0.230 NA
ATOM      4  C   UNL     1      -5.007  -6.954   0.298  0.00  0.00    +0.189 C 
ATOM      5  N   UNL     1      -4.264  -6.487  -0.891  0.00  0.00    -0.284 N 
ATOM      6  H   UNL     1      -6.997  -4.865  -1.071  0.00  0.00    +0.143 HD
ATOM      7  H   UNL     1      -6.891  -6.381   0.952  0.00  0.00    +0.143 HD
ENDROOT
BRANCH   5   8
ATOM      8  C   UNL     1      -3.084  -7.029  -1.407  0.00  0.00    +0.033 A 
ATOM      9  C   UNL     1      -2.426  -8.043  -0.723  0.00  0.00    +0.024 A 
ATOM     10  C   UNL     1      -1.260  -8.577  -1.235  0.00  0.00    +0.022 A 
ATOM     11  C   UNL     1      -0.746  -8.102  -2.429  0.00  0.00    +0.041 A 
ATOM     12  C   UNL     1      -1.399  -7.092  -3.113  0.00  0.00    +0.022 A 
ATOM     13  C   UNL     1      -2.569  -6.558  -2.608  0.00  0.00    +0.024 A 
ATOM     14 CL   UNL     1       0.721  -8.775  -3.070  0.00  0.00    -0.084 Cl
ENDBRANCH   5   8
BRANCH   4  15
ATOM     15  C   UNL     1      -4.984  -8.459   0.379  0.00  0.00    -0.009 A 
ATOM     16  C   UNL     1      -4.571  -9.101   1.537  0.00  0.00    +0.024 A 
ATOM     17  C   UNL     1      -4.563 -10.482   1.575  0.00  0.00    +0.083 A 
ATOM     18  N   UNL     1      -4.942 -11.188   0.527  0.00  0.00    -0.367 N 
ATOM     19  C   UNL     1      -5.342 -10.611  -0.589  0.00  0.00    +0.083 A 
ATOM     20  C   UNL     1      -5.382  -9.234  -0.699  0.00  0.00    +0.024 A 
ATOM     21  H   UNL     1      -4.927 -12.156   0.580  0.00  0.00    +0.165 HD
ENDBRANCH   4  15
BRANCH   1  22
ATOM     22  S   UNL     1      -3.973  -3.852  -1.404  0.00  0.00    -0.114 S 
BRANCH  22  23
ATOM     23  C   UNL     1      -3.539  -3.646   0.345  0.00  0.00    +0.146 C 
BRANCH  23  29
ATOM     24  C   UNL     1       0.449   0.836   0.902  0.00  0.00    +0.002 A 
ATOM     25  C   UNL     1      -0.701   1.592   1.084  0.00  0.00    +0.002 A 
ATOM     26  C   UNL     1      -1.934   1.004   1.045  0.00  0.00    +0.030 A 
ATOM     27  C   UNL     1      -2.043  -0.370   0.820  0.00  0.00    +0.089 A 
ATOM     28  N   UNL     1      -3.096  -1.223   0.728  0.00  0.00    -0.232 NA
ATOM     29  C   UNL     1      -2.663  -2.430   0.505  0.00  0.00    +0.118 A 
ATOM     30  N   UNL     1      -1.304  -2.434   0.439  0.00  0.00    -0.341 N 
ATOM     31  C   UNL     1      -0.879  -1.135   0.635  0.00  0.00    +0.066 A 
ATOM     32  C   UNL     1       0.365  -0.521   0.678  0.00  0.00    +0.028 A 
ATOM     33  H   UNL     1      -0.739  -3.207   0.282  0.00  0.00    +0.167 HD
ENDBRANCH  23  29
ENDBRANCH  22  23
ENDBRANCH   1  22
TORSDOF 5
