REMARK  Name = ZINC17180953
REMARK  17 active torsions:
REMARK  status: ('A' for Active; 'I' for Inactive)
REMARK    1  A    between atoms: C_1  and  C_2
REMARK    2  A    between atoms: C_2  and  C_3
REMARK    3  A    between atoms: C_3  and  C_4
REMARK    4  A    between atoms: C_4  and  C_5
REMARK    5  A    between atoms: C_5  and  C_6
REMARK    6  A    between atoms: C_6  and  N_7
REMARK    7  A    between atoms: C_11  and  C_12
REMARK    8  A    between atoms: C_13  and  C_23
REMARK    9  A    between atoms: C_17  and  O_18
REMARK   10  A    between atoms: O_18  and  C_19
REMARK   11  A    between atoms: C_23  and  C_24
REMARK   12  A    between atoms: C_24  and  N_25
REMARK   13  A    between atoms: N_25  and  C_26
REMARK   14  A    between atoms: N_25  and  C_27
REMARK   15  A    between atoms: C_27  and  N_29
REMARK   16  A    between atoms: N_29  and  C_30
REMARK   17  A    between atoms: C_34  and  O_35
REMARK                            x       y       z     vdW  Elec       q    Type
REMARK                         _______ _______ _______ _____ _____    ______ ____
ROOT
ATOM      1  C   UNL     1       0.262   4.271   0.022  0.00  0.00    +0.025 A 
ATOM      2  C   UNL     1       0.237   5.321   0.956  0.00  0.00    -0.032 A 
ATOM      3  C   UNL     1      -0.858   6.127   1.050  0.00  0.00    +0.054 A 
ATOM      4  C   UNL     1      -1.967   5.914   0.232  0.00  0.00    +0.170 A 
ATOM      5  C   UNL     1      -1.964   4.876  -0.696  0.00  0.00    +0.208 A 
ATOM      6  C   UNL     1      -0.855   4.051  -0.808  0.00  0.00    +0.173 A 
ATOM      7  O   UNL     1      -3.155   4.884  -1.364  0.00  0.00    -0.449 OA
ATOM      8  C   UNL     1      -3.722   6.185  -1.121  0.00  0.00    +0.467 C 
ATOM      9  O   UNL     1      -3.159   6.571   0.147  0.00  0.00    -0.452 OA
ENDROOT
BRANCH   1  14
ATOM     10  N   UNL     1       3.903   2.489  -2.625  0.00  0.00    -0.224 N 
ATOM     11  C   UNL     1       3.232   2.445  -1.454  0.00  0.00    +0.259 C 
ATOM     12  O   UNL     1       3.520   1.633  -0.595  0.00  0.00    -0.269 OA
ATOM     13  C   UNL     1       2.139   3.413  -1.251  0.00  0.00    +0.102 C 
ATOM     14  C   UNL     1       1.401   3.436  -0.080  0.00  0.00    +0.030 C 
ATOM     15  C   UNL     1       1.869   4.358  -2.355  0.00  0.00    +0.276 C 
ATOM     16  O   UNL     1       0.984   5.192  -2.261  0.00  0.00    -0.268 OA
ATOM     17  N   UNL     1       2.625   4.278  -3.462  0.00  0.00    -0.127 NA
ATOM     18  C   UNL     1       3.584   3.395  -3.586  0.00  0.00    +0.281 C 
BRANCH  18  19
ATOM     19  O   UNL     1       4.294   3.385  -4.730  0.00  0.00    -0.483 OA
ATOM     20  H   UNL     1       4.053   4.036  -5.403  0.00  0.00    +0.295 HD
ENDBRANCH  18  19
BRANCH  10  21
ATOM     21  C   UNL     1       4.996   1.543  -2.864  0.00  0.00    +0.118 C 
BRANCH  21  22
ATOM     22  C   UNL     1       6.312   2.150  -2.375  0.00  0.00    +0.019 C 
BRANCH  22  23
ATOM     23  C   UNL     1       7.453   1.161  -2.625  0.00  0.00    +0.002 C 
BRANCH  23  24
ATOM     24  C   UNL     1       8.770   1.768  -2.136  0.00  0.00    -0.000 C 
BRANCH  24  26
ATOM     25  C   UNL     1      11.227   1.387  -1.896  0.00  0.00    +0.004 C 
ATOM     26  C   UNL     1       9.911   0.780  -2.385  0.00  0.00    -0.003 C 
ENDBRANCH  24  26
ENDBRANCH  23  24
ENDBRANCH  22  23
ENDBRANCH  21  22
ENDBRANCH  10  21
ENDBRANCH   1  14
BRANCH   6  27
ATOM     27  O   UNL     1      -0.846   3.038  -1.710  0.00  0.00    -0.491 OA
ATOM     28  C   UNL     1      -1.462   1.811  -1.314  0.00  0.00    +0.277 C 
ENDBRANCH   6  27
BRANCH   2  29
ATOM     29  C   UNL     1       1.425   5.560   1.851  0.00  0.00    +0.055 C 
BRANCH  29  30
ATOM     30  C   UNL     1       2.449   6.431   1.119  0.00  0.00    +0.111 C 
BRANCH  30  31
ATOM     31  N   UNL     1       3.604   6.663   1.990  0.00  0.00    -0.315 N 
ATOM     32  C   UNL     1       3.624   7.822   2.886  0.00  0.00    +0.131 C 
BRANCH  31  33
ATOM     33  C   UNL     1       4.648   5.811   1.966  0.00  0.00    +0.132 C 
ATOM     34  S   UNL     1       4.624   4.457   0.918  0.00  0.00    -0.019 S 
BRANCH  33  35
ATOM     35  N   UNL     1       5.711   6.025   2.767  0.00  0.00    -0.329 N 
ATOM     36  C   UNL     1       6.846   5.099   2.740  0.00  0.00    +0.127 C 
ATOM     37  H   UNL     1       5.724   6.792   3.360  0.00  0.00    +0.147 HD
ENDBRANCH  33  35
ENDBRANCH  31  33
ENDBRANCH  30  31
ENDBRANCH  29  30
ENDBRANCH   2  29
TORSDOF 13
