REMARK  Name = ZINC66121932
REMARK  8 active torsions:
REMARK  status: ('A' for Active; 'I' for Inactive)
REMARK    1  A    between atoms: C_1  and  C_2
REMARK    2  A    between atoms: C_5  and  C_8
REMARK    3  A    between atoms: N_10  and  N_11
REMARK    4  A    between atoms: N_11  and  C_12
REMARK    5  A    between atoms: C_12  and  N_14
REMARK    6  A    between atoms: N_14  and  C_15
REMARK    7  A    between atoms: C_15  and  C_17
REMARK    8  A    between atoms: C_15  and  C_18
REMARK                            x       y       z     vdW  Elec       q    Type
REMARK                         _______ _______ _______ _____ _____    ______ ____
ROOT
ATOM      1  C   UNL     1       0.084  -6.896  -2.432  0.00  0.00    +0.147 C 
ATOM      2  S   UNL     1       0.108  -8.608  -2.443  0.00  0.00    -0.017 S 
ENDROOT
BRANCH   1   3
ATOM      3  N   UNL     1       0.081  -6.230  -1.260  0.00  0.00    -0.246 N 
ATOM      4  H   UNL     1       0.092  -6.720  -0.423  0.00  0.00    +0.172 HD
BRANCH   3   7
ATOM      5  C   UNL     1       0.059  -4.162  -0.080  0.00  0.00    +0.280 C 
ATOM      6  O   UNL     1       0.073  -4.777   0.969  0.00  0.00    -0.267 OA
ATOM      7  N   UNL     1       0.062  -4.829  -1.251  0.00  0.00    -0.230 N 
ATOM      8  H   UNL     1       0.051  -4.339  -2.088  0.00  0.00    +0.173 HD
BRANCH   5  13
ATOM      9  C   UNL     1      -0.018   1.503   0.010  0.00  0.00    +0.067 C 
ATOM     10  C   UNL     1       0.002  -0.004   0.002  0.00  0.00    +0.056 A 
ATOM     11  C   UNL     1       0.006  -0.689  -1.205  0.00  0.00    +0.134 A 
ATOM     12  N   UNL     1       0.024  -2.007  -1.217  0.00  0.00    -0.247 NA
ATOM     13  C   UNL     1       0.039  -2.681  -0.070  0.00  0.00    +0.145 A 
ATOM     14  C   UNL     1       0.035  -1.990   1.140  0.00  0.00    +0.144 A 
ATOM     15  N   UNL     1       0.022  -0.669   1.143  0.00  0.00    -0.256 NA
ENDBRANCH   5  13
ENDBRANCH   3   7
ENDBRANCH   1   3
BRANCH   1  16
ATOM     16  N   UNL     1       0.069  -6.215  -3.595  0.00  0.00    -0.319 N 
ATOM     17  H   UNL     1       0.056  -5.245  -3.588  0.00  0.00    +0.148 HD
BRANCH  16  18
ATOM     18  C   UNL     1       0.073  -6.939  -4.868  0.00  0.00    +0.101 C 
ATOM     19  C   UNL     1       1.512  -7.281  -5.256  0.00  0.00    +0.033 C 
BRANCH  18  20
ATOM     20  C   UNL     1      -0.545  -6.077  -5.938  0.00  0.00    -0.009 A 
ATOM     21  C   UNL     1      -0.528  -4.700  -5.812  0.00  0.00    +0.008 A 
ATOM     22  C   UNL     1      -1.094  -3.909  -6.793  0.00  0.00    +0.020 A 
ATOM     23  C   UNL     1      -1.678  -4.494  -7.903  0.00  0.00    +0.042 A 
ATOM     24  C   UNL     1      -1.695  -5.871  -8.030  0.00  0.00    +0.040 A 
ATOM     25  C   UNL     1      -1.124  -6.662  -7.050  0.00  0.00    +0.047 A 
ATOM     26 CL   UNL     1      -1.140  -8.391  -7.211  0.00  0.00    -0.083 Cl
ATOM     27 CL   UNL     1      -2.390  -3.499  -9.135  0.00  0.00    -0.083 Cl
ENDBRANCH  18  20
ENDBRANCH  16  18
ENDBRANCH   1  16
TORSDOF 6
