REMARK  Name = ZINC20905006
REMARK  16 active torsions:
REMARK  status: ('A' for Active; 'I' for Inactive)
REMARK    1  A    between atoms: C_1  and  C_2
REMARK    2  A    between atoms: C_2  and  N_3
REMARK    3  A    between atoms: N_3  and  C_4
REMARK    4  A    between atoms: N_3  and  C_6
REMARK    5  A    between atoms: C_4  and  C_5
REMARK    6  A    between atoms: C_9  and  N_12
REMARK    7  A    between atoms: C_13  and  C_15
REMARK    8  A    between atoms: C_15  and  S_16
REMARK    9  A    between atoms: S_16  and  C_17
REMARK   10  A    between atoms: N_22  and  N_23
REMARK   11  A    between atoms: C_24  and  C_25
REMARK   12  A    between atoms: C_26  and  C_34
REMARK   13  A    between atoms: N_28  and  C_31
REMARK   14  A    between atoms: C_29  and  C_30
REMARK   15  A    between atoms: C_31  and  C_32
REMARK   16  A    between atoms: C_31  and  C_33
REMARK                            x       y       z     vdW  Elec       q    Type
REMARK                         _______ _______ _______ _____ _____    ______ ____
ROOT
ATOM      1  C   UNL     1      -2.252 -10.396   3.310  0.00  0.00    +0.211 A 
ATOM      2  N   UNL     1      -2.675 -11.206   4.287  0.00  0.00    -0.186 NA
ATOM      3  C   UNL     1      -2.344 -12.449   4.006  0.00  0.00    +0.232 A 
ATOM      4  N   UNL     1      -1.693 -12.450   2.823  0.00  0.00    -0.245 N 
ATOM      5  N   UNL     1      -1.651 -11.114   2.391  0.00  0.00    -0.144 NA
ATOM      6  N   UNL     1      -2.615 -13.559   4.784  0.00  0.00    -0.205 N 
ATOM      7  H   UNL     1      -2.329 -14.438   4.492  0.00  0.00    +0.177 HD
ATOM      8  H   UNL     1      -1.329 -13.221   2.361  0.00  0.00    +0.192 HD
ENDROOT
BRANCH   6   9
ATOM      9  N   UNL     1      -3.304 -13.412   5.996  0.00  0.00    -0.187 NA
ATOM     10  C   UNL     1      -3.559 -14.454   6.727  0.00  0.00    +0.141 C 
BRANCH  10  11
ATOM     11  C   UNL     1      -4.284 -14.300   8.003  0.00  0.00    +0.038 A 
ATOM     12  C   UNL     1      -4.765 -13.092   8.552  0.00  0.00    +0.069 A 
ATOM     13  N   UNL     1      -5.350 -13.365   9.687  0.00  0.00    -0.175 NA
ATOM     14  N   UNL     1      -5.272 -14.744   9.915  0.00  0.00    -0.265 N 
ATOM     15  C   UNL     1      -4.622 -15.310   8.877  0.00  0.00    +0.045 A 
ATOM     16  C   UNL     1      -4.320 -16.776   8.707  0.00  0.00    +0.066 C 
ATOM     17  C   UNL     1      -4.627 -11.723   7.935  0.00  0.00    +0.068 C 
BRANCH  14  18
ATOM     18  C   UNL     1      -5.808 -15.452  11.080  0.00  0.00    +0.101 C 
ATOM     19  C   UNL     1      -5.150 -14.913  12.351  0.00  0.00    +0.032 C 
ATOM     20  C   UNL     1      -7.321 -15.235  11.157  0.00  0.00    +0.032 C 
ENDBRANCH  14  18
ENDBRANCH  10  11
ENDBRANCH   6   9
BRANCH   1  21
ATOM     21  S   UNL     1      -2.473  -8.649   3.262  0.00  0.00    -0.075 S 
BRANCH  21  22
ATOM     22  C   UNL     1      -1.694  -8.151   1.701  0.00  0.00    +0.173 C 
BRANCH  22  24
ATOM     23  N   UNL     1      -1.303  -6.060   0.439  0.00  0.00    -0.285 N 
ATOM     24  C   UNL     1      -1.814  -6.658   1.533  0.00  0.00    +0.227 C 
ATOM     25  O   UNL     1      -2.370  -5.995   2.383  0.00  0.00    -0.275 OA
ATOM     26  H   UNL     1      -0.927  -6.596  -0.276  0.00  0.00    +0.155 HD
BRANCH  23  30
ATOM     27  C   UNL     1      -1.340  -1.905   0.128  0.00  0.00    +0.014 A 
ATOM     28  C   UNL     1      -1.188  -2.503   1.366  0.00  0.00    +0.023 A 
ATOM     29  C   UNL     1      -1.176  -3.880   1.472  0.00  0.00    +0.025 A 
ATOM     30  C   UNL     1      -1.316  -4.665   0.335  0.00  0.00    +0.034 A 
ATOM     31  C   UNL     1      -1.468  -4.061  -0.907  0.00  0.00    +0.025 A 
ATOM     32  C   UNL     1      -1.485  -2.684  -1.006  0.00  0.00    +0.023 A 
BRANCH  27  33
ATOM     33  N   UNL     1      -1.352  -0.511   0.023  0.00  0.00    -0.394 NA
ATOM     34  H   UNL     1      -1.475  -0.248  -0.943  0.00  0.00    +0.126 HD
BRANCH  33  36
ATOM     35  C   UNL     1      -2.550   1.542   0.611  0.00  0.00    +0.022 C 
ATOM     36  C   UNL     1      -2.459   0.030   0.823  0.00  0.00    +0.081 C 
ENDBRANCH  33  36
BRANCH  33  37
ATOM     37  C   UNL     1      -0.079   0.028   0.520  0.00  0.00    +0.081 C 
ATOM     38  C   UNL     1       1.061  -0.436  -0.389  0.00  0.00    +0.022 C 
ENDBRANCH  33  37
ENDBRANCH  27  33
ENDBRANCH  23  30
ENDBRANCH  22  24
ENDBRANCH  21  22
ENDBRANCH   1  21
TORSDOF 10
