REMARK  Name = ZINC09725577
REMARK  6 active torsions:
REMARK  status: ('A' for Active; 'I' for Inactive)
REMARK    1  A    between atoms: C_2  and  C_3
REMARK    2  A    between atoms: C_3  and  N_4
REMARK    3  A    between atoms: C_8  and  S_26
REMARK    4  A    between atoms: N_13  and  C_14
REMARK    5  A    between atoms: C_14  and  C_16
REMARK    6  A    between atoms: S_26  and  N_29
REMARK                            x       y       z     vdW  Elec       q    Type
REMARK                         _______ _______ _______ _____ _____    ______ ____
ROOT
ATOM      1  N   UNL     1      -6.089   1.947   0.235  0.00  0.00    -0.317 N 
ATOM      2  C   UNL     1      -7.187   1.108   0.219  0.00  0.00    +0.058 A 
ATOM      3  C   UNL     1      -8.546   1.450   0.311  0.00  0.00    +0.029 A 
ATOM      4  C   UNL     1      -9.519   0.480   0.277  0.00  0.00    +0.030 A 
ATOM      5  C   UNL     1      -9.192  -0.860   0.151  0.00  0.00    +0.106 A 
ATOM      6  C   UNL     1      -7.861  -1.226   0.059  0.00  0.00    +0.045 A 
ATOM      7  C   UNL     1      -6.887  -0.256   0.093  0.00  0.00    +0.041 A 
ATOM      8  S   UNL     1      -5.114  -0.276  -0.000  0.00  0.00    -0.052 S 
ATOM      9  C   UNL     1      -4.834   1.431   0.134  0.00  0.00    +0.167 A 
ATOM     10  N   UNL     1      -3.674   2.078   0.132  0.00  0.00    -0.152 NA
ENDROOT
BRANCH   5  11
ATOM     11  S   UNL     1     -10.457  -2.086   0.110  0.00  0.00    +0.056 S 
ATOM     12  O   UNL     1      -9.858  -3.303   0.535  0.00  0.00    -0.153 OA
ATOM     13  O   UNL     1     -11.588  -1.525   0.763  0.00  0.00    -0.153 OA
BRANCH  11  14
ATOM     14  N   UNL     1     -10.883  -2.297  -1.476  0.00  0.00    -0.204 NA
ATOM     15  H   UNL     1     -11.205  -3.160  -1.781  0.00  0.00    +0.144 HD
ATOM     16  H   UNL     1     -10.811  -1.558  -2.100  0.00  0.00    +0.144 HD
ENDBRANCH  11  14
ENDBRANCH   5  11
BRANCH  10  17
ATOM     17  C   UNL     1      -2.528   1.396   0.022  0.00  0.00    +0.270 C 
ATOM     18  O   UNL     1      -2.549   0.181  -0.077  0.00  0.00    -0.268 OA
BRANCH  17  19
ATOM     19  C   UNL     1      -1.238   2.116   0.019  0.00  0.00    +0.046 A 
ATOM     20  C   UNL     1      -1.208   3.502   0.005  0.00  0.00    +0.014 A 
ATOM     21  C   UNL     1       0.002   4.185  -0.003  0.00  0.00    +0.001 A 
ATOM     22  C   UNL     1       1.189   3.516   0.008  0.00  0.00    +0.008 A 
ATOM     23  C   UNL     1       1.206   2.111   0.028  0.00  0.00    -0.017 A 
ATOM     24  C   UNL     1      -0.017   1.398   0.036  0.00  0.00    -0.006 A 
ATOM     25  C   UNL     1       0.002  -0.004   0.055  0.00  0.00    +0.009 A 
ATOM     26  C   UNL     1       1.195  -0.662   0.066  0.00  0.00    +0.001 A 
ATOM     27  C   UNL     1       2.399   0.037   0.058  0.00  0.00    +0.001 A 
ATOM     28  C   UNL     1       2.418   1.398   0.039  0.00  0.00    +0.008 A 
ENDBRANCH  17  19
ENDBRANCH  10  17
BRANCH   1  29
ATOM     29  C   UNL     1      -6.276   3.395   0.363  0.00  0.00    +0.151 C 
BRANCH  29  31
ATOM     30  C   UNL     1      -4.417   4.972   0.511  0.00  0.00    +0.005 C 
ATOM     31  C   UNL     1      -5.087   3.994   1.069  0.00  0.00    -0.013 C 
ENDBRANCH  29  31
ENDBRANCH   1  29
TORSDOF 6
