REMARK  Name = ZINC14244893
REMARK  10 active torsions:
REMARK  status: ('A' for Active; 'I' for Inactive)
REMARK    1  A    between atoms: C_1  and  C_2
REMARK    2  A    between atoms: C_2  and  C_3
REMARK    3  A    between atoms: C_3  and  C_4
REMARK    4  A    between atoms: C_4  and  C_5
REMARK    5  A    between atoms: C_8  and  C_11
REMARK    6  A    between atoms: N_13  and  C_14
REMARK    7  A    between atoms: C_14  and  C_16
REMARK    8  A    between atoms: C_14  and  C_17
REMARK    9  A    between atoms: C_20  and  S_23
REMARK   10  A    between atoms: S_23  and  C_26
REMARK                            x       y       z     vdW  Elec       q    Type
REMARK                         _______ _______ _______ _____ _____    ______ ____
ROOT
ATOM      1  C   UNL     1      -4.078   4.753   5.956  0.00  0.00    +0.217 C 
ATOM      2  O   UNL     1      -4.679   3.981   6.672  0.00  0.00    -0.275 OA
ATOM      3  N   UNL     1      -3.065   4.308   5.186  0.00  0.00    -0.309 N 
ATOM      4  H   UNL     1      -2.584   4.926   4.613  0.00  0.00    +0.149 HD
ENDROOT
BRANCH   1   8
ATOM      5  C   UNL     1      -4.021   6.910   8.737  0.00  0.00    -0.011 C 
ATOM      6  C   UNL     1      -5.216   6.058   8.304  0.00  0.00    +0.004 C 
ATOM      7  C   UNL     1      -5.633   6.447   6.884  0.00  0.00    +0.013 C 
ATOM      8  C   UNL     1      -4.463   6.209   5.926  0.00  0.00    +0.075 C 
ATOM      9  C   UNL     1      -3.269   7.061   6.359  0.00  0.00    +0.013 C 
ATOM     10  C   UNL     1      -2.852   6.673   7.779  0.00  0.00    +0.004 C 
BRANCH   5  11
ATOM     11  C   UNL     1      -3.604   6.521  10.156  0.00  0.00    +0.003 C 
BRANCH  11  12
ATOM     12  C   UNL     1      -2.492   7.456  10.636  0.00  0.00    +0.000 C 
BRANCH  12  14
ATOM     13  C   UNL     1      -0.963   8.002  12.535  0.00  0.00    +0.004 C 
ATOM     14  C   UNL     1      -2.075   7.067  12.056  0.00  0.00    -0.003 C 
ENDBRANCH  12  14
ENDBRANCH  11  12
ENDBRANCH   5  11
ENDBRANCH   1   8
BRANCH   3  15
ATOM     15  C   UNL     1      -2.691   2.892   5.214  0.00  0.00    +0.100 C 
ATOM     16  C   UNL     1      -1.724   2.643   6.373  0.00  0.00    +0.033 C 
BRANCH  15  17
ATOM     17  C   UNL     1      -2.022   2.523   3.914  0.00  0.00    -0.027 A 
ATOM     18  C   UNL     1      -2.295   1.306   3.318  0.00  0.00    +0.007 A 
ATOM     19  C   UNL     1      -1.683   0.968   2.126  0.00  0.00    +0.027 A 
ATOM     20  C   UNL     1      -0.798   1.847   1.530  0.00  0.00    +0.088 A 
ATOM     21  C   UNL     1      -0.521   3.062   2.129  0.00  0.00    +0.027 A 
ATOM     22  C   UNL     1      -1.137   3.402   3.319  0.00  0.00    +0.007 A 
BRANCH  20  23
ATOM     23  S   UNL     1      -0.017   1.417   0.010  0.00  0.00    -0.006 S 
ATOM     24  O   UNL     1       0.002  -0.004   0.002  0.00  0.00    -0.170 OA
ATOM     25  O   UNL     1       1.195   2.158   0.002  0.00  0.00    -0.170 OA
ATOM     26  C   UNL     1      -1.135   2.034  -1.279  0.00  0.00    +0.200 C 
ENDBRANCH  20  23
ENDBRANCH  15  17
ENDBRANCH   3  15
TORSDOF 7
