REMARK  Name = ZINC14350959
REMARK  4 active torsions:
REMARK  status: ('A' for Active; 'I' for Inactive)
REMARK    1  A    between atoms: C_1  and  C_2
REMARK    2  A    between atoms: C_12  and  C_14
REMARK    3  A    between atoms: C_17  and  C_20
REMARK    4  A    between atoms: C_23  and  C_25
REMARK                            x       y       z     vdW  Elec       q    Type
REMARK                         _______ _______ _______ _____ _____    ______ ____
ROOT
ATOM      1  C   UNL     1      -3.362   3.533   6.643  0.00  0.00    +0.037 A 
ATOM      2  C   UNL     1      -2.405   3.295   7.633  0.00  0.00    +0.014 A 
ATOM      3  C   UNL     1      -2.673   3.622   8.938  0.00  0.00    +0.014 A 
ATOM      4  C   UNL     1      -3.906   4.184   9.278  0.00  0.00    +0.039 A 
ATOM      5  C   UNL     1      -4.865   4.417   8.289  0.00  0.00    +0.014 A 
ATOM      6  C   UNL     1      -4.596   4.095   6.983  0.00  0.00    +0.014 A 
ENDROOT
BRANCH   1  17
ATOM      7  C   UNL     1      -0.270   0.868  -2.475  0.00  0.00    +0.008 C 
ATOM      8  C   UNL     1      -0.768   1.601  -1.228  0.00  0.00    -0.009 C 
ATOM      9  C   UNL     1      -2.264   1.333  -1.037  0.00  0.00    +0.010 C 
ATOM     10  C   UNL     1      -2.827   2.247   0.053  0.00  0.00    +0.056 C 
ATOM     11  C   UNL     1      -1.973   2.099   1.306  0.00  0.00    +0.054 A 
ATOM     12  C   UNL     1      -0.722   1.572   1.226  0.00  0.00    +0.015 A 
ATOM     13  S   UNL     1      -0.169   1.617   2.909  0.00  0.00    -0.057 S 
ATOM     14  C   UNL     1      -1.609   2.318   3.587  0.00  0.00    +0.165 A 
ATOM     15  N   UNL     1      -2.376   2.460   2.522  0.00  0.00    -0.229 NA
ATOM     16  N   UNL     1      -1.882   2.644   4.909  0.00  0.00    -0.261 N 
ATOM     17  C   UNL     1      -3.071   3.186   5.237  0.00  0.00    +0.250 C 
ATOM     18  O   UNL     1      -3.906   3.389   4.376  0.00  0.00    -0.270 OA
ATOM     19  C   UNL     1      -0.013   1.086   0.008  0.00  0.00    +0.047 C 
ATOM     20  H   UNL     1      -1.216   2.483   5.596  0.00  0.00    +0.157 HD
ENDBRANCH   1  17
BRANCH   4  21
ATOM     21  C   UNL     1      -4.197   4.531  10.684  0.00  0.00    +0.249 A 
ATOM     22  N   UNL     1      -5.306   5.068  11.139  0.00  0.00    -0.107 NA
ATOM     23  N   UNL     1      -5.212   5.230  12.412  0.00  0.00    -0.107 NA
ATOM     24  C   UNL     1      -4.033   4.812  12.818  0.00  0.00    +0.249 A 
ATOM     25  O   UNL     1      -3.369   4.362  11.735  0.00  0.00    -0.416 OA
BRANCH  24  26
ATOM     26  C   UNL     1      -3.530   4.830  14.207  0.00  0.00    +0.038 A 
ATOM     27  C   UNL     1      -2.254   4.345  14.497  0.00  0.00    +0.013 A 
ATOM     28  C   UNL     1      -1.788   4.371  15.795  0.00  0.00    +0.001 A 
ATOM     29  C   UNL     1      -2.587   4.865  16.811  0.00  0.00    +0.000 A 
ATOM     30  C   UNL     1      -3.856   5.342  16.531  0.00  0.00    +0.001 A 
ATOM     31  C   UNL     1      -4.332   5.328  15.236  0.00  0.00    +0.013 A 
ENDBRANCH  24  26
ENDBRANCH   4  21
TORSDOF 3
