REMARK  Name = ZINC08413292
REMARK  4 active torsions:
REMARK  status: ('A' for Active; 'I' for Inactive)
REMARK    1  A    between atoms: C_1  and  C_2
REMARK    2  A    between atoms: C_3  and  C_24
REMARK    3  A    between atoms: C_4  and  C_14
REMARK    4  A    between atoms: C_18  and  N_20
REMARK                            x       y       z     vdW  Elec       q    Type
REMARK                         _______ _______ _______ _____ _____    ______ ____
ROOT
ATOM      1  C   UNL     1       0.490   3.206   4.379  0.00  0.00    +0.061 C 
ATOM      2  C   UNL     1      -0.460   2.596   3.381  0.00  0.00    +0.014 C 
ATOM      3  C   UNL     1      -1.778   2.833   3.483  0.00  0.00    +0.043 C 
ATOM      4  C   UNL     1      -2.753   2.238   2.513  0.00  0.00    +0.090 C 
ATOM      5  C   UNL     1      -2.053   1.766   1.263  0.00  0.00    +0.024 C 
ATOM      6  C   UNL     1      -0.719   1.565   1.254  0.00  0.00    +0.015 C 
ATOM      7  N   UNL     1       0.027   1.805   2.377  0.00  0.00    -0.321 N 
ATOM      8  C   UNL     1      -0.014   1.077   0.013  0.00  0.00    +0.051 C 
ATOM      9  C   UNL     1      -0.752   1.582  -1.229  0.00  0.00    +0.014 C 
ATOM     10  C   UNL     1      -2.198   1.078  -1.173  0.00  0.00    +0.080 C 
ATOM     11  C   UNL     1      -2.828   1.539   0.112  0.00  0.00    +0.162 C 
ATOM     12  O   UNL     1      -4.029   1.719   0.157  0.00  0.00    -0.292 OA
ATOM     13  H   UNL     1       1.026   1.353   2.467  0.00  0.00    +0.152 HD
ENDROOT
BRANCH   3  14
ATOM     14  C   UNL     1      -2.255   3.662   4.528  0.00  0.00    +0.248 C 
ATOM     15  O   UNL     1      -1.473   4.152   5.322  0.00  0.00    -0.270 OA
ATOM     16  N   UNL     1      -3.575   3.909   4.642  0.00  0.00    -0.267 N 
ATOM     17  C   UNL     1      -4.056   4.635   5.729  0.00  0.00    +0.125 A 
ATOM     18  C   UNL     1      -5.428   4.796   5.897  0.00  0.00    +0.045 A 
ATOM     19  C   UNL     1      -5.892   5.520   6.981  0.00  0.00    +0.020 A 
ATOM     20  C   UNL     1      -4.965   6.060   7.864  0.00  0.00    +0.036 A 
ATOM     21  C   UNL     1      -3.618   5.860   7.635  0.00  0.00    +0.128 A 
ATOM     22  N   UNL     1      -3.205   5.161   6.595  0.00  0.00    -0.239 NA
ATOM     23 BR   UNL     1      -5.542   7.058   9.363  0.00  0.00    -0.049 Br
ATOM     24  H   UNL     1      -4.273   3.537   3.877  0.00  0.00    +0.157 HD
ENDBRANCH   3  14
BRANCH   4  25
ATOM     25  C   UNL     1      -3.446   1.068   3.163  0.00  0.00    -0.033 A 
ATOM     26  C   UNL     1      -2.712  -0.029   3.573  0.00  0.00    +0.006 A 
ATOM     27  C   UNL     1      -3.347  -1.100   4.174  0.00  0.00    +0.022 A 
ATOM     28  C   UNL     1      -4.719  -1.078   4.355  0.00  0.00    +0.071 A 
ATOM     29  C   UNL     1      -5.453   0.018   3.939  0.00  0.00    +0.145 A 
ATOM     30  C   UNL     1      -4.816   1.091   3.343  0.00  0.00    +0.038 A 
ATOM     31 CL   UNL     1      -5.518  -2.425   5.103  0.00  0.00    -0.081 Cl
BRANCH  29  32
ATOM     32  N   UNL     1      -6.920   0.043   4.131  0.00  0.00    +0.058 N 
ATOM     33  O   UNL     1      -7.567   1.008   3.764  0.00  0.00    -0.126 OA
ATOM     34  O   UNL     1      -7.481  -0.902   4.657  0.00  0.00    -0.126 OA
ENDBRANCH  29  32
ENDBRANCH   4  25
TORSDOF 3
