REMARK  Name = ZINC08964820
REMARK  8 active torsions:
REMARK  status: ('A' for Active; 'I' for Inactive)
REMARK    1  A    between atoms: C_1  and  C_2
REMARK    2  A    between atoms: C_6  and  C_33
REMARK    3  A    between atoms: C_6  and  O_34
REMARK    4  A    between atoms: C_7  and  O_32
REMARK    5  A    between atoms: C_17  and  C_19
REMARK    6  A    between atoms: C_19  and  N_70
REMARK    7  A    between atoms: N_22  and  C_25
REMARK    8  A    between atoms: O_34  and  C_35
REMARK                            x       y       z     vdW  Elec       q    Type
REMARK                         _______ _______ _______ _____ _____    ______ ____
ROOT
ATOM      1  C   UNL     1       3.263   0.963  -1.955  0.00  0.00    +0.014 C 
ATOM      2  C   UNL     1       1.760   0.645  -1.885  0.00  0.00    +0.003 C 
ATOM      3  C   UNL     1       1.514  -0.742  -2.473  0.00  0.00    +0.010 C 
ATOM      4  C   UNL     1       1.865  -0.743  -3.960  0.00  0.00    +0.003 C 
ATOM      5  C   UNL     1       0.989   0.262  -4.699  0.00  0.00    +0.037 C 
ATOM      6  C   UNL     1       1.112   1.667  -4.130  0.00  0.00    +0.095 C 
ATOM      7  C   UNL     1       0.934   1.697  -2.608  0.00  0.00    +0.100 C 
ATOM      8  C   UNL     1      -0.559   1.467  -2.355  0.00  0.00    +0.046 C 
ATOM      9  C   UNL     1      -0.962   1.246  -0.931  0.00  0.00    +0.044 C 
ATOM     10  C   UNL     1      -0.052   0.276  -0.154  0.00  0.00    +0.181 C 
ATOM     11  C   UNL     1       1.411   0.636  -0.394  0.00  0.00    +0.054 C 
ATOM     12  O   UNL     1      -0.339   0.619   1.248  0.00  0.00    -0.461 OA
ATOM     13  C   UNL     1      -0.757   1.893   1.349  0.00  0.00    +0.309 C 
ATOM     14  O   UNL     1      -0.993   2.475   2.384  0.00  0.00    -0.251 OA
ATOM     15  C   UNL     1      -0.889   2.498  -0.040  0.00  0.00    +0.088 C 
ATOM     16  C   UNL     1       2.411   2.331  -4.578  0.00  0.00    +0.044 C 
ENDROOT
BRANCH   7  17
ATOM     17  O   UNL     1       1.296   3.006  -2.134  0.00  0.00    -0.385 OA
ATOM     18  H   UNL     1       0.885   3.730  -2.626  0.00  0.00    +0.210 HD
ENDBRANCH   7  17
BRANCH   6  19
ATOM     19  O   UNL     1       0.032   2.450  -4.697  0.00  0.00    -0.374 OA
ATOM     20  C   UNL     1       0.062   2.533  -6.123  0.00  0.00    +0.194 C 
ENDBRANCH   6  19
BRANCH  15  21
ATOM     21  C   UNL     1      -2.177   3.316  -0.146  0.00  0.00    -0.064 C 
BRANCH  21  27
ATOM     22  C   UNL     1      -1.354   4.956  -1.726  0.00  0.00    -0.060 C 
ATOM     23  C   UNL     1      -1.462   5.437  -3.175  0.00  0.00    +0.086 C 
ATOM     24  N   UNL     1      -2.839   5.874  -3.442  0.00  0.00    -0.331 N 
ATOM     25  C   UNL     1      -3.789   4.774  -3.223  0.00  0.00    +0.086 C 
ATOM     26  C   UNL     1      -3.681   4.293  -1.774  0.00  0.00    -0.060 C 
ATOM     27  N   UNL     1      -2.298   3.836  -1.525  0.00  0.00    +0.382 N 
ATOM     28  H   UNL     1      -2.070   3.085  -2.187  0.00  0.00    -0.082 HD
BRANCH  24  29
ATOM     29  C   UNL     1      -2.960   6.389  -4.737  0.00  0.00    +0.065 A 
ATOM     30  C   UNL     1      -4.167   6.924  -5.163  0.00  0.00    +0.026 A 
ATOM     31  C   UNL     1      -4.282   7.436  -6.442  0.00  0.00    +0.002 A 
ATOM     32  C   UNL     1      -3.199   7.406  -7.300  0.00  0.00    +0.003 A 
ATOM     33  C   UNL     1      -1.995   6.870  -6.882  0.00  0.00    +0.040 A 
ATOM     34  C   UNL     1      -1.871   6.360  -5.603  0.00  0.00    +0.144 A 
ATOM     35  F   UNL     1      -0.696   5.835  -5.194  0.00  0.00    -0.204 F 
ENDBRANCH  24  29
ENDBRANCH  21  27
ENDBRANCH  15  21
TORSDOF 5
