REMARK  Name = ZINC12932385
REMARK  10 active torsions:
REMARK  status: ('A' for Active; 'I' for Inactive)
REMARK    1  A    between atoms: C_1  and  C_2
REMARK    2  A    between atoms: C_2  and  C_3
REMARK    3  A    between atoms: C_2  and  C_4
REMARK    4  A    between atoms: C_2  and  C_5
REMARK    5  A    between atoms: C_8  and  S_11
REMARK    6  A    between atoms: S_11  and  N_14
REMARK    7  A    between atoms: N_14  and  N_15
REMARK    8  A    between atoms: C_16  and  C_18
REMARK    9  A    between atoms: C_18  and  C_19
REMARK   10  A    between atoms: C_22  and  C_24
REMARK                            x       y       z     vdW  Elec       q    Type
REMARK                         _______ _______ _______ _____ _____    ______ ____
ROOT
ATOM      1  N   UNL     1       2.260  -2.532  -2.463  0.00  0.00    -0.232 N 
ATOM      2  C   UNL     1       2.960  -3.463  -3.142  0.00  0.00    +0.234 C 
ATOM      3  O   UNL     1       2.692  -4.638  -3.011  0.00  0.00    -0.274 OA
ATOM      4  H   UNL     1       2.475  -1.592  -2.568  0.00  0.00    +0.171 HD
ENDROOT
BRANCH   1   5
ATOM      5  N   UNL     1       1.223  -2.923  -1.606  0.00  0.00    -0.108 NA
ATOM      6  H   UNL     1       0.500  -3.476  -1.940  0.00  0.00    +0.172 HD
BRANCH   5   7
ATOM      7  S   UNL     1       1.232  -2.441  -0.022  0.00  0.00    +0.074 S 
ATOM      8  O   UNL     1       2.489  -2.832   0.515  0.00  0.00    -0.152 OA
ATOM      9  O   UNL     1      -0.002  -2.866   0.539  0.00  0.00    -0.152 OA
BRANCH   7  13
ATOM     10  C   UNL     1       1.171   2.086   0.002  0.00  0.00    -0.042 A 
ATOM     11  C   UNL     1      -0.017   1.378   0.010  0.00  0.00    +0.006 A 
ATOM     12  C   UNL     1       0.002  -0.004   0.002  0.00  0.00    +0.029 A 
ATOM     13  C   UNL     1       1.208  -0.679  -0.013  0.00  0.00    +0.107 A 
ATOM     14  C   UNL     1       2.396   0.029  -0.021  0.00  0.00    +0.029 A 
ATOM     15  C   UNL     1       2.377   1.411  -0.015  0.00  0.00    +0.006 A 
BRANCH  10  17
ATOM     16  C   UNL     1       0.434   4.086   1.268  0.00  0.00    +0.015 C 
ATOM     17  C   UNL     1       1.151   3.592   0.010  0.00  0.00    -0.013 C 
ATOM     18  C   UNL     1       2.586   4.122  -0.001  0.00  0.00    +0.015 C 
ATOM     19  C   UNL     1       0.411   4.099  -1.230  0.00  0.00    +0.015 C 
ENDBRANCH  10  17
ENDBRANCH   7  13
ENDBRANCH   5   7
ENDBRANCH   1   5
BRANCH   2  20
ATOM     20  C   UNL     1       4.075  -3.042  -4.064  0.00  0.00    +0.153 C 
BRANCH  20  21
ATOM     21  C   UNL     1       4.692  -4.264  -4.696  0.00  0.00    +0.058 A 
ATOM     22  C   UNL     1       4.771  -4.363  -6.050  0.00  0.00    +0.071 A 
ATOM     23  S   UNL     1       5.563  -5.958  -6.217  0.00  0.00    -0.075 S 
ATOM     24  C   UNL     1       5.694  -6.321  -4.471  0.00  0.00    +0.109 A 
ATOM     25  N   UNL     1       5.148  -5.236  -3.941  0.00  0.00    -0.243 NA
BRANCH  24  26
ATOM     26  C   UNL     1       6.259  -7.511  -3.800  0.00  0.00    +0.007 A 
ATOM     27  C   UNL     1       6.268  -7.591  -2.407  0.00  0.00    +0.013 A 
ATOM     28  C   UNL     1       6.792  -8.705  -1.786  0.00  0.00    +0.039 A 
ATOM     29  C   UNL     1       7.319  -9.740  -2.542  0.00  0.00    +0.123 A 
ATOM     30  C   UNL     1       7.317  -9.663  -3.926  0.00  0.00    +0.039 A 
ATOM     31  C   UNL     1       6.791  -8.555  -4.557  0.00  0.00    +0.013 A 
ATOM     32  F   UNL     1       7.835 -10.827  -1.929  0.00  0.00    -0.205 F 
ENDBRANCH  24  26
ENDBRANCH  20  21
ENDBRANCH   2  20
TORSDOF 7
