REMARK  Name = ZINC11944695
REMARK  4 active torsions:
REMARK  status: ('A' for Active; 'I' for Inactive)
REMARK    1  A    between atoms: C_8  and  C_10
REMARK    2  A    between atoms: C_13  and  C_15
REMARK    3  A    between atoms: C_20  and  C_21
REMARK    4  A    between atoms: C_21  and  N_36
REMARK                            x       y       z     vdW  Elec       q    Type
REMARK                         _______ _______ _______ _____ _____    ______ ____
ROOT
ATOM      1  C   UNL     1      -2.909   3.924   2.599  0.00  0.00    +0.114 A 
ATOM      2  C   UNL     1      -1.649   4.403   2.337  0.00  0.00    +0.078 A 
ATOM      3  S   UNL     1      -1.202   3.402   0.924  0.00  0.00    -0.075 S 
ATOM      4  C   UNL     1      -2.722   2.467   0.823  0.00  0.00    +0.109 A 
ATOM      5  N   UNL     1      -3.410   2.970   1.834  0.00  0.00    -0.236 NA
ENDROOT
BRANCH   1  13
ATOM      6  C   UNL     1      -6.502   5.838   7.074  0.00  0.00    +0.001 A 
ATOM      7  C   UNL     1      -5.421   6.669   7.328  0.00  0.00    +0.004 A 
ATOM      8  C   UNL     1      -4.289   6.614   6.542  0.00  0.00    +0.047 A 
ATOM      9  C   UNL     1      -4.226   5.718   5.482  0.00  0.00    +0.136 A 
ATOM     10  C   UNL     1      -5.325   4.878   5.229  0.00  0.00    +0.021 A 
ATOM     11  C   UNL     1      -6.461   4.948   6.036  0.00  0.00    +0.011 A 
ATOM     12  C   UNL     1      -4.947   4.074   4.064  0.00  0.00    +0.060 A 
ATOM     13  C   UNL     1      -3.697   4.470   3.724  0.00  0.00    +0.155 A 
ATOM     14  O   UNL     1      -3.281   5.441   4.561  0.00  0.00    -0.453 OA
ENDBRANCH   1  13
BRANCH   4  15
ATOM     15  C   UNL     1      -3.107   1.408  -0.135  0.00  0.00    +0.008 A 
ATOM     16  C   UNL     1      -4.306   0.715   0.032  0.00  0.00    +0.011 A 
ATOM     17  C   UNL     1      -4.657  -0.276  -0.863  0.00  0.00    +0.001 A 
ATOM     18  C   UNL     1      -3.824  -0.579  -1.925  0.00  0.00    +0.000 A 
ATOM     19  C   UNL     1      -2.636   0.108  -2.098  0.00  0.00    +0.002 A 
ATOM     20  C   UNL     1      -2.274   1.101  -1.212  0.00  0.00    -0.055 A 
BRANCH  20  21
ATOM     21  C   UNL     1      -0.979   1.849  -1.402  0.00  0.00    -0.050 C 
BRANCH  21  24
ATOM     22  H   UNL     1       0.137   0.378  -0.491  0.00  0.00    -0.090 HD
ATOM     23  H   UNL     1       0.885   1.862  -0.528  0.00  0.00    -0.090 HD
ATOM     24  N   UNL     1      -0.004   1.382  -0.400  0.00  0.00    +0.381 N 
ATOM     25  H   UNL     1      -0.362   1.587   0.540  0.00  0.00    -0.090 HD
ENDBRANCH  21  24
ENDBRANCH  20  21
ENDBRANCH   4  15
TORSDOF 4
