REMARK  Name = ZINC14833922
REMARK  10 active torsions:
REMARK  status: ('A' for Active; 'I' for Inactive)
REMARK    1  A    between atoms: C_1  and  C_2
REMARK    2  A    between atoms: C_2  and  C_3
REMARK    3  A    between atoms: C_3  and  C_5
REMARK    4  A    between atoms: C_3  and  N_6
REMARK    5  A    between atoms: C_7  and  C_9
REMARK    6  A    between atoms: C_14  and  N_15
REMARK    7  A    between atoms: N_15  and  C_16
REMARK    8  A    between atoms: C_16  and  N_18
REMARK    9  A    between atoms: C_19  and  C_21
REMARK   10  A    between atoms: C_22  and  C_23
REMARK                            x       y       z     vdW  Elec       q    Type
REMARK                         _______ _______ _______ _____ _____    ______ ____
ROOT
ATOM      1  N   UNL     1       2.373  -2.669  -0.057  0.00  0.00    -0.296 N 
ATOM      2  H   UNL     1       2.938  -2.194  -0.686  0.00  0.00    +0.154 HD
ENDROOT
BRANCH   1   8
ATOM      3  C   UNL     1       3.696  -4.691   0.128  0.00  0.00    +0.058 A 
ATOM      4  C   UNL     1       3.756  -6.083   0.220  0.00  0.00    +0.015 A 
ATOM      5  C   UNL     1       2.594  -6.823   0.221  0.00  0.00    +0.001 A 
ATOM      6  C   UNL     1       1.363  -6.193   0.130  0.00  0.00    +0.002 A 
ATOM      7  C   UNL     1       1.287  -4.818   0.043  0.00  0.00    +0.024 A 
ATOM      8  C   UNL     1       2.448  -4.056   0.036  0.00  0.00    +0.045 A 
BRANCH   3  10
ATOM      9  N   UNL     1       6.134  -4.509   0.104  0.00  0.00    -0.309 N 
ATOM     10  C   UNL     1       4.936  -3.892   0.127  0.00  0.00    +0.246 C 
ATOM     11  O   UNL     1       4.877  -2.678   0.148  0.00  0.00    -0.270 OA
ATOM     12  H   UNL     1       6.181  -5.478   0.087  0.00  0.00    +0.149 HD
BRANCH   9  13
ATOM     13  C   UNL     1       7.366  -3.716   0.103  0.00  0.00    +0.070 C 
ATOM     14  C   UNL     1       7.711  -3.310  -1.331  0.00  0.00    +0.028 C 
BRANCH  13  16
ATOM     15  C   UNL     1       8.221  -4.850   2.159  0.00  0.00    +0.005 C 
ATOM     16  C   UNL     1       8.509  -4.549   0.687  0.00  0.00    +0.018 C 
ENDBRANCH  13  16
ENDBRANCH   9  13
ENDBRANCH   3  10
ENDBRANCH   1   8
BRANCH   1  17
ATOM     17  C   UNL     1       1.517  -1.986   0.728  0.00  0.00    +0.141 C 
ATOM     18  S   UNL     1       0.434  -2.831   1.751  0.00  0.00    -0.018 S 
BRANCH  17  19
ATOM     19  N   UNL     1       1.512  -0.638   0.708  0.00  0.00    -0.264 N 
ATOM     20  C   UNL     1       0.655   0.044   1.494  0.00  0.00    +0.242 C 
ATOM     21  O   UNL     1      -0.114  -0.556   2.220  0.00  0.00    -0.270 OA
ATOM     22  H   UNL     1       2.126  -0.160   0.129  0.00  0.00    +0.157 HD
BRANCH  20  23
ATOM     23  C   UNL     1       0.651   1.507   1.472  0.00  0.00    +0.068 C 
ATOM     24  C   UNL     1      -0.211   2.190   2.254  0.00  0.00    +0.013 C 
BRANCH  24  25
ATOM     25  C   UNL     1      -0.216   3.661   2.232  0.00  0.00    -0.025 A 
ATOM     26  C   UNL     1       0.675   4.355   1.406  0.00  0.00    +0.009 A 
ATOM     27  C   UNL     1       0.662   5.733   1.388  0.00  0.00    +0.020 A 
ATOM     28  C   UNL     1      -0.224   6.431   2.192  0.00  0.00    +0.041 A 
ATOM     29  C   UNL     1      -1.106   5.751   3.016  0.00  0.00    +0.020 A 
ATOM     30  C   UNL     1      -1.107   4.373   3.041  0.00  0.00    +0.009 A 
ATOM     31 CL   UNL     1      -0.229   8.167   2.167  0.00  0.00    -0.084 Cl
ENDBRANCH  24  25
ENDBRANCH  20  23
ENDBRANCH  17  19
ENDBRANCH   1  17
TORSDOF 8
