REMARK  Name = ZINC02794072
REMARK  7 active torsions:
REMARK  status: ('A' for Active; 'I' for Inactive)
REMARK    1  A    between atoms: C_1  and  C_2
REMARK    2  A    between atoms: C_2  and  N_3
REMARK    3  A    between atoms: C_5  and  C_8
REMARK    4  A    between atoms: C_8  and  N_9
REMARK    5  A    between atoms: C_10  and  C_12
REMARK    6  A    between atoms: C_16  and  C_25
REMARK    7  A    between atoms: C_18  and  C_21
REMARK                            x       y       z     vdW  Elec       q    Type
REMARK                         _______ _______ _______ _____ _____    ______ ____
ROOT
ATOM      1  C   UNL     1       0.761   9.632   0.045  0.00  0.00    +0.168 A 
ATOM      2  C   UNL     1      -0.198   8.612   0.048  0.00  0.00    +0.117 A 
ATOM      3  C   UNL     1       0.478   7.400   0.035  0.00  0.00    +0.176 A 
ATOM      4  N   UNL     1       0.051   6.131   0.033  0.00  0.00    -0.226 NA
ATOM      5  C   UNL     1       0.913   5.128   0.020  0.00  0.00    +0.082 A 
ATOM      6  C   UNL     1       2.305   5.390   0.015  0.00  0.00    +0.061 A 
ATOM      7  C   UNL     1       2.738   6.668   0.013  0.00  0.00    +0.149 A 
ATOM      8  N   UNL     1       1.821   7.687   0.025  0.00  0.00    -0.208 N 
ATOM      9  N   UNL     1       1.964   9.079   0.031  0.00  0.00    -0.158 NA
ATOM     10 CL   UNL     1      -1.921   8.825   0.063  0.00  0.00    -0.077 Cl
ENDROOT
BRANCH   5  11
ATOM     11  C   UNL     1       0.425   3.737   0.017  0.00  0.00    +0.038 A 
ATOM     12  C   UNL     1      -0.867   3.274   0.027  0.00  0.00    +0.017 A 
ATOM     13  C   UNL     1      -1.081   1.916   0.017  0.00  0.00    +0.008 A 
ATOM     14  C   UNL     1      -0.013   1.076   0.008  0.00  0.00    +0.046 A 
ATOM     15  S   UNL     1       1.361   2.217   0.001  0.00  0.00    -0.095 S 
ENDBRANCH   5  11
BRANCH   1  17
ATOM     16  N   UNL     1       1.494  11.967   0.051  0.00  0.00    -0.306 N 
ATOM     17  C   UNL     1       0.478  11.082   0.055  0.00  0.00    +0.266 C 
ATOM     18  O   UNL     1      -0.672  11.477   0.067  0.00  0.00    -0.268 OA
ATOM     19  H   UNL     1       2.535  11.610   0.040  0.00  0.00    +0.149 HD
BRANCH  16  20
ATOM     20  C   UNL     1       1.214  13.405   0.061  0.00  0.00    +0.143 C 
BRANCH  20  23
ATOM     21  N   UNL     1       4.308  15.222   0.714  0.00  0.00    -0.271 N 
ATOM     22  C   UNL     1       3.205  14.573   1.144  0.00  0.00    +0.113 A 
ATOM     23  C   UNL     1       2.512  14.170   0.054  0.00  0.00    +0.007 A 
ATOM     24  C   UNL     1       3.211  14.595  -1.081  0.00  0.00    +0.139 A 
ATOM     25  N   UNL     1       4.287  15.225  -0.687  0.00  0.00    -0.179 NA
BRANCH  21  27
ATOM     26  C   UNL     1       6.710  15.261   1.173  0.00  0.00    +0.029 C 
ATOM     27  C   UNL     1       5.340  15.822   1.562  0.00  0.00    +0.140 C 
ENDBRANCH  21  27
ENDBRANCH  20  23
ENDBRANCH  16  20
ENDBRANCH   1  17
BRANCH   7  28
ATOM     28  C   UNL     1       4.214   6.973   0.001  0.00  0.00    +0.434 C 
ATOM     29  F   UNL     1       4.682   7.061   1.316  0.00  0.00    -0.164 F 
ATOM     30  F   UNL     1       4.895   5.951  -0.669  0.00  0.00    -0.164 F 
ATOM     31  F   UNL     1       4.434   8.189  -0.655  0.00  0.00    -0.164 F 
ENDBRANCH   7  28
TORSDOF 6
