REMARK  Name = ZINC20684637
REMARK  6 active torsions:
REMARK  status: ('A' for Active; 'I' for Inactive)
REMARK    1  A    between atoms: C_1  and  C_2
REMARK    2  A    between atoms: C_2  and  N_3
REMARK    3  A    between atoms: C_14  and  C_16
REMARK    4  A    between atoms: C_27  and  S_32
REMARK    5  A    between atoms: S_32  and  N_35
REMARK    6  A    between atoms: N_38  and  C_41
REMARK                            x       y       z     vdW  Elec       q    Type
REMARK                         _______ _______ _______ _____ _____    ______ ____
ROOT
ATOM      1  C   UNL     1       0.532   8.940   0.037  0.00  0.00    +0.105 C 
ATOM      2  C   UNL     1       0.501   9.571   1.431  0.00  0.00    +0.029 C 
ATOM      3  C   UNL     1       0.771   8.439   2.462  0.00  0.00    +0.033 C 
ATOM      4  C   UNL     1      -0.587   7.787   2.635  0.00  0.00    -0.030 C 
ATOM      5  C   UNL     1      -1.541   8.613   2.280  0.00  0.00    -0.023 C 
ATOM      6  C   UNL     1      -0.952   9.924   1.815  0.00  0.00    +0.049 C 
ATOM      7  C   UNL     1      -1.735  10.501   0.678  0.00  0.00    -0.018 A 
ATOM      8  C   UNL     1      -2.965  11.086   0.946  0.00  0.00    +0.034 A 
ATOM      9  C   UNL     1      -3.718  11.632  -0.073  0.00  0.00    +0.106 A 
ATOM     10  C   UNL     1      -3.254  11.604  -1.376  0.00  0.00    +0.030 A 
ATOM     11  C   UNL     1      -2.033  11.023  -1.655  0.00  0.00    +0.025 A 
ATOM     12  C   UNL     1      -1.275  10.472  -0.629  0.00  0.00    +0.031 A 
ATOM     13  N   UNL     1      -0.041   9.886  -0.928  0.00  0.00    -0.336 N 
ATOM     14  H   UNL     1       0.499  10.117  -1.857  0.00  0.00    +0.147 HD
ENDROOT
BRANCH   1  26
ATOM     15  N   UNL     1      -2.711   4.316  -0.015  0.00  0.00    -0.340 N 
ATOM     16  C   UNL     1      -3.941   4.852  -0.350  0.00  0.00    +0.050 A 
ATOM     17  C   UNL     1      -5.196   4.277  -0.530  0.00  0.00    +0.026 A 
ATOM     18  C   UNL     1      -6.273   5.066  -0.872  0.00  0.00    +0.002 A 
ATOM     19  C   UNL     1      -6.123   6.435  -1.030  0.00  0.00    +0.001 A 
ATOM     20  C   UNL     1      -4.890   7.023  -0.850  0.00  0.00    +0.010 A 
ATOM     21  C   UNL     1      -3.792   6.237  -0.509  0.00  0.00    +0.008 A 
ATOM     22  C   UNL     1      -2.372   6.537  -0.249  0.00  0.00    +0.008 A 
ATOM     23  C   UNL     1      -1.754   5.314   0.050  0.00  0.00    +0.050 A 
ATOM     24  C   UNL     1      -0.394   5.290   0.342  0.00  0.00    +0.027 A 
ATOM     25  C   UNL     1       0.333   6.461   0.336  0.00  0.00    +0.007 A 
ATOM     26  C   UNL     1      -0.278   7.670   0.039  0.00  0.00    -0.026 A 
ATOM     27  C   UNL     1      -1.625   7.713  -0.252  0.00  0.00    +0.016 A 
BRANCH  15  29
ATOM     28  C   UNL     1      -2.071   2.207  -1.075  0.00  0.00    +0.027 C 
ATOM     29  C   UNL     1      -2.456   2.895   0.236  0.00  0.00    +0.119 C 
ENDBRANCH  15  29
ENDBRANCH   1  26
BRANCH   9  30
ATOM     30  S   UNL     1      -5.277  12.371   0.287  0.00  0.00    +0.061 S 
ATOM     31  O   UNL     1      -6.035  12.324  -0.913  0.00  0.00    -0.153 OA
ATOM     32  O   UNL     1      -5.733  11.786   1.499  0.00  0.00    -0.153 OA
BRANCH  30  33
ATOM     33  N   UNL     1      -4.998  13.971   0.609  0.00  0.00    -0.180 NA
ATOM     34  C   UNL     1      -4.723  14.428   1.980  0.00  0.00    +0.091 C 
ATOM     35  C   UNL     1      -3.442  15.277   1.958  0.00  0.00    -0.062 C 
ATOM     36  N   UNL     1      -3.588  16.349   0.963  0.00  0.00    +0.380 N 
ATOM     37  C   UNL     1      -3.737  15.801  -0.392  0.00  0.00    -0.062 C 
ATOM     38  C   UNL     1      -5.024  14.973  -0.467  0.00  0.00    +0.091 C 
ATOM     39  C   UNL     1      -2.460  17.287   1.031  0.00  0.00    -0.096 C 
ATOM     40  H   UNL     1      -4.507  16.904   1.202  0.00  0.00    -0.082 HD
ENDBRANCH  30  33
ENDBRANCH   9  30
TORSDOF 4
