REMARK  Name = ZINC44285966
REMARK  4 active torsions:
REMARK  status: ('A' for Active; 'I' for Inactive)
REMARK    1  A    between atoms: C_1  and  C_2
REMARK    2  A    between atoms: C_7  and  N_12
REMARK    3  A    between atoms: C_9  and  C_11
REMARK    4  A    between atoms: C_13  and  C_15
REMARK                            x       y       z     vdW  Elec       q    Type
REMARK                         _______ _______ _______ _____ _____    ______ ____
ROOT
ATOM      1  N   UNL     1       0.735  -0.503   3.687  0.00  0.00    -0.306 N 
ATOM      2  C   UNL     1       0.634   0.166   4.853  0.00  0.00    +0.280 C 
ATOM      3  O   UNL     1      -0.046   1.174   4.919  0.00  0.00    -0.267 OA
ATOM      4  H   UNL     1       1.276  -1.306   3.634  0.00  0.00    +0.149 HD
ENDROOT
BRANCH   1  10
ATOM      5  C   UNL     1      -0.019   1.526   0.010  0.00  0.00    +0.008 C 
ATOM      6  C   UNL     1       0.002  -0.004   0.002  0.00  0.00    -0.009 C 
ATOM      7  C   UNL     1      -1.433  -0.534   0.013  0.00  0.00    +0.003 C 
ATOM      8  C   UNL     1      -2.149  -0.040   1.272  0.00  0.00    +0.002 C 
ATOM      9  C   UNL     1      -1.409  -0.547   2.511  0.00  0.00    +0.022 C 
ATOM     10  C   UNL     1       0.026  -0.018   2.500  0.00  0.00    +0.076 C 
ATOM     11  C   UNL     1       0.742  -0.511   1.242  0.00  0.00    +0.009 C 
ATOM     12  C   UNL     1       2.178   0.019   1.231  0.00  0.00    +0.009 C 
ENDBRANCH   1  10
BRANCH   2  13
ATOM     13  C   UNL     1       1.343  -0.319   6.040  0.00  0.00    +0.191 A 
ATOM     14  C   UNL     1       1.322   0.257   7.279  0.00  0.00    +0.056 A 
ATOM     15  C   UNL     1       2.134  -0.534   8.105  0.00  0.00    +0.058 A 
ATOM     16  C   UNL     1       2.609  -1.547   7.345  0.00  0.00    +0.171 A 
ATOM     17  O   UNL     1       2.125  -1.417   6.103  0.00  0.00    -0.444 OA
ATOM     18 BR   UNL     1       3.760  -2.925   7.940  0.00  0.00    -0.008 Br
ENDBRANCH   2  13
TORSDOF 2
