REMARK  Name = ZINC30034032
REMARK  9 active torsions:
REMARK  status: ('A' for Active; 'I' for Inactive)
REMARK    1  A    between atoms: C_1  and  C_2
REMARK    2  A    between atoms: C_2  and  C_3
REMARK    3  A    between atoms: C_4  and  C_33
REMARK    4  A    between atoms: C_6  and  C_8
REMARK    5  A    between atoms: N_10  and  N_11
REMARK    6  A    between atoms: C_12  and  C_14
REMARK    7  A    between atoms: C_21  and  C_23
REMARK    8  A    between atoms: C_28  and  O_29
REMARK    9  A    between atoms: O_29  and  C_30
REMARK                            x       y       z     vdW  Elec       q    Type
REMARK                         _______ _______ _______ _____ _____    ______ ____
ROOT
ATOM      1  C   UNL     1       3.286  -4.638  -1.506  0.00  0.00    +0.094 C 
ATOM      2  C   UNL     1       4.664  -3.975  -1.432  0.00  0.00    +0.016 C 
ATOM      3  C   UNL     1       4.499  -2.454  -1.397  0.00  0.00    +0.020 C 
ATOM      4  C   UNL     1       3.704  -2.059  -0.154  0.00  0.00    +0.108 C 
ATOM      5  N   UNL     1       2.438  -2.804  -0.139  0.00  0.00    -0.297 N 
ATOM      6  C   UNL     1       2.478  -4.268  -0.259  0.00  0.00    +0.120 C 
ATOM      7  C   UNL     1       1.261  -2.157  -0.022  0.00  0.00    +0.250 C 
ATOM      8  O   UNL     1       0.227  -2.788   0.080  0.00  0.00    -0.270 OA
ENDROOT
BRANCH   7   9
ATOM      9  C   UNL     1       1.228  -0.682  -0.018  0.00  0.00    +0.079 A 
ATOM     10  C   UNL     1       2.034   0.037   0.869  0.00  0.00    +0.017 A 
ATOM     11  C   UNL     1       1.999   1.414   0.868  0.00  0.00    +0.001 A 
ATOM     12  C   UNL     1       1.167   2.091  -0.010  0.00  0.00    +0.004 A 
ATOM     13  C   UNL     1       0.366   1.394  -0.891  0.00  0.00    +0.046 A 
ATOM     14  C   UNL     1       0.389   0.007  -0.904  0.00  0.00    +0.139 A 
BRANCH  14  15
ATOM     15  O   UNL     1      -0.399  -0.680  -1.769  0.00  0.00    -0.433 OA
BRANCH  15  16
ATOM     16  C   UNL     1      -1.228   0.090  -2.642  0.00  0.00    +0.541 C 
ATOM     17  F   UNL     1      -2.102   0.876  -1.882  0.00  0.00    -0.166 F 
ATOM     18  F   UNL     1      -0.428   0.917  -3.437  0.00  0.00    -0.166 F 
ENDBRANCH  15  16
ENDBRANCH  14  15
ENDBRANCH   7   9
BRANCH   1  20
ATOM     19  N   UNL     1       2.365  -6.930  -1.641  0.00  0.00    -0.234 N 
ATOM     20  C   UNL     1       3.451  -6.135  -1.573  0.00  0.00    +0.234 C 
ATOM     21  O   UNL     1       4.561  -6.623  -1.565  0.00  0.00    -0.274 OA
ATOM     22  H   UNL     1       1.358  -6.486  -1.648  0.00  0.00    +0.173 HD
BRANCH  19  25
ATOM     23  C   UNL     1       1.432  -9.116  -1.772  0.00  0.00    +0.267 C 
ATOM     24  O   UNL     1       0.318  -8.626  -1.780  0.00  0.00    -0.268 OA
ATOM     25  N   UNL     1       2.518  -8.321  -1.703  0.00  0.00    -0.230 N 
ATOM     26  H   UNL     1       3.525  -8.764  -1.696  0.00  0.00    +0.173 HD
BRANCH  23  30
ATOM     27  C   UNL     1       2.382 -13.118  -1.935  0.00  0.00    -0.007 A 
ATOM     28  C   UNL     1       1.048 -12.858  -1.960  0.00  0.00    -0.040 A 
ATOM     29  C   UNL     1       0.619 -11.556  -1.905  0.00  0.00    +0.024 A 
ATOM     30  C   UNL     1       1.592 -10.572  -1.837  0.00  0.00    +0.076 A 
ATOM     31  S   UNL     1       3.091 -11.539  -1.840  0.00  0.00    -0.088 S 
ATOM     32  C   UNL     1       0.053 -13.987  -2.041  0.00  0.00    +0.044 C 
BRANCH  27  34
ATOM     33  C   UNL     1       3.352 -14.840  -3.433  0.00  0.00    +0.009 C 
ATOM     34  C   UNL     1       3.076 -14.455  -1.978  0.00  0.00    +0.039 C 
ENDBRANCH  27  34
ENDBRANCH  23  30
ENDBRANCH  19  25
ENDBRANCH   1  20
TORSDOF 7
