REMARK  Name = ZINC18068106
REMARK  6 active torsions:
REMARK  status: ('A' for Active; 'I' for Inactive)
REMARK    1  A    between atoms: C_1  and  C_2
REMARK    2  A    between atoms: C_2  and  C_5
REMARK    3  A    between atoms: N_3  and  O_4
REMARK    4  A    between atoms: C_5  and  C_6
REMARK    5  A    between atoms: C_6  and  C_9
REMARK    6  A    between atoms: N_7  and  O_8
REMARK                            x       y       z     vdW  Elec       q    Type
REMARK                         _______ _______ _______ _____ _____    ______ ____
ROOT
ATOM      1  C   UNL     1      -0.000  -0.750  -1.307  0.00  0.00    +0.107 C 
ENDROOT
BRANCH   1   3
ATOM      2  C   UNL     1      -0.018   1.503   0.010  0.00  0.00    +0.064 C 
ATOM      3  C   UNL     1       0.002  -0.004   0.002  0.00  0.00    +0.060 C 
ATOM      4  N   UNL     1       0.021  -0.650   1.107  0.00  0.00    -0.096 NA
BRANCH   4   5
ATOM      5  O   UNL     1       0.023   0.052   2.337  0.00  0.00    -0.409 OA
ATOM      6  H   UNL     1       0.039  -0.521   3.116  0.00  0.00    +0.328 HD
ENDBRANCH   4   5
ENDBRANCH   1   3
BRANCH   1   7
ATOM      7  C   UNL     1      -1.298  -0.495  -2.029  0.00  0.00    +0.060 C 
ATOM      8  N   UNL     1      -1.298   0.135  -3.142  0.00  0.00    -0.096 NA
ATOM      9  C   UNL     1      -2.597  -0.983  -1.439  0.00  0.00    +0.064 C 
BRANCH   8  10
ATOM     10  O   UNL     1      -2.518   0.375  -3.820  0.00  0.00    -0.409 OA
ATOM     11  H   UNL     1      -2.417   0.858  -4.652  0.00  0.00    +0.328 HD
ENDBRANCH   8  10
ENDBRANCH   1   7
TORSDOF 4
