REMARK  Name = ZINC59400702
REMARK  8 active torsions:
REMARK  status: ('A' for Active; 'I' for Inactive)
REMARK    1  A    between atoms: C_1  and  O_2
REMARK    2  A    between atoms: O_2  and  C_3
REMARK    3  A    between atoms: C_4  and  C_11
REMARK    4  A    between atoms: N_13  and  C_14
REMARK    5  A    between atoms: C_14  and  C_15
REMARK    6  A    between atoms: C_15  and  N_16
REMARK    7  A    between atoms: N_16  and  C_17
REMARK    8  A    between atoms: C_22  and  N_23
REMARK                            x       y       z     vdW  Elec       q    Type
REMARK                         _______ _______ _______ _____ _____    ______ ____
ROOT
ATOM      1  C   UNL     1      -1.755   0.766   2.697  0.00  0.00    +0.248 C 
ATOM      2  O   UNL     1      -0.688   1.349   2.721  0.00  0.00    -0.270 OA
ATOM      3  N   UNL     1      -2.250   0.219   3.825  0.00  0.00    -0.310 N 
ATOM      4  H   UNL     1      -3.101  -0.245   3.806  0.00  0.00    +0.149 HD
ENDROOT
BRANCH   1   6
ATOM      5  C   UNL     1      -1.998   1.227   0.258  0.00  0.00    +0.146 A 
ATOM      6  C   UNL     1      -2.509   0.659   1.433  0.00  0.00    +0.080 A 
ATOM      7  C   UNL     1      -3.735  -0.009   1.401  0.00  0.00    +0.032 A 
ATOM      8  C   UNL     1      -4.435  -0.106   0.217  0.00  0.00    +0.020 A 
ATOM      9  C   UNL     1      -3.926   0.456  -0.943  0.00  0.00    +0.034 A 
ATOM     10  C   UNL     1      -2.718   1.125  -0.924  0.00  0.00    +0.061 A 
ATOM     11 BR   UNL     1      -2.039   1.896  -2.512  0.00  0.00    -0.046 Br
ATOM     12 BR   UNL     1      -6.094  -1.012   0.175  0.00  0.00    -0.050 Br
BRANCH   5  14
ATOM     13  C   UNL     1      -0.840   3.279   0.558  0.00  0.00    +0.277 C 
ATOM     14  O   UNL     1      -0.808   1.879   0.278  0.00  0.00    -0.493 OA
ENDBRANCH   5  14
ENDBRANCH   1   6
BRANCH   3  15
ATOM     15  C   UNL     1      -1.502   0.326   5.080  0.00  0.00    +0.123 C 
BRANCH  15  16
ATOM     16  C   UNL     1      -2.277  -0.374   6.198  0.00  0.00    +0.120 C 
BRANCH  16  17
ATOM     17  N   UNL     1      -1.529  -0.268   7.452  0.00  0.00    -0.341 N 
ATOM     18  H   UNL     1      -0.678   0.197   7.472  0.00  0.00    +0.146 HD
BRANCH  17  19
ATOM     19  C   UNL     1      -2.042  -0.836   8.622  0.00  0.00    +0.058 A 
ATOM     20  C   UNL     1      -3.314  -1.394   8.625  0.00  0.00    +0.026 A 
ATOM     21  C   UNL     1      -3.818  -1.954   9.782  0.00  0.00    +0.022 A 
ATOM     22  C   UNL     1      -3.057  -1.960  10.938  0.00  0.00    +0.043 A 
ATOM     23  C   UNL     1      -1.790  -1.404  10.938  0.00  0.00    +0.054 A 
ATOM     24  C   UNL     1      -1.278  -0.848   9.782  0.00  0.00    +0.148 A 
ATOM     25 CL   UNL     1      -3.694  -2.665  12.391  0.00  0.00    -0.083 Cl
BRANCH  24  26
ATOM     26  N   UNL     1       0.080  -0.260   9.781  0.00  0.00    +0.058 N 
ATOM     27  O   UNL     1       0.793  -0.388   8.814  0.00  0.00    -0.126 OA
ATOM     28  O   UNL     1       0.476   0.349  10.748  0.00  0.00    -0.126 OA
ENDBRANCH  24  26
ENDBRANCH  17  19
ENDBRANCH  16  17
ENDBRANCH  15  16
ENDBRANCH   3  15
TORSDOF 7
