REMARK  Name = ZINC08419010
REMARK  3 active torsions:
REMARK  status: ('A' for Active; 'I' for Inactive)
REMARK    1  A    between atoms: C_3  and  N_15
REMARK    2  A    between atoms: C_6  and  N_7
REMARK    3  A    between atoms: N_7  and  C_8
REMARK                            x       y       z     vdW  Elec       q    Type
REMARK                         _______ _______ _______ _____ _____    ______ ____
ROOT
ATOM      1  C   UNL     1       0.236   0.084   0.372  0.00  0.00    +0.025 A 
ATOM      2  C   UNL     1       0.173   1.258   1.095  0.00  0.00    +0.034 A 
ATOM      3  C   UNL     1       1.040   1.469   2.152  0.00  0.00    +0.126 A 
ATOM      4  C   UNL     1       1.972   0.505   2.489  0.00  0.00    +0.034 A 
ATOM      5  C   UNL     1       2.040  -0.672   1.771  0.00  0.00    +0.025 A 
ATOM      6  C   UNL     1       1.172  -0.887   0.708  0.00  0.00    +0.031 A 
ENDROOT
BRANCH   3   7
ATOM      7  N   UNL     1       0.969   2.730   2.924  0.00  0.00    +0.056 N 
ATOM      8  O   UNL     1       0.149   3.581   2.628  0.00  0.00    -0.126 OA
ATOM      9  O   UNL     1       1.731   2.917   3.856  0.00  0.00    -0.126 OA
ENDBRANCH   3   7
BRANCH   6  10
ATOM     10  N   UNL     1       1.238  -2.078  -0.021  0.00  0.00    -0.314 N 
ATOM     11  H   UNL     1       0.440  -2.433  -0.443  0.00  0.00    +0.152 HD
BRANCH  10  12
ATOM     12  C   UNL     1       2.454  -2.756  -0.141  0.00  0.00    +0.031 A 
ATOM     13  C   UNL     1       3.648  -2.047  -0.155  0.00  0.00    +0.024 A 
ATOM     14  C   UNL     1       4.848  -2.721  -0.269  0.00  0.00    +0.016 A 
ATOM     15  C   UNL     1       4.861  -4.099  -0.381  0.00  0.00    +0.013 A 
ATOM     16  C   UNL     1       3.673  -4.808  -0.373  0.00  0.00    +0.016 A 
ATOM     17  C   UNL     1       2.470  -4.141  -0.253  0.00  0.00    +0.024 A 
ATOM     18  I   UNL     1       6.684  -5.117  -0.562  0.00  0.00    -0.044 I 
ENDBRANCH  10  12
ENDBRANCH   6  10
TORSDOF 3
