REMARK  Name = ZINC42910950
REMARK  9 active torsions:
REMARK  status: ('A' for Active; 'I' for Inactive)
REMARK    1  A    between atoms: C_1  and  C_2
REMARK    2  A    between atoms: C_2  and  C_28
REMARK    3  A    between atoms: C_4  and  N_10
REMARK    4  A    between atoms: C_6  and  C_8
REMARK    5  A    between atoms: C_6  and  C_9
REMARK    6  A    between atoms: N_13  and  C_14
REMARK    7  A    between atoms: C_14  and  C_15
REMARK    8  A    between atoms: C_15  and  C_17
REMARK    9  A    between atoms: C_15  and  N_22
REMARK                            x       y       z     vdW  Elec       q    Type
REMARK                         _______ _______ _______ _____ _____    ______ ____
ROOT
ATOM      1  N   UNL     1       2.140  -0.736  -3.157  0.00  0.00    -0.297 N 
ATOM      2  C   UNL     1       3.371  -0.286  -3.469  0.00  0.00    +0.300 C 
ATOM      3  O   UNL     1       3.901   0.564  -2.779  0.00  0.00    -0.253 OA
ATOM      4  N   UNL     1       4.016  -0.777  -4.546  0.00  0.00    -0.298 N 
ATOM      5  H   UNL     1       1.718  -1.414  -3.708  0.00  0.00    +0.151 HD
ATOM      6  H   UNL     1       3.594  -1.455  -5.096  0.00  0.00    +0.150 HD
ENDROOT
BRANCH   1  10
ATOM      7  C   UNL     1      -0.802   1.691  -0.954  0.00  0.00    -0.010 C 
ATOM      8  C   UNL     1      -0.824   0.159  -0.963  0.00  0.00    -0.072 C 
ATOM      9  C   UNL     1      -0.070  -0.361  -2.183  0.00  0.00    +0.009 C 
ATOM     10  C   UNL     1       1.438  -0.201  -1.984  0.00  0.00    +0.072 C 
ATOM     11  C   UNL     1       1.843  -1.000  -0.746  0.00  0.00    +0.009 C 
ATOM     12  C   UNL     1       1.103  -0.486   0.485  0.00  0.00    -0.072 C 
ATOM     13  N   UNL     1      -0.333  -0.384   0.291  0.00  0.00    +0.386 N 
ATOM     14  C   UNL     1       1.702   0.853   0.928  0.00  0.00    -0.010 C 
ATOM     15  C   UNL     1       1.353  -1.496   1.629  0.00  0.00    -0.010 C 
ATOM     16  C   UNL     1      -2.301  -0.273  -1.116  0.00  0.00    -0.010 C 
ATOM     17  H   UNL     1      -0.721   0.176   1.057  0.00  0.00    -0.084 HD
ATOM     18  H   UNL     1      -0.740  -1.316   0.418  0.00  0.00    -0.084 HD
ENDBRANCH   1  10
BRANCH   4  19
ATOM     19  C   UNL     1       5.354  -0.287  -4.885  0.00  0.00    +0.130 C 
BRANCH  19  20
ATOM     20  C   UNL     1       5.896  -1.071  -6.082  0.00  0.00    +0.111 C 
BRANCH  20  21
ATOM     21  N   UNL     1       5.835  -2.510  -5.793  0.00  0.00    -0.289 NA
ATOM     22  C   UNL     1       6.599  -2.837  -4.580  0.00  0.00    +0.113 C 
ATOM     23  C   UNL     1       6.461  -4.332  -4.284  0.00  0.00    +0.175 C 
ATOM     24  O   UNL     1       6.901  -5.081  -5.419  0.00  0.00    -0.377 OA
ATOM     25  C   UNL     1       6.178  -4.789  -6.618  0.00  0.00    +0.175 C 
ATOM     26  C   UNL     1       6.314  -3.298  -6.938  0.00  0.00    +0.113 C 
ENDBRANCH  20  21
BRANCH  20  27
ATOM     27  C   UNL     1       5.062  -0.767  -7.300  0.00  0.00    +0.008 A 
ATOM     28  C   UNL     1       5.325   0.079  -8.326  0.00  0.00    +0.013 A 
ATOM     29  C   UNL     1       4.404   0.198  -9.349  0.00  0.00    +0.008 A 
ATOM     30  C   UNL     1       3.265  -0.534  -9.298  0.00  0.00    +0.045 A 
ATOM     31  S   UNL     1       3.475  -1.435  -7.771  0.00  0.00    -0.100 S 
ENDBRANCH  20  27
ENDBRANCH  19  20
ENDBRANCH   4  19
TORSDOF 5
