REMARK  Name = ZINC21881119
REMARK  6 active torsions:
REMARK  status: ('A' for Active; 'I' for Inactive)
REMARK    1  A    between atoms: C_1  and  N_2
REMARK    2  A    between atoms: N_2  and  C_3
REMARK    3  A    between atoms: N_2  and  S_17
REMARK    4  A    between atoms: C_3  and  C_4
REMARK    5  A    between atoms: N_6  and  C_7
REMARK    6  A    between atoms: S_17  and  C_20
REMARK                            x       y       z     vdW  Elec       q    Type
REMARK                         _______ _______ _______ _____ _____    ______ ____
ROOT
ATOM      1  C   UNL     1      -5.197  -0.267   2.273  0.00  0.00    +0.132 C 
ATOM      2  N   UNL     1      -4.356  -1.233   1.562  0.00  0.00    -0.171 NA
ENDROOT
BRANCH   2   3
ATOM      3  S   UNL     1      -3.939  -0.962  -0.018  0.00  0.00    +0.061 S 
ATOM      4  O   UNL     1      -4.932  -0.101  -0.558  0.00  0.00    -0.153 OA
ATOM      5  O   UNL     1      -3.643  -2.232  -0.583  0.00  0.00    -0.153 OA
BRANCH   3   6
ATOM      6  C   UNL     1      -2.432  -0.051  -0.010  0.00  0.00    +0.106 A 
ATOM      7  C   UNL     1      -2.453   1.332   0.006  0.00  0.00    +0.030 A 
ATOM      8  C   UNL     1      -1.268   2.028   0.008  0.00  0.00    +0.025 A 
ATOM      9  C   UNL     1      -0.028   1.365  -0.006  0.00  0.00    +0.037 A 
ATOM     10  C   UNL     1      -0.013  -0.012  -0.013  0.00  0.00    -0.024 A 
ATOM     11  C   UNL     1      -1.223  -0.708  -0.019  0.00  0.00    +0.034 A 
ATOM     12  C   UNL     1       1.216  -0.862  -0.011  0.00  0.00    +0.037 C 
ATOM     13  C   UNL     1       2.371  -0.333   0.781  0.00  0.00    +0.014 C 
ATOM     14  C   UNL     1       3.123   0.774   0.083  0.00  0.00    +0.096 C 
ATOM     15  C   UNL     1       2.360   2.050   0.083  0.00  0.00    +0.217 C 
ATOM     16  O   UNL     1       3.010   3.068   0.192  0.00  0.00    -0.275 OA
ATOM     17  N   UNL     1       1.069   2.195  -0.020  0.00  0.00    -0.285 N 
ATOM     18  H   UNL     1       0.937   3.280  -0.145  0.00  0.00    +0.155 HD
ENDBRANCH   3   6
ENDBRANCH   2   3
BRANCH   2  19
ATOM     19  C   UNL     1      -3.885  -2.438   2.248  0.00  0.00    +0.205 C 
BRANCH  19  20
ATOM     20  C   UNL     1      -2.624  -2.121   3.010  0.00  0.00    +0.233 C 
ATOM     21  O   UNL     1      -2.165  -0.999   2.984  0.00  0.00    -0.274 OA
ATOM     22  N   UNL     1      -2.007  -3.085   3.722  0.00  0.00    -0.284 N 
ATOM     23  H   UNL     1      -2.462  -4.083   3.808  0.00  0.00    +0.155 HD
BRANCH  22  24
ATOM     24  C   UNL     1      -0.787  -2.816   4.353  0.00  0.00    +0.037 A 
ATOM     25  C   UNL     1      -0.547  -1.558   4.881  0.00  0.00    +0.023 A 
ATOM     26  C   UNL     1       0.658  -1.295   5.503  0.00  0.00    +0.002 A 
ATOM     27  C   UNL     1       1.616  -2.285   5.591  0.00  0.00    +0.004 A 
ATOM     28  C   UNL     1       1.381  -3.547   5.061  0.00  0.00    -0.042 A 
ATOM     29  C   UNL     1       0.178  -3.818   4.450  0.00  0.00    -0.023 A 
ATOM     30  C   UNL     1      -0.147  -5.166   3.862  0.00  0.00    +0.037 C 
ATOM     31  C   UNL     1       1.125  -5.986   3.655  0.00  0.00    +0.005 C 
ATOM     32  C   UNL     1       1.922  -5.981   4.965  0.00  0.00    +0.005 C 
ATOM     33  C   UNL     1       2.476  -4.575   5.187  0.00  0.00    +0.035 C 
ENDBRANCH  22  24
ENDBRANCH  19  20
ENDBRANCH   2  19
TORSDOF 5
