REMARK  Name = ZINC50007062
REMARK  4 active torsions:
REMARK  status: ('A' for Active; 'I' for Inactive)
REMARK    1  A    between atoms: C_1  and  C_2
REMARK    2  A    between atoms: C_5  and  C_7
REMARK    3  A    between atoms: C_10  and  N_13
REMARK    4  A    between atoms: C_14  and  C_16
REMARK                            x       y       z     vdW  Elec       q    Type
REMARK                         _______ _______ _______ _____ _____    ______ ____
ROOT
ATOM      1  C   UNL     1       1.039  -4.034  -0.026  0.00  0.00    +0.190 A 
ATOM      2  N   UNL     1       2.336  -4.371  -0.034  0.00  0.00    -0.189 NA
ATOM      3  H   UNL     1       0.966  -7.158  -0.044  0.00  0.00    +0.192 HD
ATOM      4  C   UNL     1       2.453  -5.686  -0.042  0.00  0.00    +0.250 A 
ATOM      5  N   UNL     1       1.199  -6.216  -0.039  0.00  0.00    -0.243 N 
ATOM      6  N   UNL     1       0.309  -5.130  -0.023  0.00  0.00    -0.150 NA
ENDROOT
BRANCH   1  11
ATOM      7  C   UNL     1      -0.018   1.503   0.010  0.00  0.00    +0.051 C 
ATOM      8  C   UNL     1       0.002  -0.004   0.002  0.00  0.00    -0.013 A 
ATOM      9  C   UNL     1      -1.042  -0.872   0.002  0.00  0.00    +0.011 A 
ATOM     10  C   UNL     1      -0.789  -2.226  -0.007  0.00  0.00    +0.019 A 
ATOM     11  C   UNL     1       0.511  -2.653  -0.016  0.00  0.00    +0.058 A 
ATOM     12  S   UNL     1       1.405  -1.107  -0.018  0.00  0.00    -0.090 S 
ENDBRANCH   1  11
BRANCH   4  13
ATOM     13  N   UNL     1       3.618  -6.386  -0.052  0.00  0.00    -0.172 NA
ATOM     14  C   UNL     1       4.767  -5.748  -0.055  0.00  0.00    +0.284 C 
ATOM     15  O   UNL     1       4.791  -4.397  -0.047  0.00  0.00    -0.265 OA
BRANCH  14  16
ATOM     16  C   UNL     1       6.030  -6.506  -0.066  0.00  0.00    +0.079 A 
ATOM     17  C   UNL     1       7.395  -5.960  -0.064  0.00  0.00    +0.054 A 
ATOM     18  C   UNL     1       8.217  -7.021  -0.076  0.00  0.00    +0.195 A 
ATOM     19  O   UNL     1       7.484  -8.145  -0.085  0.00  0.00    -0.470 OA
ATOM     20  C   UNL     1       6.177  -7.863  -0.074  0.00  0.00    +0.208 A 
ENDBRANCH  14  16
ENDBRANCH   4  13
TORSDOF 3
