REMARK  Name = ZINC23198049
REMARK  11 active torsions:
REMARK  status: ('A' for Active; 'I' for Inactive)
REMARK    1  A    between atoms: C_1  and  C_2
REMARK    2  A    between atoms: C_2  and  N_3
REMARK    3  A    between atoms: N_3  and  C_4
REMARK    4  A    between atoms: N_3  and  C_6
REMARK    5  A    between atoms: C_4  and  C_5
REMARK    6  A    between atoms: C_6  and  C_8
REMARK    7  A    between atoms: C_6  and  C_15
REMARK    8  A    between atoms: C_8  and  C_9
REMARK    9  A    between atoms: C_15  and  N_16
REMARK   10  A    between atoms: C_17  and  C_19
REMARK   11  A    between atoms: N_24  and  C_26
REMARK                            x       y       z     vdW  Elec       q    Type
REMARK                         _______ _______ _______ _____ _____    ______ ____
ROOT
ATOM      1  N   UNL     1       9.304  -1.535   1.922  0.00  0.00    -0.317 N 
ATOM      2  C   UNL     1       8.017  -1.383   2.294  0.00  0.00    +0.218 C 
ATOM      3  O   UNL     1       7.126  -1.711   1.540  0.00  0.00    -0.275 OA
ATOM      4  H   UNL     1      10.113  -1.238   2.607  0.00  0.00    +0.149 HD
ENDROOT
BRANCH   2   5
ATOM      5  C   UNL     1       7.687  -0.808   3.647  0.00  0.00    +0.101 C 
ATOM      6  C   UNL     1       8.232   0.633   3.784  0.00  0.00    +0.110 C 
ATOM      7  C   UNL     1       7.073   1.509   3.363  0.00  0.00    +0.221 C 
ATOM      8  O   UNL     1       7.161   2.681   3.061  0.00  0.00    -0.275 OA
ATOM      9  N   UNL     1       5.930   0.801   3.374  0.00  0.00    -0.271 N 
ATOM     10  C   UNL     1       6.164  -0.583   3.802  0.00  0.00    +0.127 C 
BRANCH   9  11
ATOM     11  C   UNL     1       4.676   1.320   3.026  0.00  0.00    +0.040 A 
ATOM     12  C   UNL     1       3.572   0.481   2.960  0.00  0.00    +0.027 A 
ATOM     13  C   UNL     1       2.334   0.991   2.618  0.00  0.00    +0.051 A 
ATOM     14  C   UNL     1       2.191   2.341   2.341  0.00  0.00    +0.166 A 
ATOM     15  C   UNL     1       3.296   3.185   2.407  0.00  0.00    +0.168 A 
ATOM     16  C   UNL     1       4.536   2.673   2.749  0.00  0.00    +0.073 A 
ATOM     17  O   UNL     1       2.897   4.452   2.093  0.00  0.00    -0.453 OA
ATOM     18  C   UNL     1       1.464   4.450   2.234  0.00  0.00    +0.466 C 
ATOM     19  O   UNL     1       1.098   3.080   1.986  0.00  0.00    -0.453 OA
ENDBRANCH   9  11
ENDBRANCH   2   5
BRANCH   1  20
ATOM     20  C   UNL     1       9.626  -2.095   0.607  0.00  0.00    +0.089 C 
BRANCH  20  21
ATOM     21  C   UNL     1      11.143  -2.228   0.467  0.00  0.00    -0.047 C 
BRANCH  21  22
ATOM     22  N   UNL     1      11.762  -0.898   0.556  0.00  0.00    +0.382 N 
ATOM     23  H   UNL     1      12.636  -0.886  -0.111  0.00  0.00    -0.081 HD
BRANCH  22  25
ATOM     24  C   UNL     1      10.736   0.114  -1.424  0.00  0.00    -0.017 C 
ATOM     25  C   UNL     1      10.834   0.146   0.103  0.00  0.00    -0.082 C 
ENDBRANCH  22  25
BRANCH  22  26
ATOM     26  C   UNL     1      12.233  -0.627   1.921  0.00  0.00    -0.082 C 
ATOM     27  C   UNL     1      13.532  -1.394   2.174  0.00  0.00    -0.017 C 
ENDBRANCH  22  26
ENDBRANCH  21  22
BRANCH  21  28
ATOM     28  C   UNL     1      11.477  -2.855  -0.888  0.00  0.00    +0.021 C 
BRANCH  28  29
ATOM     29  C   UNL     1      12.963  -3.090  -0.980  0.00  0.00    -0.049 A 
ATOM     30  C   UNL     1      13.796  -2.079  -1.422  0.00  0.00    +0.003 A 
ATOM     31  C   UNL     1      15.160  -2.293  -1.502  0.00  0.00    +0.000 A 
ATOM     32  C   UNL     1      15.689  -3.521  -1.151  0.00  0.00    +0.000 A 
ATOM     33  C   UNL     1      14.855  -4.533  -0.714  0.00  0.00    +0.000 A 
ATOM     34  C   UNL     1      13.492  -4.318  -0.629  0.00  0.00    +0.003 A 
ENDBRANCH  28  29
ENDBRANCH  21  28
ENDBRANCH  20  21
ENDBRANCH   1  20
TORSDOF 9
