REMARK  Name = ZINC34750144
REMARK  9 active torsions:
REMARK  status: ('A' for Active; 'I' for Inactive)
REMARK    1  A    between atoms: C_1  and  C_2
REMARK    2  A    between atoms: C_2  and  C_37
REMARK    3  A    between atoms: C_9  and  N_22
REMARK    4  A    between atoms: C_11  and  S_13
REMARK    5  A    between atoms: S_13  and  C_14
REMARK    6  A    between atoms: C_14  and  C_15
REMARK    7  A    between atoms: C_15  and  C_16
REMARK    8  A    between atoms: N_25  and  C_28
REMARK    9  A    between atoms: C_28  and  C_29
REMARK                            x       y       z     vdW  Elec       q    Type
REMARK                         _______ _______ _______ _____ _____    ______ ____
ROOT
ATOM      1  C   UNL     1       0.001   1.485   0.024  0.00  0.00    +0.041 C 
ATOM      2  C   UNL     1       0.008  -0.045   0.013  0.00  0.00    +0.068 C 
ATOM      3  C   UNL     1      -1.434  -0.559   0.004  0.00  0.00    +0.071 C 
ATOM      4  C   UNL     1      -2.057  -0.251   1.364  0.00  0.00    -0.020 A 
ATOM      5  C   UNL     1      -1.251   0.034   2.414  0.00  0.00    +0.021 A 
ATOM      6  S   UNL     1      -2.347   0.324   3.777  0.00  0.00    -0.071 S 
ATOM      7  C   UNL     1      -3.880   0.065   2.943  0.00  0.00    +0.115 A 
ATOM      8  C   UNL     1      -3.487  -0.243   1.615  0.00  0.00    +0.051 A 
ATOM      9  C   UNL     1      -4.528  -0.508   0.679  0.00  0.00    +0.134 A 
ATOM     10  N   UNL     1      -5.770  -0.439   1.153  0.00  0.00    -0.206 NA
ATOM     11  C   UNL     1      -6.065  -0.144   2.410  0.00  0.00    +0.191 A 
ATOM     12  N   UNL     1      -5.137   0.114   3.334  0.00  0.00    -0.215 NA
ATOM     13  C   UNL     1       0.244   0.084   2.394  0.00  0.00    +0.203 C 
ATOM     14  O   UNL     1       0.693  -0.524   1.173  0.00  0.00    -0.368 OA
ATOM     15  C   UNL     1       0.728  -0.540  -1.243  0.00  0.00    +0.041 C 
ENDROOT
BRANCH   9  16
ATOM     16  N   UNL     1      -4.264  -0.820  -0.642  0.00  0.00    -0.318 N 
ATOM     17  C   UNL     1      -4.278   0.221  -1.682  0.00  0.00    +0.088 C 
ATOM     18  C   UNL     1      -5.162  -0.259  -2.838  0.00  0.00    -0.059 C 
ATOM     19  N   UNL     1      -4.690  -1.571  -3.300  0.00  0.00    +0.384 N 
ATOM     20  C   UNL     1      -4.859  -2.567  -2.235  0.00  0.00    -0.059 C 
ATOM     21  C   UNL     1      -3.955  -2.200  -1.047  0.00  0.00    +0.088 C 
ATOM     22  H   UNL     1      -3.715  -1.508  -3.549  0.00  0.00    -0.081 HD
BRANCH  19  23
ATOM     23  C   UNL     1      -5.467  -1.980  -4.478  0.00  0.00    -0.043 C 
BRANCH  23  24
ATOM     24  C   UNL     1      -4.905  -3.266  -5.027  0.00  0.00    -0.064 A 
ATOM     25  C   UNL     1      -3.904  -3.232  -5.980  0.00  0.00    +0.002 A 
ATOM     26  C   UNL     1      -3.388  -4.412  -6.484  0.00  0.00    +0.000 A 
ATOM     27  C   UNL     1      -3.874  -5.625  -6.035  0.00  0.00    +0.000 A 
ATOM     28  C   UNL     1      -4.874  -5.660  -5.082  0.00  0.00    +0.000 A 
ATOM     29  C   UNL     1      -5.387  -4.480  -4.575  0.00  0.00    +0.002 A 
ENDBRANCH  23  24
ENDBRANCH  19  23
ENDBRANCH   9  16
BRANCH  11  30
ATOM     30  S   UNL     1      -7.762  -0.091   2.884  0.00  0.00    -0.086 S 
BRANCH  30  31
ATOM     31  C   UNL     1      -7.712   0.338   4.646  0.00  0.00    +0.082 C 
BRANCH  31  32
ATOM     32  C   UNL     1      -9.139   0.419   5.192  0.00  0.00    +0.046 C 
BRANCH  32  33
ATOM     33  C   UNL     1      -9.097   0.775   6.655  0.00  0.00    -0.047 A 
ATOM     34  C   UNL     1      -9.030  -0.223   7.609  0.00  0.00    +0.003 A 
ATOM     35  C   UNL     1      -8.992   0.104   8.951  0.00  0.00    +0.000 A 
ATOM     36  C   UNL     1      -9.021   1.430   9.340  0.00  0.00    +0.000 A 
ATOM     37  C   UNL     1      -9.087   2.429   8.387  0.00  0.00    +0.000 A 
ATOM     38  C   UNL     1      -9.121   2.102   7.044  0.00  0.00    +0.003 A 
ENDBRANCH  32  33
ENDBRANCH  31  32
ENDBRANCH  30  31
ENDBRANCH  11  30
TORSDOF 7
