REMARK  Name = ZINC06134080
REMARK  16 active torsions:
REMARK  status: ('A' for Active; 'I' for Inactive)
REMARK    1  A    between atoms: C_1  and  C_2
REMARK    2  A    between atoms: C_2  and  C_3
REMARK    3  A    between atoms: C_2  and  C_4
REMARK    4  A    between atoms: C_4  and  C_5
REMARK    5  A    between atoms: C_5  and  N_6
REMARK    6  A    between atoms: C_7  and  C_9
REMARK    7  A    between atoms: C_9  and  C_11
REMARK    8  A    between atoms: C_9  and  N_15
REMARK    9  A    between atoms: C_11  and  C_12
REMARK   10  A    between atoms: C_12  and  C_13
REMARK   11  A    between atoms: C_12  and  C_14
REMARK   12  A    between atoms: N_15  and  C_16
REMARK   13  A    between atoms: C_16  and  C_17
REMARK   14  A    between atoms: C_26  and  C_28
REMARK   15  A    between atoms: C_29  and  N_36
REMARK   16  A    between atoms: C_30  and  C_33
REMARK                            x       y       z     vdW  Elec       q    Type
REMARK                         _______ _______ _______ _____ _____    ______ ____
ROOT
ATOM      1  N   UNL     1      -4.837  -6.199  -0.271  0.00  0.00    -0.281 N 
ATOM      2  C   UNL     1      -5.608  -6.975   0.516  0.00  0.00    +0.257 C 
ATOM      3  O   UNL     1      -6.291  -6.470   1.388  0.00  0.00    -0.269 OA
ENDROOT
BRANCH   2   4
ATOM      4  C   UNL     1      -5.624  -8.427   0.323  0.00  0.00    +0.115 A 
ATOM      5  C   UNL     1      -6.452  -9.387   0.905  0.00  0.00    +0.076 A 
ATOM      6  C   UNL     1      -6.178 -10.686   0.482  0.00  0.00    +0.155 A 
ATOM      7  N   UNL     1      -5.213 -10.894  -0.388  0.00  0.00    -0.203 NA
ATOM      8  S   UNL     1      -4.597  -9.437  -0.726  0.00  0.00    +0.019 S 
BRANCH   6   9
ATOM      9  C   UNL     1      -6.965 -11.819   1.004  0.00  0.00    +0.262 C 
ATOM     10  O   UNL     1      -7.919 -11.613   1.729  0.00  0.00    -0.269 OA
ATOM     11  N   UNL     1      -6.625 -13.082   0.678  0.00  0.00    -0.324 N 
ATOM     12  H   UNL     1      -5.864 -13.245   0.100  0.00  0.00    +0.145 HD
ATOM     13  H   UNL     1      -7.143 -13.827   1.022  0.00  0.00    +0.145 HD
ENDBRANCH   6   9
BRANCH   5  14
ATOM     14  N   UNL     1      -7.451  -9.078   1.819  0.00  0.00    -0.355 N 
ATOM     15  H   UNL     1      -7.654  -8.152   2.021  0.00  0.00    +0.142 HD
ATOM     16  H   UNL     1      -7.946  -9.789   2.256  0.00  0.00    +0.142 HD
ENDBRANCH   5  14
ENDBRANCH   2   4
BRANCH   1  17
ATOM     17  C   UNL     1      -4.703  -4.769   0.017  0.00  0.00    +0.163 C 
BRANCH  17  19
ATOM     18  N   UNL     1      -2.875  -3.136   0.347  0.00  0.00    -0.314 N 
ATOM     19  C   UNL     1      -3.244  -4.417   0.148  0.00  0.00    +0.234 C 
ATOM     20  O   UNL     1      -2.401  -5.286   0.074  0.00  0.00    -0.274 OA
ATOM     21  H   UNL     1      -3.548  -2.441   0.406  0.00  0.00    +0.149 HD
BRANCH  18  22
ATOM     22  C   UNL     1      -1.456  -2.794   0.475  0.00  0.00    +0.104 C 
BRANCH  22  23
ATOM     23  C   UNL     1      -1.312  -1.286   0.693  0.00  0.00    +0.022 C 
BRANCH  23  25
ATOM     24  C   UNL     1       0.321   0.590   0.920  0.00  0.00    +0.007 C 
ATOM     25  C   UNL     1       0.169  -0.929   0.827  0.00  0.00    -0.016 C 
ATOM     26  C   UNL     1       0.738  -1.577   2.091  0.00  0.00    +0.007 C 
ENDBRANCH  23  25
ENDBRANCH  22  23
ENDBRANCH  18  22
ENDBRANCH  17  19
BRANCH  17  27
ATOM     27  C   UNL     1      -5.322  -3.959  -1.125  0.00  0.00    +0.035 C 
BRANCH  27  28
ATOM     28  C   UNL     1      -6.829  -4.223  -1.178  0.00  0.00    -0.015 C 
ATOM     29  C   UNL     1      -7.485  -3.691   0.097  0.00  0.00    +0.007 C 
ATOM     30  C   UNL     1      -7.427  -3.513  -2.394  0.00  0.00    +0.007 C 
ENDBRANCH  27  28
ENDBRANCH  17  27
ENDBRANCH   1  17
BRANCH   1  31
ATOM     31  C   UNL     1      -4.132  -6.786  -1.413  0.00  0.00    +0.144 C 
BRANCH  31  32
ATOM     32  C   UNL     1      -5.051  -6.819  -2.607  0.00  0.00    -0.026 A 
ATOM     33  C   UNL     1      -5.987  -7.829  -2.729  0.00  0.00    +0.009 A 
ATOM     34  C   UNL     1      -6.833  -7.863  -3.822  0.00  0.00    +0.050 A 
ATOM     35  C   UNL     1      -6.743  -6.885  -4.799  0.00  0.00    +0.166 A 
ATOM     36  C   UNL     1      -5.800  -5.867  -4.676  0.00  0.00    +0.167 A 
ATOM     37  C   UNL     1      -4.960  -5.836  -3.575  0.00  0.00    +0.054 A 
ATOM     38  O   UNL     1      -5.910  -5.038  -5.755  0.00  0.00    -0.453 OA
ATOM     39  C   UNL     1      -6.650  -5.783  -6.739  0.00  0.00    +0.466 C 
ATOM     40  O   UNL     1      -7.444  -6.692  -5.954  0.00  0.00    -0.453 OA
ENDBRANCH  31  32
ENDBRANCH   1  31
TORSDOF 12
