REMARK  Name = ZINC40788042
REMARK  4 active torsions:
REMARK  status: ('A' for Active; 'I' for Inactive)
REMARK    1  A    between atoms: C_1  and  N_2
REMARK    2  A    between atoms: C_9  and  C_10
REMARK    3  A    between atoms: N_12  and  C_13
REMARK    4  A    between atoms: C_16  and  N_19
REMARK                            x       y       z     vdW  Elec       q    Type
REMARK                         _______ _______ _______ _____ _____    ______ ____
ROOT
ATOM      1  C   UNL     1       0.061  -0.302   2.483  0.00  0.00    +0.265 C 
ATOM      2  O   UNL     1       0.327  -1.082   3.379  0.00  0.00    -0.268 OA
ATOM      3  N   UNL     1      -0.392   0.933   2.777  0.00  0.00    -0.280 N 
ATOM      4  H   UNL     1      -0.715   1.512   2.070  0.00  0.00    +0.155 HD
ENDROOT
BRANCH   1  13
ATOM      5  C   UNL     1       0.878  -3.120   1.498  0.00  0.00    +0.149 C 
ATOM      6  N   UNL     1       0.599  -1.962   0.645  0.00  0.00    -0.337 N 
ATOM      7  C   UNL     1       0.650  -1.946  -0.725  0.00  0.00    +0.088 A 
ATOM      8  C   UNL     1       0.903  -2.703  -1.893  0.00  0.00    +0.067 A 
ATOM      9  C   UNL     1       0.724  -1.884  -2.944  0.00  0.00    +0.198 A 
ATOM     10  O   UNL     1       0.376  -0.663  -2.505  0.00  0.00    -0.461 OA
ATOM     11  C   UNL     1       0.321  -0.664  -1.155  0.00  0.00    +0.153 A 
ATOM     12  C   UNL     1       0.066   0.107  -0.015  0.00  0.00    +0.079 A 
ATOM     13  C   UNL     1       0.235  -0.705   1.085  0.00  0.00    +0.108 A 
ENDBRANCH   1  13
BRANCH   3  14
ATOM     14  C   UNL     1      -0.396   1.379   4.105  0.00  0.00    +0.034 A 
ATOM     15  C   UNL     1      -0.380   0.461   5.146  0.00  0.00    +0.025 A 
ATOM     16  C   UNL     1      -0.385   0.901   6.455  0.00  0.00    +0.025 A 
ATOM     17  C   UNL     1      -0.405   2.262   6.730  0.00  0.00    +0.030 A 
ATOM     18  C   UNL     1      -0.420   3.181   5.688  0.00  0.00    +0.025 A 
ATOM     19  C   UNL     1      -0.411   2.741   4.379  0.00  0.00    +0.025 A 
BRANCH  17  20
ATOM     20  N   UNL     1      -0.410   2.708   8.056  0.00  0.00    -0.330 N 
ATOM     21  C   UNL     1      -0.643   4.125   8.368  0.00  0.00    +0.105 C 
ATOM     22  C   UNL     1      -1.792   4.225   9.377  0.00  0.00    +0.019 C 
ATOM     23  C   UNL     1      -1.472   3.357  10.596  0.00  0.00    +0.003 C 
ATOM     24  C   UNL     1      -1.335   1.895  10.162  0.00  0.00    +0.019 C 
ATOM     25  C   UNL     1      -0.188   1.768   9.162  0.00  0.00    +0.105 C 
ENDBRANCH  17  20
ENDBRANCH   3  14
TORSDOF 3
