REMARK  Name = ZINC34698859
REMARK  11 active torsions:
REMARK  status: ('A' for Active; 'I' for Inactive)
REMARK    1  A    between atoms: C_1  and  C_2
REMARK    2  A    between atoms: C_7  and  C_8
REMARK    3  A    between atoms: N_11  and  C_31
REMARK    4  A    between atoms: C_13  and  C_15
REMARK    5  A    between atoms: C_15  and  N_16
REMARK    6  A    between atoms: N_16  and  C_17
REMARK    7  A    between atoms: C_23  and  C_25
REMARK    8  A    between atoms: C_31  and  C_32
REMARK    9  A    between atoms: C_35  and  N_38
REMARK   10  A    between atoms: N_38  and  C_39
REMARK   11  A    between atoms: N_38  and  C_40
REMARK                            x       y       z     vdW  Elec       q    Type
REMARK                         _______ _______ _______ _____ _____    ______ ____
ROOT
ATOM      1  C   UNL     1       0.701   1.057   7.535  0.00  0.00    +0.005 C 
ATOM      2  C   UNL     1      -0.452   1.266   6.521  0.00  0.00    -0.070 C 
ATOM      3  N   UNL     1       0.200   1.022   5.209  0.00  0.00    +0.383 N 
ATOM      4  C   UNL     1       1.544   1.633   5.307  0.00  0.00    -0.073 C 
ATOM      5  C   UNL     1       1.924   1.655   6.802  0.00  0.00    -0.005 C 
ATOM      6  H   UNL     1       0.280   0.030   5.040  0.00  0.00    -0.081 HD
ENDROOT
BRANCH   1  13
ATOM      7  C   UNL     1       0.668  -0.356  10.055  0.00  0.00    +0.044 C 
ATOM      8  C   UNL     1       0.412   1.129  10.020  0.00  0.00    -0.047 A 
ATOM      9  C   UNL     1       0.168   1.815  11.195  0.00  0.00    +0.003 A 
ATOM     10  C   UNL     1      -0.067   3.177  11.163  0.00  0.00    +0.000 A 
ATOM     11  C   UNL     1      -0.056   3.853   9.957  0.00  0.00    +0.000 A 
ATOM     12  C   UNL     1       0.189   3.166   8.783  0.00  0.00    +0.004 A 
ATOM     13  C   UNL     1       0.428   1.805   8.815  0.00  0.00    -0.043 A 
ENDBRANCH   1  13
BRANCH   5  14
ATOM     14  C   UNL     1       3.165   0.796   7.052  0.00  0.00    +0.110 C 
BRANCH  14  15
ATOM     15  N   UNL     1       4.331   1.433   6.434  0.00  0.00    -0.294 N 
ATOM     16  C   UNL     1       4.727   1.061   5.201  0.00  0.00    +0.247 C 
ATOM     17  O   UNL     1       4.731  -0.114   4.892  0.00  0.00    -0.270 OA
BRANCH  15  18
ATOM     18  C   UNL     1       5.068   2.472   7.158  0.00  0.00    +0.076 C 
ATOM     19  C   UNL     1       4.496   3.845   6.800  0.00  0.00    +0.022 C 
ATOM     20  C   UNL     1       5.265   4.931   7.556  0.00  0.00    +0.002 C 
ATOM     21  C   UNL     1       6.742   4.876   7.164  0.00  0.00    +0.000 C 
ATOM     22  C   UNL     1       7.314   3.502   7.522  0.00  0.00    +0.002 C 
ATOM     23  C   UNL     1       6.545   2.417   6.766  0.00  0.00    +0.022 C 
ENDBRANCH  15  18
BRANCH  16  24
ATOM     24  C   UNL     1       5.156   2.084   4.223  0.00  0.00    +0.037 A 
ATOM     25  C   UNL     1       5.723   3.281   4.664  0.00  0.00    +0.013 A 
ATOM     26  C   UNL     1       6.121   4.231   3.747  0.00  0.00    +0.001 A 
ATOM     27  C   UNL     1       5.960   4.000   2.392  0.00  0.00    +0.000 A 
ATOM     28  C   UNL     1       5.398   2.816   1.948  0.00  0.00    +0.001 A 
ATOM     29  C   UNL     1       5.001   1.855   2.855  0.00  0.00    +0.013 A 
ENDBRANCH  16  24
ENDBRANCH  14  15
ENDBRANCH   5  14
BRANCH   3  30
ATOM     30  C   UNL     1      -0.570   1.661   4.134  0.00  0.00    -0.043 C 
BRANCH  30  31
ATOM     31  C   UNL     1      -1.909   0.981   4.003  0.00  0.00    -0.064 A 
ATOM     32  C   UNL     1      -2.053  -0.102   3.156  0.00  0.00    +0.003 A 
ATOM     33  C   UNL     1      -3.279  -0.727   3.033  0.00  0.00    +0.023 A 
ATOM     34  C   UNL     1      -4.367  -0.266   3.763  0.00  0.00    +0.029 A 
ATOM     35  C   UNL     1      -4.219   0.823   4.613  0.00  0.00    +0.023 A 
ATOM     36  C   UNL     1      -2.989   1.439   4.735  0.00  0.00    +0.003 A 
BRANCH  34  37
ATOM     37  N   UNL     1      -5.608  -0.895   3.641  0.00  0.00    -0.336 N 
ATOM     38  C   UNL     1      -5.736  -2.113   2.837  0.00  0.00    +0.129 C 
ATOM     39  C   UNL     1      -6.782  -0.337   4.317  0.00  0.00    +0.129 C 
ENDBRANCH  34  37
ENDBRANCH  30  31
ENDBRANCH   3  30
TORSDOF 8
