REMARK  Name = ZINC58762375
REMARK  9 active torsions:
REMARK  status: ('A' for Active; 'I' for Inactive)
REMARK    1  A    between atoms: C_1  and  C_2
REMARK    2  A    between atoms: C_4  and  C_32
REMARK    3  A    between atoms: C_6  and  N_8
REMARK    4  A    between atoms: C_18  and  S_19
REMARK    5  A    between atoms: S_19  and  C_20
REMARK    6  A    between atoms: C_20  and  C_21
REMARK    7  A    between atoms: C_27  and  C_29
REMARK    8  A    between atoms: C_29  and  C_30
REMARK    9  A    between atoms: C_29  and  C_31
REMARK                            x       y       z     vdW  Elec       q    Type
REMARK                         _______ _______ _______ _____ _____    ______ ____
ROOT
ATOM      1  N   UNL     1       0.050  -2.798   2.394  0.00  0.00    -0.255 N 
ATOM      2  C   UNL     1      -0.030  -4.149   2.381  0.00  0.00    +0.267 A 
ATOM      3  O   UNL     1      -0.114  -4.765   1.335  0.00  0.00    -0.267 OA
ATOM      4  C   UNL     1      -0.011  -4.844   3.675  0.00  0.00    +0.065 A 
ATOM      5  C   UNL     1      -0.087  -6.233   3.766  0.00  0.00    +0.015 A 
ATOM      6  C   UNL     1      -0.065  -6.829   4.996  0.00  0.00    +0.001 A 
ATOM      7  C   UNL     1       0.033  -6.067   6.153  0.00  0.00    +0.002 A 
ATOM      8  C   UNL     1       0.109  -4.704   6.093  0.00  0.00    +0.028 A 
ATOM      9  C   UNL     1       0.089  -4.064   4.850  0.00  0.00    +0.079 A 
ATOM     10  N   UNL     1       0.163  -2.717   4.744  0.00  0.00    -0.223 NA
ATOM     11  C   UNL     1       0.150  -2.120   3.578  0.00  0.00    +0.177 A 
ENDROOT
BRANCH   1  17
ATOM     12  C   UNL     1       2.502  -0.800  -1.371  0.00  0.00    +0.044 C 
ATOM     13  C   UNL     1       1.209  -1.107  -0.660  0.00  0.00    -0.048 A 
ATOM     14  C   UNL     1       0.007  -0.687  -1.199  0.00  0.00    +0.006 A 
ATOM     15  C   UNL     1      -1.181  -0.966  -0.549  0.00  0.00    -0.048 A 
ATOM     16  C   UNL     1      -1.170  -1.666   0.642  0.00  0.00    +0.029 A 
ATOM     17  C   UNL     1       0.035  -2.089   1.186  0.00  0.00    +0.052 A 
ATOM     18  C   UNL     1       1.226  -1.812   0.528  0.00  0.00    +0.029 A 
ATOM     19  C   UNL     1      -2.489  -0.507  -1.140  0.00  0.00    +0.044 C 
ENDBRANCH   1  17
BRANCH  11  20
ATOM     20  S   UNL     1       0.258  -0.362   3.533  0.00  0.00    -0.078 S 
BRANCH  20  21
ATOM     21  C   UNL     1       0.372   0.116   5.279  0.00  0.00    +0.173 C 
BRANCH  21  22
ATOM     22  C   UNL     1       0.471   1.616   5.384  0.00  0.00    +0.231 C 
ATOM     23  O   UNL     1       0.465   2.296   4.380  0.00  0.00    -0.274 OA
ATOM     24  N   UNL     1       0.567   2.202   6.594  0.00  0.00    -0.238 N 
ATOM     25  C   UNL     1       0.657   3.583   6.691  0.00  0.00    +0.314 A 
ATOM     26  N   UNL     1       0.657   4.433   5.694  0.00  0.00    -0.092 NA
ATOM     27  N   UNL     1       0.756   5.629   6.156  0.00  0.00    -0.111 NA
ATOM     28  C   UNL     1       0.824   5.590   7.455  0.00  0.00    +0.222 A 
ATOM     29  O   UNL     1       0.757   4.298   7.826  0.00  0.00    -0.409 OA
ATOM     30  H   UNL     1       0.572   1.658   7.397  0.00  0.00    +0.159 HD
BRANCH  28  31
ATOM     31  C   UNL     1       0.948   6.777   8.376  0.00  0.00    +0.071 C 
ATOM     32  C   UNL     1       2.231   7.543   8.051  0.00  0.00    +0.017 C 
ATOM     33  C   UNL     1      -0.259   7.698   8.186  0.00  0.00    +0.017 C 
ENDBRANCH  28  31
ENDBRANCH  21  22
ENDBRANCH  20  21
ENDBRANCH  11  20
TORSDOF 5
