REMARK  Name = ZINC05359528
REMARK  9 active torsions:
REMARK  status: ('A' for Active; 'I' for Inactive)
REMARK    1  A    between atoms: C_1  and  C_2
REMARK    2  A    between atoms: C_3  and  O_23
REMARK    3  A    between atoms: C_6  and  C_9
REMARK    4  A    between atoms: C_7  and  O_8
REMARK    5  A    between atoms: C_10  and  O_16
REMARK    6  A    between atoms: C_11  and  C_15
REMARK    7  A    between atoms: O_16  and  C_17
REMARK    8  A    between atoms: O_23  and  C_24
REMARK    9  A    between atoms: C_24  and  C_25
REMARK                            x       y       z     vdW  Elec       q    Type
REMARK                         _______ _______ _______ _____ _____    ______ ____
ROOT
ATOM      1  C   UNL     1      -0.018   1.503   0.010  0.00  0.00    +0.051 C 
ATOM      2  C   UNL     1       0.002  -0.004   0.002  0.00  0.00    +0.033 A 
ATOM      3  C   UNL     1       0.006  -0.691  -1.203  0.00  0.00    +0.127 A 
ATOM      4  C   UNL     1       0.024  -2.079  -1.216  0.00  0.00    +0.047 A 
ATOM      5  C   UNL     1       0.039  -2.783  -0.029  0.00  0.00    +0.017 A 
ATOM      6  C   UNL     1       0.036  -2.101   1.185  0.00  0.00    +0.048 A 
ATOM      7  C   UNL     1       0.023  -0.702   1.197  0.00  0.00    +0.133 A 
ENDROOT
BRANCH   6   8
ATOM      8  C   UNL     1       0.052  -2.855   2.462  0.00  0.00    +0.138 A 
ATOM      9  C   UNL     1       0.076  -4.260   2.595  0.00  0.00    +0.176 A 
ATOM     10  C   UNL     1       0.084  -4.551   3.917  0.00  0.00    +0.076 A 
ATOM     11  N   UNL     1       0.066  -3.377   4.601  0.00  0.00    -0.278 N 
ATOM     12  H   UNL     1       0.066  -3.280   5.567  0.00  0.00    +0.189 HD
ATOM     13  N   UNL     1       0.051  -2.331   3.670  0.00  0.00    -0.170 NA
ATOM     14  C   UNL     1       0.109  -5.931   4.522  0.00  0.00    +0.069 C 
BRANCH   9  15
ATOM     15  O   UNL     1       0.089  -5.162   1.574  0.00  0.00    -0.452 OA
BRANCH  15  16
ATOM     16  C   UNL     1       1.294  -5.564   1.093  0.00  0.00    +0.129 A 
ATOM     17  C   UNL     1       2.465  -5.062   1.644  0.00  0.00    +0.046 A 
ATOM     18  C   UNL     1       3.689  -5.472   1.153  0.00  0.00    +0.004 A 
ATOM     19  C   UNL     1       3.748  -6.382   0.113  0.00  0.00    +0.000 A 
ATOM     20  C   UNL     1       2.584  -6.884  -0.438  0.00  0.00    +0.004 A 
ATOM     21  C   UNL     1       1.357  -6.482   0.054  0.00  0.00    +0.046 A 
ENDBRANCH  15  16
ENDBRANCH   9  15
ENDBRANCH   6   8
BRANCH   7  22
ATOM     22  O   UNL     1       0.025  -0.031   2.378  0.00  0.00    -0.506 OA
ATOM     23  H   UNL     1      -0.857   0.151   2.729  0.00  0.00    +0.292 HD
ENDBRANCH   7  22
BRANCH   3  24
ATOM     24  O   UNL     1      -0.009  -0.003  -2.375  0.00  0.00    -0.487 OA
BRANCH  24  25
ATOM     25  C   UNL     1      -0.004  -0.773  -3.579  0.00  0.00    +0.264 C 
BRANCH  25  26
ATOM     26  C   UNL     1      -0.022   0.154  -4.768  0.00  0.00    -0.010 A 
ATOM     27  C   UNL     1      -1.228   0.567  -5.303  0.00  0.00    +0.008 A 
ATOM     28  C   UNL     1      -1.246   1.417  -6.393  0.00  0.00    +0.020 A 
ATOM     29  C   UNL     1      -0.056   1.854  -6.948  0.00  0.00    +0.041 A 
ATOM     30  C   UNL     1       1.150   1.440  -6.412  0.00  0.00    +0.020 A 
ATOM     31  C   UNL     1       1.166   0.595  -5.318  0.00  0.00    +0.008 A 
ATOM     32 CL   UNL     1      -0.077   2.921  -8.318  0.00  0.00    -0.084 Cl
ENDBRANCH  25  26
ENDBRANCH  24  25
ENDBRANCH   3  24
TORSDOF 7
