REMARK  Name = ZINC67269258
REMARK  4 active torsions:
REMARK  status: ('A' for Active; 'I' for Inactive)
REMARK    1  A    between atoms: C_4  and  C_8
REMARK    2  A    between atoms: C_8  and  C_9
REMARK    3  A    between atoms: C_9  and  N_10
REMARK    4  A    between atoms: C_11  and  C_13
REMARK                            x       y       z     vdW  Elec       q    Type
REMARK                         _______ _______ _______ _____ _____    ______ ____
ROOT
ATOM      1  N   UNL     1       5.452  -1.679   1.381  0.00  0.00    -0.315 N 
ATOM      2  C   UNL     1       6.052  -2.014   2.540  0.00  0.00    +0.216 C 
ATOM      3  O   UNL     1       5.533  -1.723   3.598  0.00  0.00    -0.276 OA
ATOM      4  H   UNL     1       5.866  -1.911   0.535  0.00  0.00    +0.149 HD
ENDROOT
BRANCH   2   5
ATOM      5  C   UNL     1       7.367  -2.749   2.523  0.00  0.00    +0.075 C 
ATOM      6  C   UNL     1       7.195  -4.084   1.796  0.00  0.00    +0.015 C 
ATOM      7  C   UNL     1       8.535  -4.825   1.768  0.00  0.00    +0.036 C 
ATOM      8  C   UNL     1       9.017  -5.062   3.194  0.00  0.00    +0.112 C 
ATOM      9  C   UNL     1       9.169  -3.741   3.941  0.00  0.00    +0.036 C 
ATOM     10  C   UNL     1       7.827  -3.006   3.959  0.00  0.00    +0.015 C 
ATOM     11  C   UNL     1       8.064  -5.977   3.929  0.00  0.00    +0.244 C 
ATOM     12  O   UNL     1       6.893  -5.776   4.170  0.00  0.00    -0.273 OA
ATOM     13  N   UNL     1       8.791  -7.065   4.259  0.00  0.00    -0.238 N 
ATOM     14  C   UNL     1      10.056  -6.959   3.836  0.00  0.00    +0.307 C 
ATOM     15  O   UNL     1      10.902  -7.813   4.015  0.00  0.00    -0.252 OA
ATOM     16  N   UNL     1      10.287  -5.800   3.191  0.00  0.00    -0.285 N 
ATOM     17  H   UNL     1       8.439  -7.829   4.743  0.00  0.00    +0.159 HD
ATOM     18  H   UNL     1      11.127  -5.509   2.801  0.00  0.00    +0.151 HD
ENDBRANCH   2   5
BRANCH   1  19
ATOM     19  C   UNL     1       4.173  -0.964   1.398  0.00  0.00    +0.109 C 
BRANCH  19  20
ATOM     20  C   UNL     1       3.713  -0.707  -0.038  0.00  0.00    +0.057 C 
BRANCH  20  24
ATOM     21  C   UNL     1      -0.017   1.378   0.010  0.00  0.00    +0.003 A 
ATOM     22  C   UNL     1       1.171   2.086   0.002  0.00  0.00    +0.020 A 
ATOM     23  C   UNL     1       2.378   1.411  -0.013  0.00  0.00    +0.046 A 
ATOM     24  C   UNL     1       2.398   0.028  -0.021  0.00  0.00    -0.009 A 
ATOM     25  C   UNL     1       1.209  -0.680  -0.013  0.00  0.00    +0.046 A 
ATOM     26  C   UNL     1       0.002  -0.004   0.002  0.00  0.00    +0.020 A 
ATOM     27 CL   UNL     1       1.233  -2.416  -0.023  0.00  0.00    -0.083 Cl
ATOM     28 CL   UNL     1       3.869   2.300  -0.024  0.00  0.00    -0.083 Cl
ENDBRANCH  20  24
ENDBRANCH  19  20
ENDBRANCH   1  19
TORSDOF 4
