REMARK  Name = ZINC01692323
REMARK  8 active torsions:
REMARK  status: ('A' for Active; 'I' for Inactive)
REMARK    1  A    between atoms: C_1  and  C_2
REMARK    2  A    between atoms: C_2  and  C_3
REMARK    3  A    between atoms: C_3  and  C_4
REMARK    4  A    between atoms: C_4  and  C_5
REMARK    5  A    between atoms: C_5  and  C_6
REMARK    6  A    between atoms: C_6  and  C_14
REMARK    7  A    between atoms: N_9  and  C_13
REMARK    8  A    between atoms: N_15  and  N_16
REMARK                            x       y       z     vdW  Elec       q    Type
REMARK                         _______ _______ _______ _____ _____    ______ ____
ROOT
ATOM      1  C   UNL     1       2.831   4.115  -0.003  0.00  0.00    +0.149 C 
ATOM      2  C   UNL     1       2.841   5.630  -0.048  0.00  0.00    +0.252 C 
ATOM      3  O   UNL     1       2.381   6.390   0.778  0.00  0.00    -0.272 OA
ATOM      4  N   UNL     1       3.466   5.957  -1.196  0.00  0.00    -0.227 N 
ATOM      5  C   UNL     1       3.849   4.870  -1.875  0.00  0.00    +0.309 C 
ATOM      6  O   UNL     1       4.433   4.911  -2.941  0.00  0.00    -0.252 OA
ATOM      7  N   UNL     1       3.518   3.724  -1.246  0.00  0.00    -0.280 N 
ATOM      8  C   UNL     1       3.698   7.332  -1.643  0.00  0.00    +0.143 C 
ATOM      9  H   UNL     1       3.697   2.821  -1.550  0.00  0.00    +0.152 HD
ENDROOT
BRANCH   1  10
ATOM     10  C   UNL     1       3.588   3.615   1.201  0.00  0.00    +0.138 C 
ATOM     11  N   UNL     1       4.642   2.905   1.045  0.00  0.00    -0.189 NA
BRANCH  11  12
ATOM     12  N   UNL     1       5.345   2.441   2.164  0.00  0.00    -0.191 N 
ATOM     13  C   UNL     1       6.455   1.693   2.000  0.00  0.00    +0.317 C 
ATOM     14  O   UNL     1       7.065   1.290   2.971  0.00  0.00    -0.251 OA
ATOM     15  N   UNL     1       6.887   1.392   0.759  0.00  0.00    -0.312 N 
ATOM     16  H   UNL     1       5.034   2.657   3.057  0.00  0.00    +0.179 HD
ATOM     17  H   UNL     1       6.400   1.713  -0.015  0.00  0.00    +0.147 HD
ATOM     18  H   UNL     1       7.685   0.853   0.641  0.00  0.00    +0.147 HD
ENDBRANCH  11  12
ENDBRANCH   1  10
BRANCH   1  19
ATOM     19  C   UNL     1       1.396   3.585   0.008  0.00  0.00    +0.041 C 
BRANCH  19  20
ATOM     20  C   UNL     1       1.417   2.055  -0.000  0.00  0.00    +0.003 C 
BRANCH  20  21
ATOM     21  C   UNL     1      -0.019   1.526   0.010  0.00  0.00    -0.000 C 
BRANCH  21  23
ATOM     22  C   UNL     1      -1.433  -0.534   0.013  0.00  0.00    +0.004 C 
ATOM     23  C   UNL     1       0.002  -0.004   0.002  0.00  0.00    -0.003 C 
ENDBRANCH  21  23
ENDBRANCH  20  21
ENDBRANCH  19  20
ENDBRANCH   1  19
TORSDOF 6
