REMARK  Name = ZINC08713663
REMARK  11 active torsions:
REMARK  status: ('A' for Active; 'I' for Inactive)
REMARK    1  A    between atoms: C_1  and  C_2
REMARK    2  A    between atoms: C_4  and  C_42
REMARK    3  A    between atoms: C_6  and  S_8
REMARK    4  A    between atoms: S_8  and  C_9
REMARK    5  A    between atoms: C_9  and  C_10
REMARK    6  A    between atoms: N_12  and  C_13
REMARK    7  A    between atoms: N_12  and  C_21
REMARK    8  A    between atoms: C_13  and  C_14
REMARK    9  A    between atoms: C_21  and  C_23
REMARK   10  A    between atoms: C_21  and  C_30
REMARK   11  A    between atoms: N_32  and  C_33
REMARK                            x       y       z     vdW  Elec       q    Type
REMARK                         _______ _______ _______ _____ _____    ______ ____
ROOT
ATOM      1  C   UNL     1       3.343   6.819  -0.708  0.00  0.00    +0.227 C 
ATOM      2  O   UNL     1       2.793   7.899  -0.755  0.00  0.00    -0.275 OA
ATOM      3  N   UNL     1       4.589   6.719  -0.205  0.00  0.00    -0.281 N 
ENDROOT
BRANCH   1   4
ATOM      4  C   UNL     1       2.633   5.589  -1.213  0.00  0.00    +0.173 C 
BRANCH   4   5
ATOM      5  S   UNL     1       0.846   5.807  -1.032  0.00  0.00    -0.077 S 
BRANCH   5  11
ATOM      6  C   UNL     1       1.798   1.217  -3.086  0.00  0.00    +0.066 C 
ATOM      7  C   UNL     1       0.781   2.218  -2.600  0.00  0.00    +0.043 A 
ATOM      8  C   UNL     1      -0.573   1.929  -2.662  0.00  0.00    +0.046 A 
ATOM      9  C   UNL     1      -1.475   2.877  -2.204  0.00  0.00    +0.043 A 
ATOM     10  N   UNL     1      -1.019   4.022  -1.724  0.00  0.00    -0.227 NA
ATOM     11  C   UNL     1       0.282   4.268  -1.679  0.00  0.00    +0.189 A 
ATOM     12  N   UNL     1       1.171   3.383  -2.109  0.00  0.00    -0.227 NA
ATOM     13  C   UNL     1      -2.956   2.605  -2.252  0.00  0.00    +0.066 C 
ENDBRANCH   5  11
ENDBRANCH   4   5
ENDBRANCH   1   4
BRANCH   3  14
ATOM     14  C   UNL     1       5.253   5.414  -0.145  0.00  0.00    +0.144 C 
BRANCH  14  15
ATOM     15  C   UNL     1       5.469   4.897  -1.544  0.00  0.00    -0.030 A 
ATOM     16  C   UNL     1       4.683   3.869  -2.030  0.00  0.00    +0.006 A 
ATOM     17  C   UNL     1       4.877   3.398  -3.315  0.00  0.00    +0.020 A 
ATOM     18  C   UNL     1       5.867   3.947  -4.110  0.00  0.00    +0.041 A 
ATOM     19  C   UNL     1       6.658   4.971  -3.621  0.00  0.00    +0.020 A 
ATOM     20  C   UNL     1       6.459   5.446  -2.338  0.00  0.00    +0.006 A 
ATOM     21 CL   UNL     1       6.117   3.351  -5.721  0.00  0.00    -0.084 Cl
ENDBRANCH  14  15
ENDBRANCH   3  14
BRANCH   3  22
ATOM     22  C   UNL     1       5.280   7.915   0.283  0.00  0.00    +0.193 C 
BRANCH  22  23
ATOM     23  C   UNL     1       4.652   8.365   1.578  0.00  0.00    -0.018 A 
ATOM     24  C   UNL     1       4.369   7.441   2.566  0.00  0.00    +0.007 A 
ATOM     25  C   UNL     1       3.799   7.854   3.755  0.00  0.00    +0.020 A 
ATOM     26  C   UNL     1       3.501   9.190   3.952  0.00  0.00    +0.041 A 
ATOM     27  C   UNL     1       3.780  10.114   2.961  0.00  0.00    +0.020 A 
ATOM     28  C   UNL     1       4.355   9.701   1.774  0.00  0.00    +0.007 A 
ATOM     29 CL   UNL     1       2.777   9.708   5.443  0.00  0.00    -0.084 Cl
ENDBRANCH  22  23
BRANCH  22  30
ATOM     30  C   UNL     1       6.734   7.596   0.515  0.00  0.00    +0.242 C 
ATOM     31  O   UNL     1       7.260   6.686  -0.092  0.00  0.00    -0.273 OA
ATOM     32  N   UNL     1       7.452   8.320   1.396  0.00  0.00    -0.284 N 
ATOM     33  H   UNL     1       7.022   9.023   1.910  0.00  0.00    +0.155 HD
BRANCH  32  34
ATOM     34  C   UNL     1       8.817   8.060   1.571  0.00  0.00    +0.037 A 
ATOM     35  C   UNL     1       9.267   6.749   1.661  0.00  0.00    +0.027 A 
ATOM     36  C   UNL     1      10.614   6.490   1.829  0.00  0.00    +0.051 A 
ATOM     37  C   UNL     1      11.518   7.537   1.918  0.00  0.00    +0.166 A 
ATOM     38  C   UNL     1      11.068   8.853   1.833  0.00  0.00    +0.168 A 
ATOM     39  C   UNL     1       9.719   9.111   1.660  0.00  0.00    +0.072 A 
ATOM     40  O   UNL     1      12.141   9.689   1.947  0.00  0.00    -0.453 OA
ATOM     41  C   UNL     1      13.196   8.887   2.511  0.00  0.00    +0.466 C 
ATOM     42  O   UNL     1      12.873   7.550   2.085  0.00  0.00    -0.453 OA
ENDBRANCH  32  34
ENDBRANCH  22  30
ENDBRANCH   3  22
TORSDOF 9
