REMARK  Name = ZINC14161020
REMARK  8 active torsions:
REMARK  status: ('A' for Active; 'I' for Inactive)
REMARK    1  A    between atoms: C_1  and  C_2
REMARK    2  A    between atoms: C_4  and  C_37
REMARK    3  A    between atoms: N_10  and  C_11
REMARK    4  A    between atoms: C_11  and  N_13
REMARK    5  A    between atoms: N_13  and  C_14
REMARK    6  A    between atoms: C_14  and  C_15
REMARK    7  A    between atoms: N_24  and  C_27
REMARK    8  A    between atoms: C_27  and  C_28
REMARK                            x       y       z     vdW  Elec       q    Type
REMARK                         _______ _______ _______ _____ _____    ______ ____
ROOT
ATOM      1  C   UNL     1       3.589   2.506  -0.053  0.00  0.00    +0.066 C 
ATOM      2  C   UNL     1       2.370   1.788  -0.570  0.00  0.00    +0.044 A 
ATOM      3  C   UNL     1       2.504   0.630  -1.321  0.00  0.00    +0.046 A 
ATOM      4  C   UNL     1       1.357   0.001  -1.778  0.00  0.00    +0.044 A 
ATOM      5  N   UNL     1       0.176   0.520  -1.485  0.00  0.00    -0.219 NA
ATOM      6  C   UNL     1       0.083   1.628  -0.765  0.00  0.00    +0.222 A 
ATOM      7  N   UNL     1       1.159   2.254  -0.314  0.00  0.00    -0.219 NA
ATOM      8  N   UNL     1      -1.173   2.148  -0.482  0.00  0.00    -0.258 N 
ATOM      9  C   UNL     1      -1.286   3.347   0.169  0.00  0.00    +0.180 C 
ATOM     10  N   UNL     1      -2.481   3.832   0.460  0.00  0.00    -0.164 NA
ATOM     11  N   UNL     1      -0.164   4.043   0.518  0.00  0.00    -0.302 N 
ATOM     12  C   UNL     1       0.530   4.896  -0.458  0.00  0.00    +0.123 C 
ATOM     13  C   UNL     1       0.729   6.284   0.171  0.00  0.00    +0.103 C 
ATOM     14  N   UNL     1       1.412   6.138   1.462  0.00  0.00    -0.295 NA
ATOM     15  C   UNL     1       0.595   5.374   2.414  0.00  0.00    +0.103 C 
ATOM     16  C   UNL     1       0.387   3.953   1.879  0.00  0.00    +0.123 C 
ATOM     17  C   UNL     1       1.453  -1.260  -2.598  0.00  0.00    +0.066 C 
ATOM     18  H   UNL     1      -2.077   1.597  -0.780  0.00  0.00    +0.157 HD
ENDROOT
BRANCH  10  19
ATOM     19  C   UNL     1      -2.603   5.088   0.912  0.00  0.00    +0.157 C 
ATOM     20  S   UNL     1      -2.223   6.407  -0.111  0.00  0.00    -0.017 S 
BRANCH  19  21
ATOM     21  N   UNL     1      -3.025   5.312   2.172  0.00  0.00    -0.322 N 
ATOM     22  H   UNL     1      -3.269   4.464   2.829  0.00  0.00    +0.148 HD
BRANCH  21  23
ATOM     23  C   UNL     1      -3.159   6.684   2.667  0.00  0.00    +0.134 C 
BRANCH  23  24
ATOM     24  C   UNL     1      -3.651   6.659   4.115  0.00  0.00    +0.135 C 
ATOM     25  C   UNL     1      -3.919   8.095   4.618  0.00  0.00    +0.035 C 
ATOM     26  C   UNL     1      -3.461   8.068   6.093  0.00  0.00    +0.031 C 
ATOM     27  C   UNL     1      -2.971   6.619   6.308  0.00  0.00    +0.160 C 
ATOM     28  O   UNL     1      -2.619   6.149   4.988  0.00  0.00    -0.375 OA
ENDBRANCH  23  24
ENDBRANCH  21  23
ENDBRANCH  19  21
ENDBRANCH  10  19
BRANCH  14  29
ATOM     29  C   UNL     1       1.779   7.448   2.016  0.00  0.00    +0.119 C 
BRANCH  29  30
ATOM     30  C   UNL     1       2.400   8.294   0.935  0.00  0.00    -0.030 A 
ATOM     31  C   UNL     1       3.767   8.261   0.733  0.00  0.00    +0.009 A 
ATOM     32  C   UNL     1       4.341   9.031  -0.261  0.00  0.00    +0.050 A 
ATOM     33  C   UNL     1       3.547   9.848  -1.050  0.00  0.00    +0.166 A 
ATOM     34  C   UNL     1       2.171   9.886  -0.843  0.00  0.00    +0.167 A 
ATOM     35  C   UNL     1       1.602   9.106   0.151  0.00  0.00    +0.054 A 
ATOM     36  O   UNL     1       1.619  10.756  -1.738  0.00  0.00    -0.453 OA
ATOM     37  C   UNL     1       2.713  11.557  -2.221  0.00  0.00    +0.466 C 
ATOM     38  O   UNL     1       3.858  10.695  -2.075  0.00  0.00    -0.453 OA
ENDBRANCH  29  30
ENDBRANCH  14  29
TORSDOF 6
