REMARK  Name = ZINC08860812
REMARK  8 active torsions:
REMARK  status: ('A' for Active; 'I' for Inactive)
REMARK    1  A    between atoms: C_1  and  C_2
REMARK    2  A    between atoms: C_2  and  C_30
REMARK    3  A    between atoms: N_5  and  N_9
REMARK    4  A    between atoms: C_10  and  C_12
REMARK    5  A    between atoms: N_21  and  C_23
REMARK    6  A    between atoms: C_23  and  C_24
REMARK    7  A    between atoms: C_30  and  C_31
REMARK    8  A    between atoms: C_31  and  C_32
REMARK                            x       y       z     vdW  Elec       q    Type
REMARK                         _______ _______ _______ _____ _____    ______ ____
ROOT
ATOM      1  N   UNL     1      -0.681  -0.346   4.368  0.00  0.00    -0.218 N 
ATOM      2  C   UNL     1      -1.202   0.131   5.516  0.00  0.00    +0.281 C 
ATOM      3  O   UNL     1      -1.887   1.135   5.500  0.00  0.00    -0.267 OA
ATOM      4  H   UNL     1      -0.134  -1.147   4.381  0.00  0.00    +0.174 HD
ENDROOT
BRANCH   2   5
ATOM      5  C   UNL     1      -0.939  -0.564   6.792  0.00  0.00    +0.155 A 
ATOM      6  C   UNL     1      -1.499  -0.046   8.051  0.00  0.00    +0.020 A 
ATOM      7  C   UNL     1      -2.295   1.092   8.109  0.00  0.00    +0.011 A 
ATOM      8  C   UNL     1      -2.788   1.512   9.327  0.00  0.00    +0.001 A 
ATOM      9  C   UNL     1      -2.502   0.808  10.490  0.00  0.00    +0.001 A 
ATOM     10  C   UNL     1      -1.719  -0.325  10.453  0.00  0.00    +0.014 A 
ATOM     11  C   UNL     1      -1.212  -0.765   9.234  0.00  0.00    +0.050 A 
ATOM     12  C   UNL     1      -0.370  -1.962   9.105  0.00  0.00    +0.275 A 
ATOM     13  O   UNL     1      -0.079  -2.627  10.082  0.00  0.00    -0.266 OA
ATOM     14  N   UNL     1       0.073  -2.307   7.878  0.00  0.00    -0.224 N 
ATOM     15  N   UNL     1      -0.201  -1.647   6.817  0.00  0.00    -0.163 NA
BRANCH  14  16
ATOM     16  C   UNL     1       0.913  -3.501   7.755  0.00  0.00    +0.182 C 
BRANCH  16  17
ATOM     17  C   UNL     1       0.040  -4.706   7.517  0.00  0.00    -0.026 A 
ATOM     18  C   UNL     1      -0.433  -5.439   8.590  0.00  0.00    +0.005 A 
ATOM     19  C   UNL     1      -1.238  -6.542   8.372  0.00  0.00    +0.000 A 
ATOM     20  C   UNL     1      -1.561  -6.918   7.082  0.00  0.00    +0.000 A 
ATOM     21  C   UNL     1      -1.084  -6.188   6.009  0.00  0.00    +0.000 A 
ATOM     22  C   UNL     1      -0.283  -5.082   6.227  0.00  0.00    +0.005 A 
ENDBRANCH  16  17
ENDBRANCH  14  16
ENDBRANCH   2   5
BRANCH   1  27
ATOM     23  C   UNL     1      -0.013   1.086   0.008  0.00  0.00    +0.041 C 
ATOM     24  C   UNL     1      -0.729   1.579   1.267  0.00  0.00    +0.112 C 
ATOM     25  C   UNL     1      -0.026   1.077   2.512  0.00  0.00    +0.263 C 
ATOM     26  O   UNL     1       1.113   1.312   2.855  0.00  0.00    -0.271 OA
ATOM     27  N   UNL     1      -0.929   0.314   3.158  0.00  0.00    -0.137 N 
ATOM     28  C   UNL     1      -2.094   0.265   2.501  0.00  0.00    +0.326 C 
ATOM     29  O   UNL     1      -3.062  -0.361   2.886  0.00  0.00    -0.251 OA
ATOM     30  N   UNL     1      -2.073   0.985   1.365  0.00  0.00    -0.284 N 
ATOM     31  H   UNL     1      -2.802   1.093   0.734  0.00  0.00    +0.151 HD
BRANCH  24  32
ATOM     32  C   UNL     1      -0.810   3.107   1.274  0.00  0.00    +0.040 C 
BRANCH  32  33
ATOM     33  C   UNL     1      -1.675   3.577   0.103  0.00  0.00    +0.038 C 
BRANCH  33  34
ATOM     34  C   UNL     1      -1.755   5.082   0.110  0.00  0.00    -0.047 A 
ATOM     35  C   UNL     1      -2.767   5.717   0.805  0.00  0.00    +0.003 A 
ATOM     36  C   UNL     1      -2.838   7.098   0.816  0.00  0.00    +0.000 A 
ATOM     37  C   UNL     1      -1.902   7.843   0.123  0.00  0.00    +0.000 A 
ATOM     38  C   UNL     1      -0.893   7.208  -0.577  0.00  0.00    +0.000 A 
ATOM     39  C   UNL     1      -0.819   5.827  -0.583  0.00  0.00    +0.003 A 
ENDBRANCH  33  34
ENDBRANCH  32  33
ENDBRANCH  24  32
ENDBRANCH   1  27
TORSDOF 7
