REMARK  Name = ZINC19847913
REMARK  6 active torsions:
REMARK  status: ('A' for Active; 'I' for Inactive)
REMARK    1  A    between atoms: C_8  and  S_10
REMARK    2  A    between atoms: S_10  and  C_11
REMARK    3  A    between atoms: C_11  and  C_12
REMARK    4  A    between atoms: C_12  and  C_13
REMARK    5  A    between atoms: C_13  and  C_14
REMARK    6  A    between atoms: N_15  and  O_16
REMARK                            x       y       z     vdW  Elec       q    Type
REMARK                         _______ _______ _______ _____ _____    ______ ____
ROOT
ATOM      1  S   UNL     1      -0.836   1.656   3.995  0.00  0.00    -0.067 S 
ENDROOT
BRANCH   1   9
ATOM      2  C   UNL     1       3.216  -1.125   7.868  0.00  0.00    +0.002 A 
ATOM      3  C   UNL     1       2.416  -0.575   8.857  0.00  0.00    +0.004 A 
ATOM      4  C   UNL     1       1.312   0.184   8.524  0.00  0.00    +0.048 A 
ATOM      5  C   UNL     1       0.999   0.399   7.192  0.00  0.00    +0.156 A 
ATOM      6  C   UNL     1       1.805  -0.157   6.187  0.00  0.00    +0.110 A 
ATOM      7  C   UNL     1       2.918  -0.921   6.538  0.00  0.00    +0.031 A 
ATOM      8  N   UNL     1       1.256   0.213   4.997  0.00  0.00    -0.203 NA
ATOM      9  C   UNL     1       0.198   0.947   5.234  0.00  0.00    +0.258 A 
ATOM     10  O   UNL     1       0.013   1.076   6.560  0.00  0.00    -0.431 OA
ENDBRANCH   1   9
BRANCH   1  11
ATOM     11  C   UNL     1       0.011   1.072   2.506  0.00  0.00    +0.079 C 
BRANCH  11  12
ATOM     12  C   UNL     1      -0.729   1.579   1.267  0.00  0.00    +0.019 C 
BRANCH  12  13
ATOM     13  C   UNL     1      -0.013   1.086   0.008  0.00  0.00    +0.075 C 
BRANCH  13  14
ATOM     14  C   UNL     1      -0.742   1.585  -1.213  0.00  0.00    +0.132 C 
ATOM     15  N   UNL     1      -1.801   2.313  -1.080  0.00  0.00    -0.077 NA
ATOM     16  N   UNL     1      -0.279   1.266  -2.470  0.00  0.00    -0.344 N 
ATOM     17  H   UNL     1      -0.810   1.630  -3.361  0.00  0.00    +0.144 HD
ATOM     18  H   UNL     1       0.623   0.646  -2.583  0.00  0.00    +0.144 HD
BRANCH  15  19
ATOM     19  O   UNL     1      -2.486   2.782  -2.228  0.00  0.00    -0.408 OA
ATOM     20  H   UNL     1      -3.387   3.401  -2.115  0.00  0.00    +0.328 HD
ENDBRANCH  15  19
ENDBRANCH  13  14
ENDBRANCH  12  13
ENDBRANCH  11  12
ENDBRANCH   1  11
TORSDOF 6
