REMARK  Name = ZINC35870400
REMARK  6 active torsions:
REMARK  status: ('A' for Active; 'I' for Inactive)
REMARK    1  A    between atoms: C_6  and  C_7
REMARK    2  A    between atoms: C_7  and  N_8
REMARK    3  A    between atoms: C_15  and  N_31
REMARK    4  A    between atoms: C_19  and  C_24
REMARK    5  A    between atoms: N_26  and  C_27
REMARK    6  A    between atoms: C_27  and  C_28
REMARK                            x       y       z     vdW  Elec       q    Type
REMARK                         _______ _______ _______ _____ _____    ______ ____
ROOT
ATOM      1  N   UNL     1      -1.727  -1.018  -1.372  0.00  0.00    +0.385 N 
ATOM      2  C   UNL     1      -2.056   0.262  -2.017  0.00  0.00    -0.059 C 
ATOM      3  C   UNL     1      -2.286   0.008  -3.505  0.00  0.00    +0.087 C 
ATOM      4  N   UNL     1      -3.269  -1.062  -3.697  0.00  0.00    -0.329 N 
ATOM      5  C   UNL     1      -4.086  -0.992  -4.837  0.00  0.00    +0.033 A 
ATOM      6  C   UNL     1      -3.888   0.051  -5.737  0.00  0.00    +0.025 A 
ATOM      7  C   UNL     1      -4.672   0.144  -6.868  0.00  0.00    +0.034 A 
ATOM      8  C   UNL     1      -5.654  -0.800  -7.109  0.00  0.00    +0.127 A 
ATOM      9  C   UNL     1      -5.854  -1.835  -6.216  0.00  0.00    +0.038 A 
ATOM     10  C   UNL     1      -5.072  -1.932  -5.079  0.00  0.00    -0.023 A 
ATOM     11  C   UNL     1      -5.314  -3.063  -4.113  0.00  0.00    +0.051 C 
ATOM     12  C   UNL     1      -4.853  -2.648  -2.717  0.00  0.00    +0.098 C 
ATOM     13  C   UNL     1      -3.393  -2.183  -2.778  0.00  0.00    +0.069 C 
ATOM     14  C   UNL     1      -2.918  -1.866  -1.369  0.00  0.00    -0.055 C 
ATOM     15  H   UNL     1      -0.987  -1.475  -1.883  0.00  0.00    -0.081 HD
ENDROOT
BRANCH  12  16
ATOM     16  C   UNL     1      -5.719  -1.520  -2.216  0.00  0.00    +0.218 C 
ATOM     17  O   UNL     1      -5.220  -0.451  -1.936  0.00  0.00    -0.275 OA
ATOM     18  N   UNL     1      -7.048  -1.700  -2.080  0.00  0.00    -0.315 N 
ATOM     19  H   UNL     1      -7.447  -2.556  -2.304  0.00  0.00    +0.149 HD
BRANCH  18  20
ATOM     20  C   UNL     1      -7.889  -0.605  -1.594  0.00  0.00    +0.107 C 
BRANCH  20  21
ATOM     21  C   UNL     1      -9.346  -1.069  -1.532  0.00  0.00    +0.006 C 
ATOM     22  C   UNL     1     -10.351  -0.362  -2.444  0.00  0.00    +0.005 C 
ATOM     23  C   UNL     1     -10.371  -0.102  -0.936  0.00  0.00    +0.005 C 
ENDBRANCH  20  21
ENDBRANCH  18  20
ENDBRANCH  12  16
BRANCH   8  24
ATOM     24  N   UNL     1      -6.492  -0.700  -8.325  0.00  0.00    +0.056 N 
ATOM     25  O   UNL     1      -6.319   0.206  -9.106  0.00  0.00    -0.126 OA
ATOM     26  O   UNL     1      -7.351  -1.525  -8.536  0.00  0.00    -0.126 OA
ENDBRANCH   8  24
BRANCH   1  27
ATOM     27  C   UNL     1      -1.293  -0.775   0.010  0.00  0.00    -0.043 C 
BRANCH  27  33
ATOM     28  C   UNL     1      -0.017   1.378   0.010  0.00  0.00    +0.004 A 
ATOM     29  C   UNL     1       1.170   2.086   0.002  0.00  0.00    +0.038 A 
ATOM     30  C   UNL     1       2.379   1.410  -0.013  0.00  0.00    +0.123 A 
ATOM     31  C   UNL     1       2.396   0.026  -0.021  0.00  0.00    +0.038 A 
ATOM     32  C   UNL     1       1.208  -0.680  -0.013  0.00  0.00    +0.004 A 
ATOM     33  C   UNL     1       0.002  -0.004   0.002  0.00  0.00    -0.064 A 
ATOM     34  F   UNL     1       3.540   2.101  -0.021  0.00  0.00    -0.205 F 
ENDBRANCH  27  33
ENDBRANCH   1  27
TORSDOF 6
