REMARK  Name = ZINC12895380
REMARK  5 active torsions:
REMARK  status: ('A' for Active; 'I' for Inactive)
REMARK    1  A    between atoms: C_1  and  C_2
REMARK    2  A    between atoms: C_10  and  C_13
REMARK    3  A    between atoms: C_13  and  N_14
REMARK    4  A    between atoms: C_17  and  C_21
REMARK    5  A    between atoms: C_17  and  C_22
REMARK                            x       y       z     vdW  Elec       q    Type
REMARK                         _______ _______ _______ _____ _____    ______ ____
ROOT
ATOM      1  N   UNL     1      -1.740  -0.992  -1.369  0.00  0.00    -0.218 N 
ATOM      2  C   UNL     1      -2.526  -0.150  -2.069  0.00  0.00    +0.251 C 
ATOM      3  O   UNL     1      -2.987   0.905  -1.691  0.00  0.00    -0.272 OA
ATOM      4  C   UNL     1      -2.710  -0.796  -3.428  0.00  0.00    +0.135 C 
ATOM      5  N   UNL     1      -1.941  -2.048  -3.323  0.00  0.00    -0.281 N 
ATOM      6  C   UNL     1      -1.412  -2.072  -2.086  0.00  0.00    +0.310 C 
ATOM      7  O   UNL     1      -0.714  -2.975  -1.667  0.00  0.00    -0.252 OA
ATOM      8  C   UNL     1      -4.189  -1.093  -3.681  0.00  0.00    +0.047 C 
ATOM      9  H   UNL     1      -1.836  -2.724  -4.011  0.00  0.00    +0.152 HD
ENDROOT
BRANCH   4  10
ATOM     10  C   UNL     1      -2.152   0.079  -4.520  0.00  0.00    -0.012 A 
ATOM     11  C   UNL     1      -2.225   1.455  -4.406  0.00  0.00    +0.010 A 
ATOM     12  C   UNL     1      -1.714   2.261  -5.406  0.00  0.00    +0.050 A 
ATOM     13  C   UNL     1      -1.127   1.692  -6.526  0.00  0.00    +0.162 A 
ATOM     14  C   UNL     1      -1.052   0.309  -6.639  0.00  0.00    +0.162 A 
ATOM     15  C   UNL     1      -1.562  -0.495  -5.630  0.00  0.00    +0.055 A 
ATOM     16  O   UNL     1      -0.476  -0.271  -7.728  0.00  0.00    -0.485 OA
ATOM     17  C   UNL     1      -0.310   0.556  -8.884  0.00  0.00    +0.270 C 
ATOM     18  C   UNL     1       0.278   1.900  -8.433  0.00  0.00    +0.270 C 
ATOM     19  O   UNL     1      -0.633   2.499  -7.504  0.00  0.00    -0.485 OA
ENDBRANCH   4  10
BRANCH   1  20
ATOM     20  C   UNL     1      -1.304  -0.756   0.010  0.00  0.00    +0.174 C 
BRANCH  20  30
ATOM     21  C   UNL     1       3.698  -0.807  -0.037  0.00  0.00    +0.046 C 
ATOM     22  C   UNL     1       2.392  -0.056  -0.021  0.00  0.00    -0.021 A 
ATOM     23  C   UNL     1       2.367   1.352  -0.013  0.00  0.00    +0.005 A 
ATOM     24  C   UNL     1       3.553   2.103  -0.021  0.00  0.00    +0.010 A 
ATOM     25  C   UNL     1       3.488   3.463  -0.014  0.00  0.00    +0.001 A 
ATOM     26  C   UNL     1       2.259   4.120   0.002  0.00  0.00    +0.002 A 
ATOM     27  C   UNL     1       1.090   3.423   0.009  0.00  0.00    +0.028 A 
ATOM     28  C   UNL     1       1.117   2.017   0.002  0.00  0.00    +0.072 A 
ATOM     29  N   UNL     1      -0.016   1.306   0.009  0.00  0.00    -0.249 NA
ATOM     30  C   UNL     1       0.002  -0.004   0.002  0.00  0.00    +0.078 A 
ATOM     31  C   UNL     1       1.198  -0.721  -0.013  0.00  0.00    +0.067 A 
ATOM     32 CL   UNL     1       1.171  -2.457  -0.023  0.00  0.00    -0.081 Cl
ENDBRANCH  20  30
ENDBRANCH   1  20
TORSDOF 3
