REMARK  Name = ZINC12415540
REMARK  8 active torsions:
REMARK  status: ('A' for Active; 'I' for Inactive)
REMARK    1  A    between atoms: C_1  and  S_2
REMARK    2  A    between atoms: S_2  and  C_3
REMARK    3  A    between atoms: C_4  and  C_23
REMARK    4  A    between atoms: C_5  and  N_22
REMARK    5  A    between atoms: N_6  and  C_8
REMARK    6  A    between atoms: C_8  and  C_9
REMARK    7  A    between atoms: N_11  and  C_12
REMARK    8  A    between atoms: C_25  and  C_28
REMARK                            x       y       z     vdW  Elec       q    Type
REMARK                         _______ _______ _______ _____ _____    ______ ____
ROOT
ATOM      1  C   UNL     1       4.328  -6.165   1.119  0.00  0.00    +0.133 A 
ATOM      2  C   UNL     1       4.367  -6.297  -0.293  0.00  0.00    +0.112 A 
ATOM      3  C   UNL     1       4.605  -5.029  -0.813  0.00  0.00    +0.129 A 
ATOM      4  N   UNL     1       4.704  -4.180   0.231  0.00  0.00    -0.240 N 
ATOM      5  N   UNL     1       4.535  -4.906   1.414  0.00  0.00    -0.162 NA
ENDROOT
BRANCH   2   6
ATOM      6  C   UNL     1       4.189  -7.538  -1.060  0.00  0.00    +0.265 A 
ATOM      7  N   UNL     1       3.968  -8.746  -0.567  0.00  0.00    -0.187 NA
ATOM      8  C   UNL     1       3.870  -9.560  -1.639  0.00  0.00    +0.202 A 
ATOM      9  N   UNL     1       4.043  -8.823  -2.707  0.00  0.00    -0.056 NA
ATOM     10  O   UNL     1       4.226  -7.665  -2.397  0.00  0.00    -0.332 OA
BRANCH   8  11
ATOM     11  C   UNL     1       3.620 -11.023  -1.612  0.00  0.00    +0.023 A 
ATOM     12  C   UNL     1       3.461 -11.682  -0.395  0.00  0.00    +0.013 A 
ATOM     13  C   UNL     1       3.223 -13.041  -0.374  0.00  0.00    +0.021 A 
ATOM     14  C   UNL     1       3.153 -13.751  -1.561  0.00  0.00    +0.041 A 
ATOM     15  C   UNL     1       3.316 -13.101  -2.772  0.00  0.00    +0.021 A 
ATOM     16  C   UNL     1       3.549 -11.742  -2.803  0.00  0.00    +0.013 A 
ATOM     17 CL   UNL     1       2.861 -15.462  -1.529  0.00  0.00    -0.084 Cl
ENDBRANCH   8  11
ENDBRANCH   2   6
BRANCH   3  18
ATOM     18  N   UNL     1       4.719  -4.700  -2.151  0.00  0.00    -0.343 N 
ATOM     19  H   UNL     1       4.887  -3.781  -2.412  0.00  0.00    +0.144 HD
ATOM     20  H   UNL     1       4.631  -5.389  -2.829  0.00  0.00    +0.144 HD
ENDBRANCH   3  18
BRANCH   1  22
ATOM     21  C   UNL     1       4.125  -6.645   3.889  0.00  0.00    +0.091 C 
ATOM     22  S   UNL     1       4.056  -7.468   2.274  0.00  0.00    -0.107 S 
ENDBRANCH   1  22
BRANCH   4  23
ATOM     23  C   UNL     1       4.953  -2.739   0.140  0.00  0.00    +0.241 C 
BRANCH  23  24
ATOM     24  C   UNL     1       3.639  -2.007   0.047  0.00  0.00    +0.239 C 
ATOM     25  O   UNL     1       2.597  -2.628   0.056  0.00  0.00    -0.273 OA
ATOM     26  N   UNL     1       3.621  -0.663  -0.045  0.00  0.00    -0.284 N 
ATOM     27  H   UNL     1       4.454  -0.172  -0.130  0.00  0.00    +0.155 HD
BRANCH  26  28
ATOM     28  C   UNL     1       2.401   0.025  -0.020  0.00  0.00    +0.037 A 
ATOM     29  C   UNL     1       1.346  -0.460   0.740  0.00  0.00    +0.027 A 
ATOM     30  C   UNL     1       0.142   0.217   0.764  0.00  0.00    +0.051 A 
ATOM     31  C   UNL     1      -0.016   1.383   0.030  0.00  0.00    +0.162 A 
ATOM     32  C   UNL     1       1.039   1.873  -0.730  0.00  0.00    +0.164 A 
ATOM     33  C   UNL     1       2.247   1.192  -0.755  0.00  0.00    +0.072 A 
ATOM     34  O   UNL     1       0.906   3.020  -1.450  0.00  0.00    -0.485 OA
ATOM     35  C   UNL     1      -0.430   3.472  -1.699  0.00  0.00    +0.270 C 
ATOM     36  C   UNL     1      -1.216   3.394  -0.383  0.00  0.00    +0.270 C 
ATOM     37  O   UNL     1      -1.213   2.032   0.060  0.00  0.00    -0.485 OA
ENDBRANCH  26  28
ENDBRANCH  23  24
ENDBRANCH   4  23
TORSDOF 7
