REMARK  Name = ZINC67452540
REMARK  9 active torsions:
REMARK  status: ('A' for Active; 'I' for Inactive)
REMARK    1  A    between atoms: C_1  and  C_2
REMARK    2  A    between atoms: C_2  and  O_3
REMARK    3  A    between atoms: O_3  and  C_4
REMARK    4  A    between atoms: C_8  and  C_10
REMARK    5  A    between atoms: C_10  and  C_12
REMARK    6  A    between atoms: C_10  and  N_13
REMARK    7  A    between atoms: N_13  and  C_14
REMARK    8  A    between atoms: N_18  and  C_21
REMARK    9  A    between atoms: C_25  and  N_27
REMARK                            x       y       z     vdW  Elec       q    Type
REMARK                         _______ _______ _______ _____ _____    ______ ____
ROOT
ATOM      1  C   UNL     1      -5.681  -5.905   1.287  0.00  0.00    +0.143 C 
ATOM      2  C   UNL     1      -6.108  -5.087   2.527  0.00  0.00    +0.047 C 
ATOM      3  C   UNL     1      -5.738  -6.047   3.680  0.00  0.00    +0.116 C 
ATOM      4  N   UNL     1      -5.774  -7.393   3.096  0.00  0.00    -0.270 N 
ATOM      5  C   UNL     1      -5.738  -7.344   1.750  0.00  0.00    +0.237 C 
ATOM      6  O   UNL     1      -5.751  -8.310   1.017  0.00  0.00    -0.274 OA
ENDROOT
BRANCH   4   7
ATOM      7  C   UNL     1      -5.839  -8.575   3.841  0.00  0.00    +0.038 A 
ATOM      8  C   UNL     1      -5.879  -8.522   5.229  0.00  0.00    +0.023 A 
ATOM      9  C   UNL     1      -5.944  -9.691   5.961  0.00  0.00    +0.004 A 
ATOM     10  C   UNL     1      -5.968 -10.913   5.315  0.00  0.00    +0.033 A 
ATOM     11  C   UNL     1      -5.928 -10.970   3.934  0.00  0.00    +0.128 A 
ATOM     12  C   UNL     1      -5.869  -9.804   3.196  0.00  0.00    +0.056 A 
BRANCH  11  13
ATOM     13  N   UNL     1      -5.954 -12.280   3.247  0.00  0.00    +0.056 N 
ATOM     14  O   UNL     1      -6.010 -13.300   3.893  0.00  0.00    -0.126 OA
ATOM     15  O   UNL     1      -5.919 -12.330   2.039  0.00  0.00    -0.126 OA
ENDBRANCH  11  13
ENDBRANCH   4   7
BRANCH   1  16
ATOM     16  N   UNL     1      -4.314  -5.550   0.882  0.00  0.00    -0.299 NA
ATOM     17  H   UNL     1      -3.826  -6.352   0.513  0.00  0.00    +0.123 HD
BRANCH  16  18
ATOM     18  C   UNL     1      -4.323  -4.447  -0.089  0.00  0.00    +0.082 C 
ATOM     19  C   UNL     1      -4.490  -5.012  -1.501  0.00  0.00    +0.029 C 
BRANCH  18  24
ATOM     20  C   UNL     1      -1.821  -1.617  -0.011  0.00  0.00    +0.121 A 
ATOM     21  C   UNL     1      -0.630  -2.308   0.160  0.00  0.00    +0.045 A 
ATOM     22  C   UNL     1      -0.639  -3.686   0.250  0.00  0.00    +0.004 A 
ATOM     23  C   UNL     1      -1.834  -4.377   0.170  0.00  0.00    +0.005 A 
ATOM     24  C   UNL     1      -3.022  -3.691  -0.001  0.00  0.00    -0.027 A 
ATOM     25  C   UNL     1      -3.019  -2.312  -0.086  0.00  0.00    +0.050 A 
BRANCH  20  26
ATOM     26  O   UNL     1      -1.814  -0.261  -0.099  0.00  0.00    -0.492 OA
BRANCH  26  28
ATOM     27  C   UNL     1      -0.736   1.902  -0.132  0.00  0.00    +0.048 C 
ATOM     28  C   UNL     1      -0.544   0.389  -0.013  0.00  0.00    +0.225 C 
ENDBRANCH  26  28
ENDBRANCH  20  26
ENDBRANCH  18  24
ENDBRANCH  16  18
ENDBRANCH   1  16
TORSDOF 7
