REMARK  Name = ZINC57568366
REMARK  2 active torsions:
REMARK  status: ('A' for Active; 'I' for Inactive)
REMARK    1  A    between atoms: C_4  and  C_7
REMARK    2  A    between atoms: N_13  and  C_14
REMARK                            x       y       z     vdW  Elec       q    Type
REMARK                         _______ _______ _______ _____ _____    ______ ____
ROOT
ATOM      1  C   UNL     1       3.711  -0.707  -0.038  0.00  0.00    +0.130 C 
ATOM      2  C   UNL     1       4.035  -1.270   1.360  0.00  0.00    +0.133 C 
ATOM      3  N   UNL     1       4.093  -2.724   1.149  0.00  0.00    -0.297 N 
ATOM      4  C   UNL     1       3.850  -2.992  -0.140  0.00  0.00    +0.307 C 
ATOM      5  O   UNL     1       3.837  -4.121  -0.592  0.00  0.00    -0.252 OA
ATOM      6  N   UNL     1       3.623  -1.902  -0.890  0.00  0.00    -0.247 N 
ATOM      7  H   UNL     1       4.279  -3.385   1.835  0.00  0.00    +0.150 HD
ENDROOT
BRANCH   6   8
ATOM      8  C   UNL     1       3.346  -1.900  -2.263  0.00  0.00    +0.039 A 
ATOM      9  C   UNL     1       3.133  -0.700  -2.928  0.00  0.00    +0.025 A 
ATOM     10  C   UNL     1       2.860  -0.701  -4.282  0.00  0.00    +0.022 A 
ATOM     11  C   UNL     1       2.798  -1.897  -4.975  0.00  0.00    +0.041 A 
ATOM     12  C   UNL     1       3.009  -3.095  -4.315  0.00  0.00    +0.022 A 
ATOM     13  C   UNL     1       3.289  -3.099  -2.962  0.00  0.00    +0.025 A 
ATOM     14 CL   UNL     1       2.454  -1.895  -6.677  0.00  0.00    -0.084 Cl
ENDBRANCH   6   8
BRANCH   1  18
ATOM     15  C   UNL     1      -0.017   1.378   0.010  0.00  0.00    +0.000 A 
ATOM     16  C   UNL     1       1.171   2.086   0.002  0.00  0.00    +0.000 A 
ATOM     17  C   UNL     1       2.377   1.411  -0.013  0.00  0.00    +0.005 A 
ATOM     18  C   UNL     1       2.396   0.029  -0.020  0.00  0.00    -0.025 A 
ATOM     19  C   UNL     1       1.208  -0.679  -0.012  0.00  0.00    +0.005 A 
ATOM     20  C   UNL     1       0.002  -0.004   0.002  0.00  0.00    +0.000 A 
ENDBRANCH   1  18
TORSDOF 2
