REMARK  Name = ZINC41213641
REMARK  6 active torsions:
REMARK  status: ('A' for Active; 'I' for Inactive)
REMARK    1  A    between atoms: C_1  and  C_2
REMARK    2  A    between atoms: C_3  and  C_8
REMARK    3  A    between atoms: C_5  and  C_7
REMARK    4  A    between atoms: N_10  and  N_11
REMARK    5  A    between atoms: C_12  and  C_13
REMARK    6  A    between atoms: C_18  and  C_19
REMARK                            x       y       z     vdW  Elec       q    Type
REMARK                         _______ _______ _______ _____ _____    ______ ____
ROOT
ATOM      1  C   UNL     1       0.141  -0.249  -2.572  0.00  0.00    +0.272 C 
ATOM      2  O   UNL     1       0.139   0.944  -2.813  0.00  0.00    -0.268 OA
ATOM      3  N   UNL     1       0.109  -1.141  -3.583  0.00  0.00    -0.202 N 
ATOM      4  H   UNL     1       0.111  -2.092  -3.391  0.00  0.00    +0.178 HD
ENDROOT
BRANCH   1   7
ATOM      5  C   UNL     1       0.224   1.518   0.003  0.00  0.00    +0.067 C 
ATOM      6  C   UNL     1       0.217   0.011  -0.003  0.00  0.00    +0.058 A 
ATOM      7  C   UNL     1       0.180  -0.717  -1.183  0.00  0.00    +0.098 A 
ATOM      8  S   UNL     1       0.192  -2.382  -0.539  0.00  0.00    -0.067 S 
ATOM      9  C   UNL     1       0.240  -1.997   1.099  0.00  0.00    +0.076 A 
ATOM     10  N   UNL     1       0.251  -0.684   1.107  0.00  0.00    -0.249 NA
ATOM     11  C   UNL     1       0.270  -2.937   2.277  0.00  0.00    +0.073 C 
ENDBRANCH   1   7
BRANCH   3  12
ATOM     12  N   UNL     1       0.072  -0.694  -4.910  0.00  0.00    -0.187 NA
ATOM     13  C   UNL     1       0.041  -1.554  -5.884  0.00  0.00    +0.139 C 
BRANCH  13  14
ATOM     14  C   UNL     1       0.002  -1.085  -7.278  0.00  0.00    +0.009 A 
ATOM     15  C   UNL     1      -0.124   0.277  -7.559  0.00  0.00    +0.010 A 
ATOM     16  C   UNL     1      -0.159   0.711  -8.867  0.00  0.00    +0.001 A 
ATOM     17  C   UNL     1      -0.070  -0.196  -9.912  0.00  0.00    +0.001 A 
ATOM     18  C   UNL     1       0.055  -1.545  -9.659  0.00  0.00    +0.016 A 
ATOM     19  C   UNL     1       0.099  -2.007  -8.342  0.00  0.00    +0.072 A 
BRANCH  19  20
ATOM     20  C   UNL     1       0.238  -3.446  -8.065  0.00  0.00    +0.387 C 
ATOM     21  O   UNL     1       0.433  -4.229  -8.984  0.00  0.00    -0.241 OA
ATOM     22  O   UNL     1       0.160  -3.858  -6.916  0.00  0.00    -0.241 OA
ENDBRANCH  19  20
ENDBRANCH  13  14
ENDBRANCH   3  12
TORSDOF 4
