REMARK  Name = ZINC36599005
REMARK  15 active torsions:
REMARK  status: ('A' for Active; 'I' for Inactive)
REMARK    1  A    between atoms: C_1  and  C_2
REMARK    2  A    between atoms: C_7  and  C_8
REMARK    3  A    between atoms: C_8  and  C_10
REMARK    4  A    between atoms: C_8  and  N_17
REMARK    5  A    between atoms: N_12  and  C_13
REMARK    6  A    between atoms: C_13  and  C_14
REMARK    7  A    between atoms: C_13  and  C_15
REMARK    8  A    between atoms: C_13  and  C_16
REMARK    9  A    between atoms: N_17  and  C_18
REMARK   10  A    between atoms: C_18  and  C_19
REMARK   11  A    between atoms: C_22  and  C_24
REMARK   12  A    between atoms: C_25  and  C_27
REMARK   13  A    between atoms: C_27  and  C_28
REMARK   14  A    between atoms: C_27  and  C_34
REMARK   15  A    between atoms: C_27  and  O_40
REMARK                            x       y       z     vdW  Elec       q    Type
REMARK                         _______ _______ _______ _____ _____    ______ ____
ROOT
ATOM      1  N   UNL     1      -0.716  -0.983   3.049  0.00  0.00    -0.276 N 
ATOM      2  C   UNL     1       0.584  -1.334   3.105  0.00  0.00    +0.258 C 
ATOM      3  O   UNL     1       1.374  -0.861   2.315  0.00  0.00    -0.272 OA
ENDROOT
BRANCH   1   4
ATOM      4  C   UNL     1      -1.202  -0.142   1.952  0.00  0.00    +0.193 C 
BRANCH   4  11
ATOM      5  C   UNL     1      -1.889   1.819   3.958  0.00  0.00    +0.044 C 
ATOM      6  C   UNL     1      -2.975   1.152   3.153  0.00  0.00    -0.045 A 
ATOM      7  C   UNL     1      -4.299   1.484   3.370  0.00  0.00    +0.004 A 
ATOM      8  C   UNL     1      -5.295   0.873   2.632  0.00  0.00    +0.000 A 
ATOM      9  C   UNL     1      -4.966  -0.070   1.675  0.00  0.00    +0.000 A 
ATOM     10  C   UNL     1      -3.642  -0.401   1.457  0.00  0.00    +0.006 A 
ATOM     11  C   UNL     1      -2.646   0.214   2.193  0.00  0.00    -0.015 A 
ENDBRANCH   4  11
BRANCH   4  12
ATOM     12  C   UNL     1      -1.080  -0.895   0.651  0.00  0.00    +0.239 C 
ATOM     13  O   UNL     1      -1.083  -2.107   0.650  0.00  0.00    -0.273 OA
ATOM     14  N   UNL     1      -0.969  -0.220  -0.510  0.00  0.00    -0.309 N 
ATOM     15  H   UNL     1      -0.894   0.747  -0.503  0.00  0.00    +0.149 HD
BRANCH  14  16
ATOM     16  C   UNL     1      -0.961  -0.947  -1.782  0.00  0.00    +0.026 C 
ATOM     17  C   UNL     1      -2.269  -1.726  -1.931  0.00  0.00    +0.031 C 
ATOM     18  C   UNL     1      -0.825   0.048  -2.937  0.00  0.00    +0.031 C 
ATOM     19  C   UNL     1       0.218  -1.920  -1.806  0.00  0.00    +0.031 C 
ENDBRANCH  14  16
ENDBRANCH   4  12
ENDBRANCH   1   4
BRANCH   1  20
ATOM     20  C   UNL     1      -1.644  -1.442   4.086  0.00  0.00    +0.183 C 
BRANCH  20  21
ATOM     21  C   UNL     1      -2.358  -2.680   3.608  0.00  0.00    +0.122 A 
ATOM     22  C   UNL     1      -2.171  -3.927   4.077  0.00  0.00    +0.046 A 
ATOM     23  C   UNL     1      -3.040  -4.773   3.351  0.00  0.00    +0.045 A 
ATOM     24  C   UNL     1      -3.706  -3.993   2.481  0.00  0.00    +0.102 A 
ATOM     25  O   UNL     1      -3.293  -2.725   2.645  0.00  0.00    -0.463 OA
ATOM     26  C   UNL     1      -4.744  -4.460   1.494  0.00  0.00    +0.086 C 
ENDBRANCH  20  21
ENDBRANCH   1  20
BRANCH   2  27
ATOM     27  C   UNL     1       1.056  -2.313   4.148  0.00  0.00    +0.192 C 
BRANCH  27  28
ATOM     28  C   UNL     1       2.477  -2.719   3.850  0.00  0.00    -0.003 A 
ATOM     29  C   UNL     1       3.449  -1.752   3.671  0.00  0.00    +0.007 A 
ATOM     30  C   UNL     1       4.751  -2.125   3.397  0.00  0.00    +0.000 A 
ATOM     31  C   UNL     1       5.082  -3.463   3.304  0.00  0.00    +0.000 A 
ATOM     32  C   UNL     1       4.111  -4.430   3.484  0.00  0.00    +0.000 A 
ATOM     33  C   UNL     1       2.809  -4.058   3.762  0.00  0.00    +0.007 A 
ENDBRANCH  27  28
BRANCH  27  34
ATOM     34  C   UNL     1       0.993  -1.667   5.508  0.00  0.00    -0.003 A 
ATOM     35  C   UNL     1       1.249  -0.315   5.644  0.00  0.00    +0.007 A 
ATOM     36  C   UNL     1       1.192   0.277   6.892  0.00  0.00    +0.000 A 
ATOM     37  C   UNL     1       0.877  -0.482   8.004  0.00  0.00    +0.000 A 
ATOM     38  C   UNL     1       0.620  -1.833   7.868  0.00  0.00    +0.000 A 
ATOM     39  C   UNL     1       0.674  -2.425   6.620  0.00  0.00    +0.007 A 
ENDBRANCH  27  34
BRANCH  27  40
ATOM     40  O   UNL     1       0.217  -3.469   4.131  0.00  0.00    -0.371 OA
ATOM     41  H   UNL     1       0.154  -3.897   3.266  0.00  0.00    +0.212 HD
ENDBRANCH  27  40
ENDBRANCH   2  27
TORSDOF 10
