REMARK  Name = ZINC08431203
REMARK  11 active torsions:
REMARK  status: ('A' for Active; 'I' for Inactive)
REMARK    1  A    between atoms: C_1  and  C_2
REMARK    2  A    between atoms: C_4  and  C_37
REMARK    3  A    between atoms: C_9  and  C_19
REMARK    4  A    between atoms: C_10  and  C_15
REMARK    5  A    between atoms: C_12  and  C_14
REMARK    6  A    between atoms: C_15  and  O_17
REMARK    7  A    between atoms: O_17  and  C_18
REMARK    8  A    between atoms: C_19  and  O_21
REMARK    9  A    between atoms: O_21  and  C_22
REMARK   10  A    between atoms: N_23  and  C_24
REMARK   11  A    between atoms: N_30  and  C_31
REMARK                            x       y       z     vdW  Elec       q    Type
REMARK                         _______ _______ _______ _____ _____    ______ ____
ROOT
ATOM      1  C   UNL     1       5.146  -1.613   1.026  0.00  0.00    +0.347 C 
ATOM      2  O   UNL     1       6.048  -1.422   1.807  0.00  0.00    -0.244 OA
ENDROOT
BRANCH   1  11
ATOM      3  C   UNL     1       2.435  -5.961  -2.649  0.00  0.00    +0.044 C 
ATOM      4  C   UNL     1       1.970  -5.421  -1.321  0.00  0.00    -0.050 C 
ATOM      5  C   UNL     1       2.547  -5.906  -0.270  0.00  0.00    +0.007 C 
ATOM      6  C   UNL     1       2.274  -5.554   1.123  0.00  0.00    -0.042 C 
ATOM      7  C   UNL     1       2.043  -4.317   1.486  0.00  0.00    -0.014 C 
ATOM      8  C   UNL     1       1.861  -3.945   2.898  0.00  0.00    +0.009 C 
ATOM      9  C   UNL     1       2.658  -3.063   3.455  0.00  0.00    +0.001 C 
ATOM     10  C   UNL     1       3.805  -2.505   2.744  0.00  0.00    +0.016 C 
ATOM     11  C   UNL     1       3.860  -2.149   1.502  0.00  0.00    +0.074 C 
ATOM     12  C   UNL     1       2.778  -2.223   0.521  0.00  0.00    +0.081 C 
ATOM     13  C   UNL     1       1.959  -3.244   0.477  0.00  0.00    +0.000 C 
ATOM     14  C   UNL     1       0.929  -3.365  -0.567  0.00  0.00    -0.042 C 
ATOM     15  C   UNL     1       0.922  -4.405  -1.363  0.00  0.00    +0.007 C 
ATOM     16  C   UNL     1      -0.115  -2.289  -0.722  0.00  0.00    +0.044 C 
ATOM     17  C   UNL     1       2.259  -6.641   2.166  0.00  0.00    +0.044 C 
BRANCH  12  18
ATOM     18  C   UNL     1       2.607  -1.123  -0.443  0.00  0.00    +0.340 C 
ATOM     19  O   UNL     1       2.182  -0.054  -0.071  0.00  0.00    -0.245 OA
BRANCH  18  20
ATOM     20  O   UNL     1       2.921  -1.306  -1.735  0.00  0.00    -0.464 OA
ATOM     21  C   UNL     1       2.730  -0.196  -2.614  0.00  0.00    +0.280 C 
ENDBRANCH  18  20
ENDBRANCH  12  18
ENDBRANCH   1  11
BRANCH   1  22
ATOM     22  O   UNL     1       5.318  -1.337  -0.279  0.00  0.00    -0.393 OA
BRANCH  22  23
ATOM     23  C   UNL     1       6.469  -0.739  -0.654  0.00  0.00    +0.264 C 
ATOM     24  N   UNL     1       7.239  -1.301  -1.580  0.00  0.00    -0.340 N 
ATOM     25  N   UNL     1       6.831   0.413  -0.098  0.00  0.00    -0.298 N 
ATOM     26  H   UNL     1       6.269   0.823   0.577  0.00  0.00    +0.151 HD
ATOM     27  H   UNL     1       8.100  -0.910  -1.797  0.00  0.00    +0.164 HD
BRANCH  24  28
ATOM     28  C   UNL     1       6.788  -2.511  -2.272  0.00  0.00    +0.083 C 
ATOM     29  C   UNL     1       7.064  -3.733  -1.394  0.00  0.00    +0.024 C 
ATOM     30  C   UNL     1       6.593  -4.997  -2.117  0.00  0.00    +0.002 C 
ATOM     31  C   UNL     1       7.347  -5.138  -3.440  0.00  0.00    +0.000 C 
ATOM     32  C   UNL     1       7.072  -3.916  -4.318  0.00  0.00    +0.002 C 
ATOM     33  C   UNL     1       7.543  -2.652  -3.595  0.00  0.00    +0.024 C 
ENDBRANCH  24  28
BRANCH  25  34
ATOM     34  C   UNL     1       8.079   1.062  -0.506  0.00  0.00    +0.075 C 
ATOM     35  C   UNL     1       9.244   0.477   0.296  0.00  0.00    +0.022 C 
ATOM     36  C   UNL     1      10.547   1.155  -0.129  0.00  0.00    +0.002 C 
ATOM     37  C   UNL     1      10.450   2.659   0.136  0.00  0.00    +0.000 C 
ATOM     38  C   UNL     1       9.286   3.244  -0.666  0.00  0.00    +0.002 C 
ATOM     39  C   UNL     1       7.982   2.566  -0.241  0.00  0.00    +0.022 C 
ENDBRANCH  25  34
ENDBRANCH  22  23
ENDBRANCH   1  22
TORSDOF 7
