REMARK  Name = ZINC22712000
REMARK  13 active torsions:
REMARK  status: ('A' for Active; 'I' for Inactive)
REMARK    1  A    between atoms: C_1  and  C_2
REMARK    2  A    between atoms: C_2  and  C_3
REMARK    3  A    between atoms: C_2  and  C_4
REMARK    4  A    between atoms: C_2  and  C_5
REMARK    5  A    between atoms: C_12  and  N_17
REMARK    6  A    between atoms: C_13  and  C_14
REMARK    7  A    between atoms: N_17  and  C_18
REMARK    8  A    between atoms: C_18  and  N_20
REMARK    9  A    between atoms: C_21  and  C_23
REMARK   10  A    between atoms: C_24  and  O_31
REMARK   11  A    between atoms: C_28  and  O_29
REMARK   12  A    between atoms: O_29  and  C_30
REMARK   13  A    between atoms: O_31  and  C_32
REMARK                            x       y       z     vdW  Elec       q    Type
REMARK                         _______ _______ _______ _____ _____    ______ ____
ROOT
ATOM      1  C   UNL     1      -4.352  -0.673  -3.490  0.00  0.00    -0.000 C 
ATOM      2  C   UNL     1      -3.685   0.699  -3.627  0.00  0.00    +0.009 C 
ATOM      3  C   UNL     1      -2.554   0.832  -2.605  0.00  0.00    +0.037 C 
ATOM      4  C   UNL     1      -3.100   0.495  -1.223  0.00  0.00    -0.023 A 
ATOM      5  C   UNL     1      -4.253  -0.194  -1.079  0.00  0.00    -0.004 A 
ATOM      6  S   UNL     1      -4.477  -0.341   0.671  0.00  0.00    -0.077 S 
ATOM      7  C   UNL     1      -3.057   0.494   1.206  0.00  0.00    +0.084 A 
ATOM      8  C   UNL     1      -2.447   0.874   0.018  0.00  0.00    +0.068 A 
ATOM      9  C   UNL     1      -5.138  -0.712  -2.171  0.00  0.00    +0.046 C 
ENDROOT
BRANCH   8  10
ATOM     10  C   UNL     1      -1.187   1.624   0.017  0.00  0.00    +0.244 C 
ATOM     11  O   UNL     1      -1.204   2.841   0.023  0.00  0.00    -0.270 OA
ATOM     12  N   UNL     1      -0.011   0.966   0.007  0.00  0.00    -0.325 N 
ATOM     13  H   UNL     1       0.934   1.529   0.006  0.00  0.00    +0.145 HD
ATOM     14  H   UNL     1       0.004  -0.134   0.001  0.00  0.00    +0.145 HD
ENDBRANCH   8  10
BRANCH   1  16
ATOM     15  C   UNL     1      -4.525  -0.843  -5.976  0.00  0.00    +0.011 C 
ATOM     16  C   UNL     1      -5.307  -0.899  -4.663  0.00  0.00    -0.035 C 
ATOM     17  C   UNL     1      -5.972  -2.270  -4.524  0.00  0.00    +0.011 C 
ATOM     18  C   UNL     1      -6.382   0.191  -4.662  0.00  0.00    +0.011 C 
ENDBRANCH   1  16
BRANCH   7  19
ATOM     19  N   UNL     1      -2.633   0.728   2.505  0.00  0.00    -0.291 N 
ATOM     20  H   UNL     1      -1.700   1.280   2.688  0.00  0.00    +0.154 HD
BRANCH  19  21
ATOM     21  C   UNL     1      -3.365   0.277   3.543  0.00  0.00    +0.141 C 
ATOM     22  S   UNL     1      -4.817  -0.583   3.258  0.00  0.00    -0.018 S 
BRANCH  21  23
ATOM     23  N   UNL     1      -2.953   0.505   4.806  0.00  0.00    -0.263 N 
ATOM     24  C   UNL     1      -3.684   0.055   5.845  0.00  0.00    +0.257 C 
ATOM     25  O   UNL     1      -4.716  -0.556   5.642  0.00  0.00    -0.270 OA
ATOM     26  H   UNL     1      -2.020   1.058   4.989  0.00  0.00    +0.157 HD
BRANCH  24  27
ATOM     27  C   UNL     1      -3.235   0.303   7.224  0.00  0.00    +0.120 A 
ATOM     28  C   UNL     1      -3.634   1.466   7.899  0.00  0.00    +0.136 A 
ATOM     29  C   UNL     1      -3.210   1.687   9.199  0.00  0.00    +0.046 A 
ATOM     30  C   UNL     1      -2.386   0.771   9.827  0.00  0.00    +0.007 A 
ATOM     31  C   UNL     1      -1.982  -0.376   9.169  0.00  0.00    +0.046 A 
ATOM     32  C   UNL     1      -2.399  -0.619   7.871  0.00  0.00    +0.136 A 
BRANCH  32  33
ATOM     33  O   UNL     1      -2.001  -1.746   7.228  0.00  0.00    -0.494 OA
ATOM     34  C   UNL     1      -1.151  -2.639   7.950  0.00  0.00    +0.277 C 
ENDBRANCH  32  33
BRANCH  28  35
ATOM     35  O   UNL     1      -4.438   2.369   7.282  0.00  0.00    -0.494 OA
ATOM     36  C   UNL     1      -4.803   3.530   8.031  0.00  0.00    +0.277 C 
ENDBRANCH  28  35
ENDBRANCH  24  27
ENDBRANCH  21  23
ENDBRANCH  19  21
ENDBRANCH   7  19
TORSDOF 8
