REMARK  Name = ZINC56720418
REMARK  8 active torsions:
REMARK  status: ('A' for Active; 'I' for Inactive)
REMARK    1  A    between atoms: C_1  and  C_2
REMARK    2  A    between atoms: C_5  and  C_28
REMARK    3  A    between atoms: N_8  and  C_10
REMARK    4  A    between atoms: C_10  and  C_11
REMARK    5  A    between atoms: C_11  and  C_12
REMARK    6  A    between atoms: C_12  and  C_13
REMARK    7  A    between atoms: C_13  and  N_14
REMARK    8  A    between atoms: N_17  and  C_18
REMARK                            x       y       z     vdW  Elec       q    Type
REMARK                         _______ _______ _______ _____ _____    ______ ____
ROOT
ATOM      1  N   UNL     1       6.030  -2.561   4.444  0.00  0.00    -0.299 N 
ATOM      2  C   UNL     1       7.351  -2.305   4.521  0.00  0.00    +0.304 C 
ATOM      3  O   UNL     1       7.901  -1.671   3.642  0.00  0.00    -0.253 OA
ATOM      4  N   UNL     1       8.063  -2.753   5.575  0.00  0.00    -0.266 N 
ATOM      5  H   UNL     1       5.592  -3.067   5.146  0.00  0.00    +0.150 HD
ATOM      6  H   UNL     1       7.614  -3.203   6.308  0.00  0.00    +0.156 HD
ENDROOT
BRANCH   4   7
ATOM      7  C   UNL     1       9.452  -2.569   5.611  0.00  0.00    +0.080 A 
ATOM      8  C   UNL     1      10.015  -1.424   5.066  0.00  0.00    +0.027 A 
ATOM      9  C   UNL     1      11.385  -1.243   5.101  0.00  0.00    +0.006 A 
ATOM     10  C   UNL     1      12.198  -2.201   5.676  0.00  0.00    +0.049 A 
ATOM     11  C   UNL     1      11.643  -3.350   6.223  0.00  0.00    +0.164 A 
ATOM     12  C   UNL     1      10.268  -3.533   6.198  0.00  0.00    +0.183 A 
ATOM     13  O   UNL     1       9.702  -4.647   6.740  0.00  0.00    -0.483 OA
ATOM     14  C   UNL     1      10.572  -5.757   6.984  0.00  0.00    +0.270 C 
ATOM     15  C   UNL     1      11.842  -5.231   7.666  0.00  0.00    +0.270 C 
ATOM     16  O   UNL     1      12.460  -4.284   6.782  0.00  0.00    -0.485 OA
ENDBRANCH   4   7
BRANCH   1  17
ATOM     17  C   UNL     1       5.256  -2.074   3.299  0.00  0.00    +0.105 C 
BRANCH  17  18
ATOM     18  C   UNL     1       3.794  -2.497   3.455  0.00  0.00    +0.017 C 
BRANCH  18  19
ATOM     19  C   UNL     1       2.986  -1.989   2.259  0.00  0.00    -0.017 C 
BRANCH  19  20
ATOM     20  C   UNL     1       1.524  -2.412   2.415  0.00  0.00    -0.079 C 
BRANCH  20  26
ATOM     21  C   UNL     1      -0.009   1.588   0.045  0.00  0.00    +0.005 C 
ATOM     22  C   UNL     1       0.001   0.058   0.035  0.00  0.00    -0.031 C 
ATOM     23  C   UNL     1      -1.439  -0.463   0.053  0.00  0.00    +0.003 C 
ATOM     24  C   UNL     1      -1.418  -1.992   0.122  0.00  0.00    -0.031 C 
ATOM     25  C   UNL     1      -0.627  -2.431   1.357  0.00  0.00    -0.076 C 
ATOM     26  N   UNL     1       0.748  -1.924   1.267  0.00  0.00    +0.380 N 
ATOM     27  C   UNL     1       0.740  -0.456   1.272  0.00  0.00    -0.076 C 
ATOM     28  C   UNL     1      -2.851  -2.520   0.219  0.00  0.00    +0.005 C 
ATOM     29  H   UNL     1       1.171  -2.253   0.413  0.00  0.00    -0.082 HD
ENDBRANCH  20  26
ENDBRANCH  19  20
ENDBRANCH  18  19
ENDBRANCH  17  18
ENDBRANCH   1  17
TORSDOF 6
