REMARK  Name = ZINC38582781
REMARK  8 active torsions:
REMARK  status: ('A' for Active; 'I' for Inactive)
REMARK    1  A    between atoms: C_1  and  O_2
REMARK    2  A    between atoms: O_2  and  C_3
REMARK    3  A    between atoms: C_3  and  C_4
REMARK    4  A    between atoms: C_4  and  O_5
REMARK    5  A    between atoms: O_5  and  C_6
REMARK    6  A    between atoms: C_6  and  C_8
REMARK    7  A    between atoms: C_9  and  N_32
REMARK    8  A    between atoms: C_23  and  C_25
REMARK                            x       y       z     vdW  Elec       q    Type
REMARK                         _______ _______ _______ _____ _____    ______ ____
ROOT
ATOM      1  C   UNL     1       0.270  -4.372   2.537  0.00  0.00    +0.102 C 
ATOM      2  C   UNL     1       0.374  -5.712   2.699  0.00  0.00    +0.194 C 
ATOM      3  O   UNL     1       0.936  -6.255   3.804  0.00  0.00    -0.445 OA
ATOM      4  C   UNL     1       1.553  -5.415   4.638  0.00  0.00    +0.129 C 
ATOM      5  C   UNL     1       2.754  -5.706   5.265  0.00  0.00    +0.035 A 
ATOM      6  C   UNL     1       3.397  -6.947   5.077  0.00  0.00    +0.013 A 
ATOM      7  C   UNL     1       4.570  -7.201   5.718  0.00  0.00    +0.001 A 
ATOM      8  C   UNL     1       5.154  -6.257   6.559  0.00  0.00    +0.002 A 
ATOM      9  C   UNL     1       4.584  -5.039   6.776  0.00  0.00    +0.024 A 
ATOM     10  C   UNL     1       3.374  -4.707   6.145  0.00  0.00    +0.044 A 
ATOM     11  N   UNL     1       2.818  -3.507   6.352  0.00  0.00    -0.284 N 
ATOM     12  C   UNL     1       1.676  -3.123   5.818  0.00  0.00    +0.229 C 
ATOM     13  O   UNL     1       1.237  -2.012   6.050  0.00  0.00    -0.275 OA
ATOM     14  C   UNL     1       0.911  -4.066   4.916  0.00  0.00    +0.154 C 
ATOM     15  C   UNL     1       0.788  -3.385   3.547  0.00  0.00    +0.082 C 
ATOM     16  H   UNL     1       3.285  -2.882   6.929  0.00  0.00    +0.155 HD
ENDROOT
BRANCH  15  17
ATOM     17  C   UNL     1       2.139  -2.882   3.109  0.00  0.00    -0.020 A 
ATOM     18  C   UNL     1       3.184  -3.769   2.935  0.00  0.00    +0.006 A 
ATOM     19  C   UNL     1       4.424  -3.308   2.534  0.00  0.00    +0.000 A 
ATOM     20  C   UNL     1       4.619  -1.958   2.306  0.00  0.00    +0.001 A 
ATOM     21  C   UNL     1       3.575  -1.070   2.479  0.00  0.00    +0.020 A 
ATOM     22  C   UNL     1       2.332  -1.532   2.876  0.00  0.00    +0.045 A 
ATOM     23 CL   UNL     1       1.018  -0.417   3.087  0.00  0.00    -0.083 Cl
ENDBRANCH  15  17
BRANCH   2  24
ATOM     24  N   UNL     1      -0.103  -6.540   1.719  0.00  0.00    -0.329 N 
ATOM     25  H   UNL     1      -0.438  -6.167   0.889  0.00  0.00    +0.145 HD
ATOM     26  H   UNL     1      -0.105  -7.501   1.855  0.00  0.00    +0.145 HD
ENDBRANCH   2  24
BRANCH   1  27
ATOM     27  C   UNL     1      -0.342  -3.882   1.371  0.00  0.00    +0.341 C 
ATOM     28  O   UNL     1      -1.496  -3.494   1.407  0.00  0.00    -0.245 OA
BRANCH  27  29
ATOM     29  O   UNL     1       0.349  -3.841   0.212  0.00  0.00    -0.459 OA
BRANCH  29  30
ATOM     30  C   UNL     1      -0.336  -3.330  -0.934  0.00  0.00    +0.260 C 
BRANCH  30  31
ATOM     31  C   UNL     1       0.600  -3.362  -2.144  0.00  0.00    +0.200 C 
BRANCH  31  33
ATOM     32  C   UNL     1       1.791  -4.859  -3.588  0.00  0.00    +0.194 C 
ATOM     33  O   UNL     1       0.917  -4.717  -2.466  0.00  0.00    -0.380 OA
ENDBRANCH  31  33
ENDBRANCH  30  31
ENDBRANCH  29  30
ENDBRANCH  27  29
ENDBRANCH   1  27
TORSDOF 7
