REMARK  Name = ZINC35956830
REMARK  12 active torsions:
REMARK  status: ('A' for Active; 'I' for Inactive)
REMARK    1  A    between atoms: C_3  and  C_6
REMARK    2  A    between atoms: C_6  and  N_7
REMARK    3  A    between atoms: N_7  and  C_8
REMARK    4  A    between atoms: C_8  and  C_9
REMARK    5  A    between atoms: C_9  and  C_10
REMARK    6  A    between atoms: C_12  and  C_15
REMARK    7  A    between atoms: C_22  and  C_24
REMARK    8  A    between atoms: C_24  and  C_25
REMARK    9  A    between atoms: C_25  and  C_26
REMARK   10  A    between atoms: C_26  and  C_27
REMARK   11  A    between atoms: C_27  and  C_28
REMARK   12  A    between atoms: C_28  and  N_29
REMARK                            x       y       z     vdW  Elec       q    Type
REMARK                         _______ _______ _______ _____ _____    ______ ____
ROOT
ATOM      1  N   UNL     1       4.101   0.607   1.347  0.00  0.00    -0.294 N 
ATOM      2  C   UNL     1       4.359   1.765   1.986  0.00  0.00    +0.216 C 
ATOM      3  O   UNL     1       4.774   1.750   3.125  0.00  0.00    -0.276 OA
ENDROOT
BRANCH   1   4
ATOM      4  C   UNL     1       3.599   0.625  -0.029  0.00  0.00    +0.182 C 
BRANCH   4   7
ATOM      5  C   UNL     1      -0.016   1.341   0.009  0.00  0.00    +0.041 A 
ATOM      6  C   UNL     1       1.331   1.769  -0.001  0.00  0.00    +0.046 A 
ATOM      7  C   UNL     1       2.092   0.660  -0.014  0.00  0.00    +0.122 A 
ATOM      8  O   UNL     1       1.282  -0.411  -0.012  0.00  0.00    -0.466 OA
ATOM      9  C   UNL     1       0.002  -0.004   0.002  0.00  0.00    +0.195 A 
ENDBRANCH   4   7
ENDBRANCH   1   4
BRANCH   1  10
ATOM     10  C   UNL     1       4.322  -0.671   2.029  0.00  0.00    +0.117 C 
BRANCH  10  11
ATOM     11  C   UNL     1       5.754  -1.145   1.772  0.00  0.00    +0.118 C 
BRANCH  11  12
ATOM     12  C   UNL     1       5.982  -2.459   2.473  0.00  0.00    +0.229 A 
ATOM     13  N   UNL     1       5.776  -3.640   1.963  0.00  0.00    -0.191 NA
ATOM     14  C   UNL     1       6.083  -4.590   2.864  0.00  0.00    +0.202 A 
ATOM     15  N   UNL     1       6.490  -4.008   3.965  0.00  0.00    -0.056 NA
ATOM     16  O   UNL     1       6.436  -2.610   3.724  0.00  0.00    -0.338 OA
BRANCH  14  17
ATOM     17  C   UNL     1       5.977  -6.055   2.647  0.00  0.00    +0.023 A 
ATOM     18  C   UNL     1       5.532  -6.550   1.423  0.00  0.00    +0.013 A 
ATOM     19  C   UNL     1       5.435  -7.912   1.226  0.00  0.00    +0.016 A 
ATOM     20  C   UNL     1       5.779  -8.787   2.243  0.00  0.00    +0.018 A 
ATOM     21  C   UNL     1       6.221  -8.300   3.461  0.00  0.00    +0.016 A 
ATOM     22  C   UNL     1       6.327  -6.939   3.665  0.00  0.00    +0.013 A 
ATOM     23 BR   UNL     1       5.643 -10.652   1.967  0.00  0.00    -0.050 Br
ENDBRANCH  14  17
ENDBRANCH  11  12
ENDBRANCH  10  11
ENDBRANCH   1  10
BRANCH   2  24
ATOM     24  C   UNL     1       4.131   3.079   1.284  0.00  0.00    +0.096 C 
BRANCH  24  25
ATOM     25  C   UNL     1       4.498   4.229   2.224  0.00  0.00    +0.009 C 
BRANCH  25  26
ATOM     26  C   UNL     1       4.267   5.563   1.512  0.00  0.00    -0.001 C 
BRANCH  26  27
ATOM     27  C   UNL     1       4.635   6.713   2.452  0.00  0.00    -0.020 C 
BRANCH  27  28
ATOM     28  C   UNL     1       4.403   8.048   1.740  0.00  0.00    -0.086 C 
BRANCH  28  29
ATOM     29  N   UNL     1       4.756   9.152   2.642  0.00  0.00    +0.378 N 
ATOM     30  H   UNL     1       4.604  10.032   2.172  0.00  0.00    -0.090 HD
ATOM     31  H   UNL     1       4.180   9.108   3.469  0.00  0.00    -0.090 HD
ATOM     32  H   UNL     1       5.728   9.075   2.904  0.00  0.00    -0.090 HD
ENDBRANCH  28  29
ENDBRANCH  27  28
ENDBRANCH  26  27
ENDBRANCH  25  26
ENDBRANCH  24  25
ENDBRANCH   2  24
TORSDOF 12
