REMARK  Name = ZINC20724166
REMARK  10 active torsions:
REMARK  status: ('A' for Active; 'I' for Inactive)
REMARK    1  A    between atoms: C_1  and  O_2
REMARK    2  A    between atoms: O_2  and  C_3
REMARK    3  A    between atoms: C_3  and  C_5
REMARK    4  A    between atoms: C_5  and  C_6
REMARK    5  A    between atoms: C_6  and  C_7
REMARK    6  A    between atoms: C_7  and  C_9
REMARK    7  A    between atoms: C_7  and  N_13
REMARK    8  A    between atoms: C_9  and  O_11
REMARK    9  A    between atoms: O_11  and  C_12
REMARK   10  A    between atoms: C_25  and  C_27
REMARK                            x       y       z     vdW  Elec       q    Type
REMARK                         _______ _______ _______ _____ _____    ______ ____
ROOT
ATOM      1  N   UNL     1      -1.721  -6.633  -0.383  0.00  0.00    -0.286 N 
ATOM      2  C   UNL     1      -1.502  -5.946  -1.522  0.00  0.00    +0.304 C 
ATOM      3  O   UNL     1      -1.800  -4.769  -1.589  0.00  0.00    -0.253 OA
ATOM      4  N   UNL     1      -0.953  -6.564  -2.587  0.00  0.00    -0.273 N 
ATOM      5  C   UNL     1      -0.608  -5.809  -3.800  0.00  0.00    +0.116 C 
ATOM      6  C   UNL     1       0.913  -5.850  -4.002  0.00  0.00    +0.074 C 
ATOM      7  C   UNL     1       1.393  -7.261  -3.783  0.00  0.00    +0.040 A 
ATOM      8  C   UNL     1       0.694  -8.223  -3.143  0.00  0.00    +0.062 A 
ATOM      9  N   UNL     1       1.431  -9.336  -3.136  0.00  0.00    -0.348 N 
ATOM     10  C   UNL     1       2.562  -9.104  -3.751  0.00  0.00    +0.171 A 
ATOM     11  N   UNL     1       2.574  -7.818  -4.170  0.00  0.00    -0.349 N 
ATOM     12  H   UNL     1       3.289  -7.376  -4.654  0.00  0.00    +0.166 HD
ATOM     13  C   UNL     1      -0.678  -8.012  -2.560  0.00  0.00    +0.159 C 
ATOM     14  H   UNL     1      -1.561  -7.589  -0.355  0.00  0.00    +0.151 HD
ATOM     15  H   UNL     1       1.169 -10.181  -2.739  0.00  0.00    +0.167 HD
ENDROOT
BRANCH  13  16
ATOM     16  C   UNL     1      -1.701  -8.743  -3.391  0.00  0.00    +0.017 A 
ATOM     17  C   UNL     1      -1.357  -9.234  -4.637  0.00  0.00    +0.009 A 
ATOM     18  C   UNL     1      -2.293  -9.905  -5.400  0.00  0.00    +0.003 A 
ATOM     19  C   UNL     1      -3.577 -10.086  -4.920  0.00  0.00    +0.041 A 
ATOM     20  C   UNL     1      -3.925  -9.596  -3.674  0.00  0.00    +0.159 A 
ATOM     21  C   UNL     1      -2.984  -8.927  -2.905  0.00  0.00    +0.164 A 
ATOM     22  F   UNL     1      -3.320  -8.452  -1.686  0.00  0.00    -0.202 F 
ATOM     23  F   UNL     1      -5.180  -9.772  -3.204  0.00  0.00    -0.202 F 
ENDBRANCH  13  16
BRANCH   1  24
ATOM     24  C   UNL     1      -2.200  -5.935   0.812  0.00  0.00    +0.184 C 
BRANCH  24  25
ATOM     25  C   UNL     1      -1.048  -5.222   1.474  0.00  0.00    +0.327 C 
ATOM     26  O   UNL     1       0.059  -5.291   0.995  0.00  0.00    -0.249 OA
BRANCH  25  27
ATOM     27  O   UNL     1      -1.252  -4.512   2.594  0.00  0.00    -0.467 OA
ATOM     28  C   UNL     1      -0.116  -3.863   3.167  0.00  0.00    +0.280 C 
ENDBRANCH  25  27
ENDBRANCH  24  25
BRANCH  24  29
ATOM     29  C   UNL     1      -2.801  -6.948   1.788  0.00  0.00    +0.045 C 
BRANCH  29  30
ATOM     30  C   UNL     1      -4.052  -7.573   1.169  0.00  0.00    +0.123 C 
BRANCH  30  31
ATOM     31  C   UNL     1      -4.592  -8.636   2.090  0.00  0.00    +0.307 C 
ATOM     32  O   UNL     1      -4.032  -8.871   3.135  0.00  0.00    -0.251 OA
BRANCH  31  34
ATOM     33  C   UNL     1      -6.149 -10.317   2.671  0.00  0.00    +0.280 C 
ATOM     34  O   UNL     1      -5.693  -9.324   1.750  0.00  0.00    -0.468 OA
ENDBRANCH  31  34
ENDBRANCH  30  31
ENDBRANCH  29  30
ENDBRANCH  24  29
ENDBRANCH   1  24
TORSDOF 8
