REMARK  Name = ZINC64788567
REMARK  5 active torsions:
REMARK  status: ('A' for Active; 'I' for Inactive)
REMARK    1  A    between atoms: C_1  and  C_2
REMARK    2  A    between atoms: C_2  and  O_3
REMARK    3  A    between atoms: O_3  and  C_4
REMARK    4  A    between atoms: C_9  and  C_10
REMARK    5  A    between atoms: N_21  and  C_24
REMARK                            x       y       z     vdW  Elec       q    Type
REMARK                         _______ _______ _______ _____ _____    ______ ____
ROOT
ATOM      1  C   UNL     1       2.093  -1.603  -3.437  0.00  0.00    +0.112 C 
ATOM      2  C   UNL     1       3.471  -1.024  -3.034  0.00  0.00    +0.078 C 
ATOM      3  C   UNL     1       4.209  -0.996  -4.360  0.00  0.00    +0.038 C 
ATOM      4  N   UNL     1       3.524  -1.760  -5.232  0.00  0.00    -0.283 N 
ATOM      5  N   UNL     1       2.424  -2.344  -4.676  0.00  0.00    -0.235 NA
ATOM      6  C   UNL     1       5.377  -0.306  -4.627  0.00  0.00    +0.118 C 
ATOM      7  C   UNL     1       6.048   0.499  -3.591  0.00  0.00    +0.258 C 
ATOM      8  N   UNL     1       7.186   1.144  -3.922  0.00  0.00    -0.235 N 
ATOM      9  C   UNL     1       7.702   1.065  -5.156  0.00  0.00    +0.320 C 
ATOM     10  O   UNL     1       8.729   1.671  -5.391  0.00  0.00    -0.251 OA
ATOM     11  N   UNL     1       7.146   0.352  -6.146  0.00  0.00    -0.190 N 
ATOM     12  C   UNL     1       6.010  -0.350  -5.957  0.00  0.00    +0.265 C 
ATOM     13  O   UNL     1       5.517  -0.997  -6.862  0.00  0.00    -0.269 OA
ATOM     14  O   UNL     1       5.589   0.580  -2.467  0.00  0.00    -0.270 OA
ATOM     15  H   UNL     1       2.593  -3.320  -4.480  0.00  0.00    +0.145 HD
ATOM     16  H   UNL     1       7.640   1.679  -3.252  0.00  0.00    +0.159 HD
ATOM     17  H   UNL     1       3.785  -1.882  -6.158  0.00  0.00    +0.166 HD
ENDROOT
BRANCH  11  18
ATOM     18  C   UNL     1       7.763   0.330  -7.405  0.00  0.00    +0.046 A 
ATOM     19  C   UNL     1       7.156   0.953  -8.487  0.00  0.00    +0.025 A 
ATOM     20  C   UNL     1       7.766   0.931  -9.726  0.00  0.00    +0.022 A 
ATOM     21  C   UNL     1       8.981   0.289  -9.889  0.00  0.00    +0.041 A 
ATOM     22  C   UNL     1       9.588  -0.332  -8.812  0.00  0.00    +0.022 A 
ATOM     23  C   UNL     1       8.985  -0.308  -7.570  0.00  0.00    +0.025 A 
ATOM     24 CL   UNL     1       9.745   0.263 -11.448  0.00  0.00    -0.084 Cl
ENDBRANCH  11  18
BRANCH   1  30
ATOM     25  C   UNL     1       0.697  -2.062  -1.406  0.00  0.00    +0.125 A 
ATOM     26  C   UNL     1       0.211  -2.923  -0.433  0.00  0.00    +0.046 A 
ATOM     27  C   UNL     1       0.601  -4.248  -0.428  0.00  0.00    +0.004 A 
ATOM     28  C   UNL     1       1.474  -4.716  -1.393  0.00  0.00    +0.001 A 
ATOM     29  C   UNL     1       1.960  -3.860  -2.364  0.00  0.00    +0.009 A 
ATOM     30  C   UNL     1       1.569  -2.535  -2.375  0.00  0.00    +0.013 A 
BRANCH  25  31
ATOM     31  O   UNL     1       0.314  -0.757  -1.412  0.00  0.00    -0.492 OA
BRANCH  31  33
ATOM     32  C   UNL     1      -0.899   1.148  -0.553  0.00  0.00    +0.048 C 
ATOM     33  C   UNL     1      -0.586  -0.340  -0.384  0.00  0.00    +0.225 C 
ENDBRANCH  31  33
ENDBRANCH  25  31
ENDBRANCH   1  30
TORSDOF 4
