REMARK  Name = ZINC35890573
REMARK  5 active torsions:
REMARK  status: ('A' for Active; 'I' for Inactive)
REMARK    1  A    between atoms: C_1  and  C_2
REMARK    2  A    between atoms: N_8  and  C_9
REMARK    3  A    between atoms: C_9  and  C_10
REMARK    4  A    between atoms: C_28  and  C_31
REMARK    5  A    between atoms: C_36  and  N_37
REMARK                            x       y       z     vdW  Elec       q    Type
REMARK                         _______ _______ _______ _____ _____    ______ ____
ROOT
ATOM      1  C   UNL     1       2.295  -0.519  -1.948  0.00  0.00    -0.012 C 
ATOM      2  C   UNL     1       1.988  -2.014  -2.061  0.00  0.00    -0.054 C 
ATOM      3  C   UNL     1       0.666  -2.319  -1.347  0.00  0.00    +0.092 C 
ATOM      4  N   UNL     1       0.458  -3.775  -1.354  0.00  0.00    -0.304 N 
ATOM      5  C   UNL     1       1.559  -4.636  -0.895  0.00  0.00    +0.089 C 
ATOM      6  C   UNL     1       2.838  -4.221  -1.630  0.00  0.00    -0.059 C 
ATOM      7  N   UNL     1       3.070  -2.784  -1.435  0.00  0.00    +0.386 N 
ATOM      8  C   UNL     1      -0.732  -4.316  -1.778  0.00  0.00    +0.206 A 
ATOM      9  N   UNL     1      -1.011  -4.295  -3.055  0.00  0.00    -0.215 NA
ATOM     10  C   UNL     1      -2.164  -4.809  -3.550  0.00  0.00    +0.078 A 
ATOM     11  C   UNL     1      -2.446  -4.778  -4.918  0.00  0.00    +0.028 A 
ATOM     12  C   UNL     1      -3.626  -5.309  -5.386  0.00  0.00    +0.002 A 
ATOM     13  C   UNL     1      -4.544  -5.878  -4.514  0.00  0.00    +0.001 A 
ATOM     14  C   UNL     1      -4.290  -5.921  -3.160  0.00  0.00    +0.014 A 
ATOM     15  C   UNL     1      -3.102  -5.389  -2.665  0.00  0.00    +0.045 A 
ATOM     16  C   UNL     1      -2.776  -5.406  -1.235  0.00  0.00    +0.173 A 
ATOM     17  N   UNL     1      -1.573  -4.860  -0.846  0.00  0.00    -0.246 N 
ATOM     18  C   UNL     1      -1.524  -5.014   0.514  0.00  0.00    +0.173 A 
ATOM     19  N   UNL     1      -2.636  -5.619   0.877  0.00  0.00    -0.128 NA
ATOM     20  N   UNL     1      -3.376  -5.842  -0.152  0.00  0.00    -0.128 NA
ATOM     21  H   UNL     1       3.099  -2.580  -0.447  0.00  0.00    -0.081 HD
ENDROOT
BRANCH  18  22
ATOM     22  C   UNL     1      -0.429  -4.581   1.407  0.00  0.00    +0.050 A 
ATOM     23  C   UNL     1       0.358  -5.530   2.063  0.00  0.00    +0.014 A 
ATOM     24  C   UNL     1       1.378  -5.120   2.894  0.00  0.00    +0.001 A 
ATOM     25  C   UNL     1       1.623  -3.771   3.080  0.00  0.00    +0.002 A 
ATOM     26  C   UNL     1       0.847  -2.825   2.434  0.00  0.00    +0.033 A 
ATOM     27  C   UNL     1      -0.173  -3.222   1.594  0.00  0.00    +0.137 A 
BRANCH  27  28
ATOM     28  N   UNL     1      -0.997  -2.208   0.898  0.00  0.00    +0.057 N 
ATOM     29  O   UNL     1      -0.851  -1.035   1.147  0.00  0.00    -0.126 OA
ATOM     30  O   UNL     1      -1.818  -2.555   0.080  0.00  0.00    -0.126 OA
ENDBRANCH  27  28
ENDBRANCH  18  22
BRANCH   7  31
ATOM     31  C   UNL     1       4.352  -2.409  -2.047  0.00  0.00    -0.040 C 
BRANCH  31  32
ATOM     32  C   UNL     1       5.476  -3.107  -1.324  0.00  0.00    -0.026 A 
ATOM     33  C   UNL     1       6.213  -2.427  -0.373  0.00  0.00    +0.005 A 
ATOM     34  C   UNL     1       7.244  -3.065   0.291  0.00  0.00    +0.003 A 
ATOM     35  C   UNL     1       7.540  -4.385   0.004  0.00  0.00    +0.041 A 
ATOM     36  C   UNL     1       6.804  -5.068  -0.947  0.00  0.00    +0.159 A 
ATOM     37  C   UNL     1       5.766  -4.429  -1.609  0.00  0.00    +0.160 A 
ATOM     38  F   UNL     1       5.042  -5.096  -2.535  0.00  0.00    -0.202 F 
ATOM     39  F   UNL     1       7.093  -6.358  -1.228  0.00  0.00    -0.202 F 
ENDBRANCH  31  32
ENDBRANCH   7  31
TORSDOF 4
