REMARK  Name = ZINC23407417
REMARK  6 active torsions:
REMARK  status: ('A' for Active; 'I' for Inactive)
REMARK    1  A    between atoms: C_1  and  C_2
REMARK    2  A    between atoms: C_3  and  C_26
REMARK    3  A    between atoms: C_8  and  C_10
REMARK    4  A    between atoms: C_10  and  C_12
REMARK    5  A    between atoms: C_10  and  S_13
REMARK    6  A    between atoms: S_13  and  C_14
REMARK                            x       y       z     vdW  Elec       q    Type
REMARK                         _______ _______ _______ _____ _____    ______ ____
ROOT
ATOM      1  C   UNL     1       1.280   1.980   0.001  0.00  0.00    +0.137 C 
ATOM      2  C   UNL     1       1.668   2.341   1.436  0.00  0.00    +0.029 C 
ENDROOT
BRANCH   1  10
ATOM      3  C   UNL     1      -3.987  -2.160   0.009  0.00  0.00    +0.066 C 
ATOM      4  C   UNL     1      -3.785  -0.667   0.016  0.00  0.00    +0.050 A 
ATOM      5  C   UNL     1      -4.846   0.177   0.026  0.00  0.00    +0.011 A 
ATOM      6  S   UNL     1      -4.013   1.758   0.031  0.00  0.00    -0.057 S 
ATOM      7  C   UNL     1      -2.385   1.155   0.020  0.00  0.00    +0.165 A 
ATOM      8  N   UNL     1      -2.572  -0.150   0.008  0.00  0.00    -0.230 NA
ATOM      9  N   UNL     1      -1.191   1.867   0.018  0.00  0.00    -0.264 N 
ATOM     10  C   UNL     1      -0.014   1.209   0.009  0.00  0.00    +0.232 C 
ATOM     11  O   UNL     1       0.002  -0.004   0.002  0.00  0.00    -0.274 OA
ATOM     12  C   UNL     1      -6.321  -0.134   0.032  0.00  0.00    +0.053 C 
ATOM     13  H   UNL     1      -1.206   2.966   0.024  0.00  0.00    +0.157 HD
ENDBRANCH   1  10
BRANCH   1  14
ATOM     14  S   UNL     1       2.586   0.962  -0.740  0.00  0.00    -0.073 S 
BRANCH  14  15
ATOM     15  C   UNL     1       3.978   2.039  -0.813  0.00  0.00    +0.198 A 
ATOM     16  N   UNL     1       4.001   3.283  -0.407  0.00  0.00    -0.121 NA
ATOM     17  N   UNL     1       5.288   3.790  -0.637  0.00  0.00    -0.121 NA
ATOM     18  C   UNL     1       5.994   2.838  -1.171  0.00  0.00    +0.202 A 
ATOM     19  N   UNL     1       5.231   1.708  -1.304  0.00  0.00    -0.264 N 
ATOM     20  C   UNL     1       5.829   0.572  -1.872  0.00  0.00    +0.065 A 
ATOM     21  C   UNL     1       5.215  -0.671  -2.095  0.00  0.00    +0.027 A 
ATOM     22  C   UNL     1       5.916  -1.711  -2.657  0.00  0.00    +0.002 A 
ATOM     23  C   UNL     1       7.245  -1.568  -3.020  0.00  0.00    +0.001 A 
ATOM     24  C   UNL     1       7.874  -0.353  -2.811  0.00  0.00    +0.017 A 
ATOM     25  C   UNL     1       7.170   0.687  -2.249  0.00  0.00    +0.040 A 
ATOM     26  S   UNL     1       7.578   2.361  -1.819  0.00  0.00    -0.048 S 
ENDBRANCH  14  15
ENDBRANCH   1  14
TORSDOF 3
