REMARK  Name = ZINC09523119
REMARK  6 active torsions:
REMARK  status: ('A' for Active; 'I' for Inactive)
REMARK    1  A    between atoms: C_1  and  C_2
REMARK    2  A    between atoms: N_11  and  S_12
REMARK    3  A    between atoms: S_12  and  C_15
REMARK    4  A    between atoms: C_15  and  C_16
REMARK    5  A    between atoms: C_16  and  N_17
REMARK    6  A    between atoms: C_18  and  C_20
REMARK                            x       y       z     vdW  Elec       q    Type
REMARK                         _______ _______ _______ _____ _____    ______ ____
ROOT
ATOM      1  C   UNL     1       1.448   2.680   1.591  0.00  0.00    +0.207 C 
ENDROOT
BRANCH   1   2
ATOM      2  S   UNL     1       1.412   1.813  -0.002  0.00  0.00    +0.046 S 
ATOM      3  O   UNL     1       2.426   0.819  -0.041  0.00  0.00    -0.155 OA
ATOM      4  O   UNL     1       1.271   2.747  -1.063  0.00  0.00    -0.155 OA
BRANCH   2  15
ATOM      5  C   UNL     1      -5.237   0.072   0.028  0.00  0.00    +0.046 C 
ATOM      6  C   UNL     1      -4.889   1.539   0.035  0.00  0.00    -0.024 A 
ATOM      7  C   UNL     1      -5.892   2.473   0.045  0.00  0.00    +0.005 A 
ATOM      8  C   UNL     1      -5.616   3.832   0.052  0.00  0.00    +0.001 A 
ATOM      9  C   UNL     1      -4.299   4.256   0.047  0.00  0.00    +0.017 A 
ATOM     10  C   UNL     1      -3.289   3.328   0.037  0.00  0.00    +0.041 A 
ATOM     11  C   UNL     1      -3.533   1.935   0.030  0.00  0.00    +0.083 A 
ATOM     12  N   UNL     1      -2.434   1.149   0.020  0.00  0.00    -0.223 NA
ATOM     13  C   UNL     1      -1.215   1.639   0.017  0.00  0.00    +0.178 A 
ATOM     14  S   UNL     1      -1.514   3.401   0.036  0.00  0.00    -0.051 S 
ATOM     15  N   UNL     1      -0.011   0.966   0.007  0.00  0.00    -0.198 N 
ATOM     16  H   UNL     1       0.002  -0.004   0.002  0.00  0.00    +0.175 HD
ENDBRANCH   2  15
ENDBRANCH   1   2
BRANCH   1  17
ATOM     17  C   UNL     1       2.733   3.504   1.694  0.00  0.00    +0.128 C 
BRANCH  17  18
ATOM     18  N   UNL     1       2.763   4.204   2.981  0.00  0.00    -0.313 N 
ATOM     19  C   UNL     1       3.808   4.995   3.294  0.00  0.00    +0.219 C 
ATOM     20  O   UNL     1       4.723   5.129   2.510  0.00  0.00    -0.275 OA
ATOM     21  H   UNL     1       2.030   4.097   3.608  0.00  0.00    +0.149 HD
BRANCH  19  22
ATOM     22  C   UNL     1       3.838   5.715   4.617  0.00  0.00    +0.048 C 
ATOM     23  C   UNL     1       2.627   6.644   4.721  0.00  0.00    +0.019 C 
ATOM     24  C   UNL     1       2.658   7.375   6.064  0.00  0.00    -0.009 C 
ATOM     25  C   UNL     1       3.942   8.199   6.167  0.00  0.00    +0.007 C 
ATOM     26  C   UNL     1       5.154   7.271   6.064  0.00  0.00    -0.009 C 
ATOM     27  C   UNL     1       5.123   6.540   4.720  0.00  0.00    +0.019 C 
ATOM     28  C   UNL     1       5.111   6.248   7.202  0.00  0.00    +0.007 C 
ATOM     29  C   UNL     1       3.826   5.424   7.099  0.00  0.00    -0.009 C 
ATOM     30  C   UNL     1       2.615   6.353   7.202  0.00  0.00    +0.007 C 
ATOM     31  C   UNL     1       3.795   4.693   5.755  0.00  0.00    +0.019 C 
ENDBRANCH  19  22
ENDBRANCH  17  18
ENDBRANCH   1  17
TORSDOF 5
