REMARK  Name = ZINC06058531
REMARK  3 active torsions:
REMARK  status: ('A' for Active; 'I' for Inactive)
REMARK    1  A    between atoms: C_6  and  C_7
REMARK    2  A    between atoms: C_10  and  C_12
REMARK    3  A    between atoms: C_10  and  O_16
REMARK                            x       y       z     vdW  Elec       q    Type
REMARK                         _______ _______ _______ _____ _____    ______ ____
ROOT
ATOM      1  C   UNL     1      -1.263  -0.761   0.011  0.00  0.00    +0.071 C 
ATOM      2  N   UNL     1      -2.442  -0.240   0.019  0.00  0.00    -0.178 NA
ATOM      3  N   UNL     1      -3.476  -1.174   0.026  0.00  0.00    -0.149 N 
ATOM      4  C   UNL     1      -2.897  -2.526   0.021  0.00  0.00    +0.257 C 
ATOM      5  C   UNL     1      -1.377  -2.269   0.004  0.00  0.00    +0.124 C 
ATOM      6  C   UNL     1      -4.822  -0.878   0.036  0.00  0.00    +0.260 C 
ATOM      7  N   UNL     1      -5.665  -1.860   0.048  0.00  0.00    -0.135 NA
ATOM      8  N   UNL     1      -7.037  -1.769  -0.056  0.00  0.00    -0.265 N 
ATOM      9  C   UNL     1      -7.809  -0.923   0.547  0.00  0.00    +0.094 C 
ATOM     10  N   UNL     1      -9.169  -0.968   0.328  0.00  0.00    -0.347 N 
ATOM     11  C   UNL     1      -7.240   0.113   1.488  0.00  0.00    +0.146 C 
ATOM     12  C   UNL     1      -6.262   0.952   0.702  0.00  0.00    +0.143 A 
ATOM     13  N   UNL     1      -5.201   0.451   0.040  0.00  0.00    -0.183 N 
ATOM     14  N   UNL     1      -4.587   1.535  -0.595  0.00  0.00    -0.151 NA
ATOM     15  C   UNL     1      -5.265   2.603  -0.253  0.00  0.00    +0.245 A 
ATOM     16  N   UNL     1      -6.274   2.244   0.532  0.00  0.00    -0.218 NA
ATOM     17  H   UNL     1      -9.542  -1.631  -0.275  0.00  0.00    +0.143 HD
ATOM     18  H   UNL     1      -9.754  -0.338   0.776  0.00  0.00    +0.143 HD
ATOM     19  H   UNL     1      -7.470  -2.407  -0.645  0.00  0.00    +0.190 HD
ENDROOT
BRANCH   1  25
ATOM     20  C   UNL     1      -0.017   1.393   0.010  0.00  0.00    +0.012 A 
ATOM     21  C   UNL     1       1.169   2.096   0.002  0.00  0.00    +0.039 A 
ATOM     22  C   UNL     1       2.379   1.419  -0.013  0.00  0.00    +0.123 A 
ATOM     23  C   UNL     1       2.404   0.033  -0.022  0.00  0.00    +0.039 A 
ATOM     24  C   UNL     1       1.225  -0.680  -0.014  0.00  0.00    +0.012 A 
ATOM     25  C   UNL     1       0.002  -0.004   0.002  0.00  0.00    -0.002 A 
ATOM     26  F   UNL     1       3.538   2.113  -0.021  0.00  0.00    -0.205 F 
ENDBRANCH   1  25
BRANCH   4  27
ATOM     27  C   UNL     1      -3.304  -3.292   1.282  0.00  0.00    +0.438 C 
ATOM     28  F   UNL     1      -4.697  -3.425   1.317  0.00  0.00    -0.166 F 
ATOM     29  F   UNL     1      -2.715  -4.560   1.268  0.00  0.00    -0.166 F 
ATOM     30  F   UNL     1      -2.874  -2.590   2.413  0.00  0.00    -0.166 F 
ENDBRANCH   4  27
BRANCH   4  31
ATOM     31  O   UNL     1      -3.295  -3.239  -1.152  0.00  0.00    -0.363 OA
ATOM     32  H   UNL     1      -4.250  -3.369  -1.229  0.00  0.00    +0.212 HD
ENDBRANCH   4  31
TORSDOF 3
