REMARK  Name = ZINC44873973
REMARK  7 active torsions:
REMARK  status: ('A' for Active; 'I' for Inactive)
REMARK    1  A    between atoms: C_1  and  C_2
REMARK    2  A    between atoms: C_7  and  N_10
REMARK    3  A    between atoms: N_10  and  C_11
REMARK    4  A    between atoms: C_12  and  C_14
REMARK    5  A    between atoms: C_14  and  C_16
REMARK    6  A    between atoms: C_14  and  C_17
REMARK    7  A    between atoms: N_18  and  O_19
REMARK                            x       y       z     vdW  Elec       q    Type
REMARK                         _______ _______ _______ _____ _____    ______ ____
ROOT
ATOM      1  N   UNL     1       1.448  -2.513   0.028  0.00  0.00    -0.301 N 
ATOM      2  C   UNL     1       0.871  -2.252  -1.293  0.00  0.00    +0.132 C 
ATOM      3  C   UNL     1       2.619  -3.173   0.133  0.00  0.00    +0.226 C 
ATOM      4  O   UNL     1       3.097  -3.389   1.227  0.00  0.00    -0.275 OA
ENDROOT
BRANCH   1  10
ATOM      5  C   UNL     1       2.942   1.031   1.945  0.00  0.00    +0.007 C 
ATOM      6  C   UNL     1       2.029   0.091   1.156  0.00  0.00    -0.012 C 
ATOM      7  C   UNL     1       0.752   0.834   0.758  0.00  0.00    +0.003 C 
ATOM      8  C   UNL     1      -0.161  -0.106  -0.031  0.00  0.00    +0.002 C 
ATOM      9  C   UNL     1      -0.523  -1.313   0.837  0.00  0.00    +0.022 C 
ATOM     10  C   UNL     1       0.754  -2.057   1.234  0.00  0.00    +0.076 C 
ATOM     11  C   UNL     1       1.667  -1.116   2.023  0.00  0.00    +0.025 C 
ENDBRANCH   1  10
BRANCH   3  12
ATOM     12  C   UNL     1       3.334  -3.643  -1.107  0.00  0.00    +0.138 C 
ATOM     13  C   UNL     1       3.667  -2.439  -1.991  0.00  0.00    +0.025 C 
BRANCH  12  14
ATOM     14  C   UNL     1       4.608  -4.347  -0.717  0.00  0.00    +0.143 C 
ATOM     15  N   UNL     1       5.724  -3.697  -0.693  0.00  0.00    -0.076 NA
ATOM     16  N   UNL     1       4.582  -5.684  -0.386  0.00  0.00    -0.343 N 
ATOM     17  H   UNL     1       3.744  -6.172  -0.404  0.00  0.00    +0.144 HD
ATOM     18  H   UNL     1       5.402  -6.137  -0.135  0.00  0.00    +0.144 HD
BRANCH  15  19
ATOM     19  O   UNL     1       6.921  -4.359  -0.326  0.00  0.00    -0.408 OA
ATOM     20  H   UNL     1       7.703  -3.791  -0.338  0.00  0.00    +0.328 HD
ENDBRANCH  15  19
ENDBRANCH  12  14
ENDBRANCH   3  12
TORSDOF 4
