REMARK  Name = ZINC65407726
REMARK  4 active torsions:
REMARK  status: ('A' for Active; 'I' for Inactive)
REMARK    1  A    between atoms: C_1  and  C_2
REMARK    2  A    between atoms: C_2  and  C_3
REMARK    3  A    between atoms: C_6  and  C_8
REMARK    4  A    between atoms: C_21  and  C_24
REMARK                            x       y       z     vdW  Elec       q    Type
REMARK                         _______ _______ _______ _____ _____    ______ ____
ROOT
ATOM      1  C   UNL     1      -4.461  -1.656   1.674  0.00  0.00    +0.112 C 
ATOM      2  C   UNL     1      -4.856  -0.464   2.526  0.00  0.00    +0.113 C 
ATOM      3  C   UNL     1      -6.036  -0.776   3.389  0.00  0.00    +0.214 C 
ATOM      4  O   UNL     1      -7.101  -0.258   3.127  0.00  0.00    -0.276 OA
ATOM      5  N   UNL     1      -5.968  -1.596   4.433  0.00  0.00    -0.310 N 
ATOM      6  C   UNL     1      -4.683  -2.124   4.881  0.00  0.00    +0.159 C 
ATOM      7  C   UNL     1      -4.065  -3.011   3.835  0.00  0.00    +0.055 A 
ATOM      8  C   UNL     1      -3.990  -2.816   2.511  0.00  0.00    +0.056 A 
ATOM      9  N   UNL     1      -3.365  -3.919   1.976  0.00  0.00    -0.304 N 
ATOM     10  C   UNL     1      -3.048  -4.259   0.694  0.00  0.00    +0.093 A 
ATOM     11  C   UNL     1      -2.414  -5.422   0.430  0.00  0.00    +0.018 A 
ATOM     12  C   UNL     1      -2.074  -6.296   1.476  0.00  0.00    +0.008 A 
ATOM     13  C   UNL     1      -2.387  -5.968   2.759  0.00  0.00    -0.009 A 
ATOM     14  C   UNL     1      -3.051  -4.751   3.016  0.00  0.00    +0.119 A 
ATOM     15  N   UNL     1      -3.478  -4.186   4.127  0.00  0.00    -0.342 N 
ATOM     16  C   UNL     1      -2.029  -6.895   3.892  0.00  0.00    +0.047 C 
ATOM     17  H   UNL     1      -6.780  -1.846   4.901  0.00  0.00    +0.149 HD
ATOM     18  H   UNL     1      -3.383  -4.559   5.017  0.00  0.00    +0.167 HD
ENDROOT
BRANCH   1  22
ATOM     19  C   UNL     1      -1.412  -0.526   0.013  0.00  0.00    +0.105 A 
ATOM     20  C   UNL     1      -2.158  -0.797  -1.073  0.00  0.00    +0.045 A 
ATOM     21  C   UNL     1      -3.409  -1.260  -0.604  0.00  0.00    +0.045 A 
ATOM     22  C   UNL     1      -3.352  -1.244   0.740  0.00  0.00    +0.115 A 
ATOM     23  O   UNL     1      -2.138  -0.804   1.108  0.00  0.00    -0.464 OA
BRANCH  19  25
ATOM     24  C   UNL     1      -0.019   1.526   0.010  0.00  0.00    +0.012 C 
ATOM     25  C   UNL     1       0.002  -0.004   0.002  0.00  0.00    +0.071 C 
ENDBRANCH  19  25
ENDBRANCH   1  22
TORSDOF 2
