REMARK  Name = ZINC39991533
REMARK  11 active torsions:
REMARK  status: ('A' for Active; 'I' for Inactive)
REMARK    1  A    between atoms: C_1  and  C_2
REMARK    2  A    between atoms: C_3  and  C_14
REMARK    3  A    between atoms: C_5  and  S_7
REMARK    4  A    between atoms: S_7  and  C_8
REMARK    5  A    between atoms: C_14  and  C_16
REMARK    6  A    between atoms: N_20  and  C_30
REMARK    7  A    between atoms: C_21  and  C_23
REMARK    8  A    between atoms: C_30  and  C_31
REMARK    9  A    between atoms: C_31  and  C_32
REMARK   10  A    between atoms: C_32  and  O_33
REMARK   11  A    between atoms: O_33  and  C_34
REMARK                            x       y       z     vdW  Elec       q    Type
REMARK                         _______ _______ _______ _____ _____    ______ ____
ROOT
ATOM      1  C   UNL     1      -0.013  -1.285  -3.923  0.00  0.00    +0.077 C 
ATOM      2  C   UNL     1      -0.036  -1.067  -5.257  0.00  0.00    +0.249 C 
ATOM      3  C   UNL     1       0.296  -2.320  -5.961  0.00  0.00    +0.288 C 
ATOM      4  O   UNL     1       0.357  -2.447  -7.168  0.00  0.00    -0.266 OA
ATOM      5  N   UNL     1       0.523  -3.302  -5.069  0.00  0.00    -0.283 N 
ATOM      6  C   UNL     1       0.356  -2.737  -3.725  0.00  0.00    +0.145 C 
ATOM      7  O   UNL     1      -0.321   0.116  -5.853  0.00  0.00    -0.282 OA
ENDROOT
BRANCH   6   8
ATOM      8  C   UNL     1      -0.749  -3.458  -2.997  0.00  0.00    -0.022 A 
ATOM      9  C   UNL     1      -1.920  -3.776  -3.659  0.00  0.00    +0.007 A 
ATOM     10  C   UNL     1      -2.934  -4.437  -2.992  0.00  0.00    +0.020 A 
ATOM     11  C   UNL     1      -2.777  -4.781  -1.661  0.00  0.00    +0.041 A 
ATOM     12  C   UNL     1      -1.605  -4.462  -0.999  0.00  0.00    +0.020 A 
ATOM     13  C   UNL     1      -0.589  -3.806  -1.669  0.00  0.00    +0.007 A 
ATOM     14 CL   UNL     1      -4.050  -5.611  -0.822  0.00  0.00    -0.084 Cl
ENDBRANCH   6   8
BRANCH   1  15
ATOM     15  C   UNL     1      -0.286  -0.300  -2.869  0.00  0.00    +0.203 C 
ATOM     16  O   UNL     1      -1.398   0.189  -2.766  0.00  0.00    -0.286 OA
BRANCH  15  19
ATOM     17  C   UNL     1      -0.519   1.804  -0.605  0.00  0.00    +0.067 C 
ATOM     18  C   UNL     1       0.720   1.013  -0.935  0.00  0.00    +0.058 A 
ATOM     19  C   UNL     1       0.744   0.083  -1.972  0.00  0.00    +0.083 A 
ATOM     20  S   UNL     1       2.430  -0.494  -1.857  0.00  0.00    -0.057 S 
ATOM     21  C   UNL     1       2.916   0.462  -0.560  0.00  0.00    +0.140 A 
ATOM     22  N   UNL     1       1.833   1.165  -0.268  0.00  0.00    -0.237 NA
BRANCH  21  23
ATOM     23  S   UNL     1       4.495   0.518   0.220  0.00  0.00    -0.063 S 
BRANCH  23  24
ATOM     24  C   UNL     1       4.265   1.630   1.567  0.00  0.00    +0.015 A 
ATOM     25  C   UNL     1       3.954   1.140   2.830  0.00  0.00    +0.015 A 
ATOM     26  C   UNL     1       3.775   2.015   3.883  0.00  0.00    +0.001 A 
ATOM     27  C   UNL     1       3.905   3.377   3.683  0.00  0.00    +0.000 A 
ATOM     28  C   UNL     1       4.215   3.868   2.428  0.00  0.00    +0.001 A 
ATOM     29  C   UNL     1       4.400   2.999   1.371  0.00  0.00    +0.015 A 
ENDBRANCH  23  24
ENDBRANCH  21  23
ENDBRANCH  15  19
ENDBRANCH   1  15
BRANCH   5  30
ATOM     30  C   UNL     1       0.880  -4.688  -5.384  0.00  0.00    +0.111 C 
BRANCH  30  31
ATOM     31  C   UNL     1       2.402  -4.818  -5.461  0.00  0.00    +0.047 C 
BRANCH  31  32
ATOM     32  C   UNL     1       2.775  -6.265  -5.790  0.00  0.00    +0.161 C 
BRANCH  32  33
ATOM     33  O   UNL     1       4.197  -6.386  -5.862  0.00  0.00    -0.383 OA
ATOM     34  C   UNL     1       4.653  -7.706  -6.165  0.00  0.00    +0.193 C 
ENDBRANCH  32  33
ENDBRANCH  31  32
ENDBRANCH  30  31
ENDBRANCH   5  30
TORSDOF 9
