REMARK  Name = ZINC40985556
REMARK  10 active torsions:
REMARK  status: ('A' for Active; 'I' for Inactive)
REMARK    1  A    between atoms: C_1  and  C_2
REMARK    2  A    between atoms: C_2  and  C_3
REMARK    3  A    between atoms: C_6  and  C_9
REMARK    4  A    between atoms: C_9  and  C_11
REMARK    5  A    between atoms: C_9  and  N_25
REMARK    6  A    between atoms: C_11  and  N_12
REMARK    7  A    between atoms: C_13  and  C_15
REMARK    8  A    between atoms: C_18  and  S_22
REMARK    9  A    between atoms: S_22  and  C_23
REMARK   10  A    between atoms: C_23  and  C_24
REMARK                            x       y       z     vdW  Elec       q    Type
REMARK                         _______ _______ _______ _____ _____    ______ ____
ROOT
ATOM      1  C   UNL     1       2.715  -1.882  -4.741  0.00  0.00    -0.020 C 
ENDROOT
BRANCH   1   5
ATOM      2  C   UNL     1       1.281  -0.717  -0.889  0.00  0.00    -0.048 A 
ATOM      3  C   UNL     1       0.403  -0.818  -1.952  0.00  0.00    +0.004 A 
ATOM      4  C   UNL     1       0.867  -1.195  -3.199  0.00  0.00    +0.002 A 
ATOM      5  C   UNL     1       2.209  -1.470  -3.382  0.00  0.00    -0.059 A 
ATOM      6  C   UNL     1       3.087  -1.368  -2.320  0.00  0.00    +0.002 A 
ATOM      7  C   UNL     1       2.624  -0.987  -1.074  0.00  0.00    +0.004 A 
BRANCH   2   9
ATOM      8  C   UNL     1       0.837   1.217   0.597  0.00  0.00    +0.009 C 
ATOM      9  C   UNL     1       0.775  -0.306   0.469  0.00  0.00    +0.032 C 
ENDBRANCH   2   9
ENDBRANCH   1   5
BRANCH   1  10
ATOM     10  N   UNL     1       4.010  -1.238  -4.997  0.00  0.00    +0.385 N 
ATOM     11  C   UNL     1       4.486  -1.571  -6.364  0.00  0.00    -0.078 C 
ATOM     12  C   UNL     1       5.488  -0.432  -6.678  0.00  0.00    -0.020 C 
ATOM     13  C   UNL     1       4.820   0.804  -6.033  0.00  0.00    -0.020 C 
ATOM     14  C   UNL     1       3.862   0.234  -4.970  0.00  0.00    -0.078 C 
ATOM     15  H   UNL     1       4.687  -1.532  -4.310  0.00  0.00    -0.081 HD
ENDBRANCH   1  10
BRANCH   1  16
ATOM     16  C   UNL     1       2.884  -3.402  -4.783  0.00  0.00    +0.094 C 
BRANCH  16  17
ATOM     17  N   UNL     1       1.572  -4.043  -4.657  0.00  0.00    -0.312 N 
ATOM     18  C   UNL     1       1.484  -5.384  -4.559  0.00  0.00    +0.248 C 
ATOM     19  O   UNL     1       2.493  -6.062  -4.576  0.00  0.00    -0.270 OA
ATOM     20  H   UNL     1       0.767  -3.502  -4.644  0.00  0.00    +0.149 HD
BRANCH  18  21
ATOM     21  C   UNL     1       0.164  -6.029  -4.432  0.00  0.00    +0.092 A 
ATOM     22  C   UNL     1      -1.010  -5.265  -4.417  0.00  0.00    +0.129 A 
ATOM     23  N   UNL     1      -2.172  -5.880  -4.302  0.00  0.00    -0.229 NA
ATOM     24  C   UNL     1      -2.237  -7.202  -4.202  0.00  0.00    +0.190 A 
ATOM     25  N   UNL     1      -1.149  -7.962  -4.212  0.00  0.00    -0.209 NA
ATOM     26  C   UNL     1       0.051  -7.424  -4.329  0.00  0.00    +0.146 A 
ATOM     27 CL   UNL     1       1.468  -8.427  -4.349  0.00  0.00    -0.061 Cl
BRANCH  24  28
ATOM     28  S   UNL     1      -3.815  -7.971  -4.050  0.00  0.00    -0.086 S 
BRANCH  28  29
ATOM     29  C   UNL     1      -3.433  -9.742  -3.944  0.00  0.00    +0.074 C 
ATOM     30  C   UNL     1      -4.732 -10.537  -3.807  0.00  0.00    +0.016 C 
ENDBRANCH  28  29
ENDBRANCH  24  28
ENDBRANCH  18  21
ENDBRANCH  16  17
ENDBRANCH   1  16
TORSDOF 8
