REMARK  Name = ZINC55597816
REMARK  6 active torsions:
REMARK  status: ('A' for Active; 'I' for Inactive)
REMARK    1  A    between atoms: C_1  and  C_2
REMARK    2  A    between atoms: C_5  and  S_11
REMARK    3  A    between atoms: C_7  and  N_8
REMARK    4  A    between atoms: S_11  and  N_14
REMARK    5  A    between atoms: N_14  and  C_15
REMARK    6  A    between atoms: C_19  and  N_21
REMARK                            x       y       z     vdW  Elec       q    Type
REMARK                         _______ _______ _______ _____ _____    ______ ____
ROOT
ATOM      1  N   UNL     1       2.154  -4.528  -0.187  0.00  0.00    -0.098 NA
ENDROOT
BRANCH   1   2
ATOM      2  C   UNL     1       2.776  -5.779  -0.188  0.00  0.00    +0.076 A 
ATOM      3  C   UNL     1       2.017  -6.933  -0.033  0.00  0.00    +0.027 A 
ATOM      4  C   UNL     1       2.631  -8.170  -0.035  0.00  0.00    +0.004 A 
ATOM      5  C   UNL     1       4.001  -8.265  -0.191  0.00  0.00    +0.024 A 
ATOM      6  C   UNL     1       4.765  -7.115  -0.346  0.00  0.00    +0.040 A 
ATOM      7  C   UNL     1       4.151  -5.871  -0.350  0.00  0.00    +0.050 A 
BRANCH   6   8
ATOM      8  N   UNL     1       6.152  -7.211  -0.503  0.00  0.00    -0.254 N 
ATOM      9  C   UNL     1       6.908  -8.464  -0.647  0.00  0.00    +0.134 C 
ATOM     10  C   UNL     1       8.371  -7.999  -0.785  0.00  0.00    +0.125 C 
ATOM     11  N   UNL     1       8.284  -6.534  -0.703  0.00  0.00    -0.297 N 
ATOM     12  C   UNL     1       7.002  -6.177  -0.551  0.00  0.00    +0.307 C 
ATOM     13  O   UNL     1       6.642  -5.019  -0.460  0.00  0.00    -0.252 OA
ATOM     14  H   UNL     1       9.035  -5.922  -0.755  0.00  0.00    +0.150 HD
ENDBRANCH   6   8
ENDBRANCH   1   2
BRANCH   1  15
ATOM     15  S   UNL     1       0.513  -4.420   0.007  0.00  0.00    +0.092 S 
ATOM     16  O   UNL     1       0.229  -4.869   1.325  0.00  0.00    -0.148 OA
ATOM     17  O   UNL     1      -0.072  -5.015  -1.143  0.00  0.00    -0.148 OA
BRANCH  15  22
ATOM     18  C   UNL     1      -0.924   1.438  -0.165  0.00  0.00    +0.046 C 
ATOM     19  C   UNL     1      -0.565  -0.025  -0.122  0.00  0.00    -0.020 A 
ATOM     20  C   UNL     1      -0.544  -0.766  -1.289  0.00  0.00    +0.007 A 
ATOM     21  C   UNL     1      -0.215  -2.108  -1.250  0.00  0.00    +0.029 A 
ATOM     22  C   UNL     1       0.094  -2.709  -0.043  0.00  0.00    +0.113 A 
ATOM     23  C   UNL     1       0.074  -1.968   1.123  0.00  0.00    +0.061 A 
ATOM     24  C   UNL     1      -0.251  -0.624   1.083  0.00  0.00    +0.131 A 
BRANCH  24  25
ATOM     25  N   UNL     1      -0.268   0.171   2.332  0.00  0.00    +0.057 N 
ATOM     26  O   UNL     1       0.113   1.318   2.323  0.00  0.00    -0.126 OA
ATOM     27  O   UNL     1      -0.661  -0.328   3.360  0.00  0.00    -0.126 OA
ENDBRANCH  24  25
ENDBRANCH  15  22
ENDBRANCH   1  15
TORSDOF 5
