REMARK  Name = ZINC35399551
REMARK  1 active torsions:
REMARK  status: ('A' for Active; 'I' for Inactive)
REMARK    1  A    between atoms: C_19  and  C_21
REMARK                            x       y       z     vdW  Elec       q    Type
REMARK                         _______ _______ _______ _____ _____    ______ ____
ROOT
ATOM      1  C   UNL     1      -0.082   2.827   0.004  0.00  0.00    +0.020 A 
ATOM      2  C   UNL     1       1.323   2.967   0.021  0.00  0.00    +0.025 A 
ATOM      3  C   UNL     1       1.848   1.745  -0.130  0.00  0.00    +0.047 A 
ATOM      4  N   UNL     1       0.814   0.839  -0.222  0.00  0.00    -0.316 N 
ATOM      5  C   UNL     1      -0.359   1.513  -0.152  0.00  0.00    +0.092 A 
ATOM      6  C   UNL     1       1.059  -0.537  -0.343  0.00  0.00    +0.069 A 
ATOM      7  C   UNL     1       0.047  -1.431  -0.633  0.00  0.00    +0.048 A 
ATOM      8  C   UNL     1       0.338  -2.779  -0.765  0.00  0.00    +0.043 A 
ATOM      9  C   UNL     1       1.638  -3.227  -0.608  0.00  0.00    +0.022 A 
ATOM     10  C   UNL     1       2.653  -2.338  -0.308  0.00  0.00    +0.026 A 
ATOM     11  C   UNL     1       2.370  -0.988  -0.163  0.00  0.00    +0.052 A 
ATOM     12  N   UNL     1       3.381  -0.087   0.198  0.00  0.00    -0.331 N 
ATOM     13  C   UNL     1       3.294   1.324  -0.205  0.00  0.00    +0.075 C 
ATOM     14  C   UNL     1       4.130   2.179   0.746  0.00  0.00    +0.051 C 
ATOM     15  C   UNL     1       5.589   1.713   0.698  0.00  0.00    +0.110 C 
ATOM     16  N   UNL     1       6.045   1.734  -0.698  0.00  0.00    -0.295 N 
ATOM     17  C   UNL     1       5.262   1.010  -1.709  0.00  0.00    +0.110 C 
ATOM     18  C   UNL     1       3.806   1.482  -1.636  0.00  0.00    +0.051 C 
ATOM     19  C   UNL     1       7.162   2.405  -1.046  0.00  0.00    +0.282 C 
ATOM     20  O   UNL     1       7.729   3.107  -0.229  0.00  0.00    -0.267 OA
ATOM     21 CL   UNL     1      -0.930  -3.908  -1.128  0.00  0.00    -0.083 Cl
ATOM     22  H   UNL     1       4.141  -0.396   0.715  0.00  0.00    +0.147 HD
ENDROOT
BRANCH  19  23
ATOM     23  C   UNL     1       7.693   2.288  -2.407  0.00  0.00    +0.189 A 
ATOM     24  C   UNL     1       8.721   3.018  -2.933  0.00  0.00    +0.054 A 
ATOM     25  C   UNL     1       8.893   2.580  -4.255  0.00  0.00    +0.042 A 
ATOM     26  C   UNL     1       7.974   1.614  -4.476  0.00  0.00    +0.196 A 
ATOM     27  O   UNL     1       7.257   1.437  -3.359  0.00  0.00    -0.458 OA
ENDBRANCH  19  23
TORSDOF 1
