REMARK  Name = ZINC39696359
REMARK  13 active torsions:
REMARK  status: ('A' for Active; 'I' for Inactive)
REMARK    1  A    between atoms: C_1  and  C_2
REMARK    2  A    between atoms: C_2  and  C_3
REMARK    3  A    between atoms: C_2  and  C_4
REMARK    4  A    between atoms: C_2  and  S_5
REMARK    5  A    between atoms: S_5  and  C_6
REMARK    6  A    between atoms: C_6  and  C_7
REMARK    7  A    between atoms: C_7  and  N_8
REMARK    8  A    between atoms: C_9  and  C_11
REMARK    9  A    between atoms: C_22  and  C_24
REMARK   10  A    between atoms: C_26  and  O_32
REMARK   11  A    between atoms: C_28  and  O_30
REMARK   12  A    between atoms: O_30  and  C_31
REMARK   13  A    between atoms: O_32  and  C_33
REMARK                            x       y       z     vdW  Elec       q    Type
REMARK                         _______ _______ _______ _____ _____    ______ ____
ROOT
ATOM      1  C   UNL     1       7.509   0.986  -3.035  0.00  0.00    +0.100 C 
ATOM      2  C   UNL     1       7.934   0.264  -1.736  0.00  0.00    +0.121 C 
ATOM      3  N   UNL     1       8.679  -0.931  -2.199  0.00  0.00    -0.296 N 
ATOM      4  C   UNL     1       9.468  -0.448  -3.357  0.00  0.00    +0.115 C 
ATOM      5  C   UNL     1       8.521   0.519  -4.095  0.00  0.00    -0.004 C 
ATOM      6  C   UNL     1       9.302   1.710  -4.641  0.00  0.00    -0.010 C 
ATOM      7  C   UNL     1      10.260   1.229  -5.734  0.00  0.00    -0.082 C 
ATOM      8  N   UNL     1       9.495   0.586  -6.809  0.00  0.00    +0.379 N 
ATOM      9  C   UNL     1       8.821  -0.613  -6.297  0.00  0.00    -0.082 C 
ATOM     10  C   UNL     1       7.802  -0.209  -5.227  0.00  0.00    -0.010 C 
ATOM     11  C   UNL     1       8.646  -2.176  -1.682  0.00  0.00    +0.247 C 
ATOM     12  O   UNL     1       7.851  -2.449  -0.805  0.00  0.00    -0.270 OA
ATOM     13  H   UNL     1       8.806   1.233  -7.163  0.00  0.00    -0.086 HD
ATOM     14  H   UNL     1      10.121   0.325  -7.556  0.00  0.00    -0.086 HD
ENDROOT
BRANCH  11  15
ATOM     15  C   UNL     1       9.579  -3.208  -2.183  0.00  0.00    +0.044 A 
ATOM     16  C   UNL     1      10.750  -2.833  -2.841  0.00  0.00    +0.059 A 
ATOM     17  C   UNL     1      11.621  -3.804  -3.309  0.00  0.00    +0.124 A 
ATOM     18  C   UNL     1      11.329  -5.147  -3.123  0.00  0.00    +0.091 A 
ATOM     19  C   UNL     1      10.165  -5.525  -2.470  0.00  0.00    +0.124 A 
ATOM     20  C   UNL     1       9.292  -4.561  -1.994  0.00  0.00    +0.059 A 
BRANCH  19  21
ATOM     21  O   UNL     1       9.884  -6.842  -2.291  0.00  0.00    -0.495 OA
ATOM     22  C   UNL     1      10.831  -7.783  -2.802  0.00  0.00    +0.277 C 
ENDBRANCH  19  21
BRANCH  17  23
ATOM     23  O   UNL     1      12.762  -3.439  -3.950  0.00  0.00    -0.495 OA
ATOM     24  C   UNL     1      13.615  -4.492  -4.405  0.00  0.00    +0.277 C 
ENDBRANCH  17  23
ENDBRANCH  11  15
BRANCH   1  26
ATOM     25  N   UNL     1       5.368   1.392  -4.205  0.00  0.00    -0.314 N 
ATOM     26  C   UNL     1       6.112   0.580  -3.428  0.00  0.00    +0.218 C 
ATOM     27  O   UNL     1       5.657  -0.477  -3.046  0.00  0.00    -0.275 OA
ATOM     28  H   UNL     1       5.732   2.237  -4.511  0.00  0.00    +0.149 HD
BRANCH  25  29
ATOM     29  C   UNL     1       4.010   0.997  -4.588  0.00  0.00    +0.115 C 
BRANCH  29  30
ATOM     30  C   UNL     1       3.390   2.088  -5.464  0.00  0.00    +0.088 C 
BRANCH  30  31
ATOM     31  S   UNL     1       1.708   1.599  -5.937  0.00  0.00    -0.153 S 
BRANCH  31  33
ATOM     32  C   UNL     1       2.039   3.141  -8.173  0.00  0.00    +0.022 C 
ATOM     33  C   UNL     1       1.122   2.979  -6.958  0.00  0.00    +0.008 C 
ATOM     34  C   UNL     1       1.137   4.267  -6.133  0.00  0.00    +0.022 C 
ATOM     35  C   UNL     1      -0.305   2.693  -7.431  0.00  0.00    +0.022 C 
ENDBRANCH  31  33
ENDBRANCH  30  31
ENDBRANCH  29  30
ENDBRANCH  25  29
ENDBRANCH   1  26
TORSDOF 8
