REMARK  Name = ZINC63022463
REMARK  9 active torsions:
REMARK  status: ('A' for Active; 'I' for Inactive)
REMARK    1  A    between atoms: C_1  and  C_2
REMARK    2  A    between atoms: C_2  and  N_3
REMARK    3  A    between atoms: N_3  and  C_4
REMARK    4  A    between atoms: C_4  and  C_5
REMARK    5  A    between atoms: C_5  and  C_7
REMARK    6  A    between atoms: C_5  and  C_8
REMARK    7  A    between atoms: N_9  and  O_10
REMARK    8  A    between atoms: C_12  and  C_14
REMARK    9  A    between atoms: C_17  and  C_21
REMARK                            x       y       z     vdW  Elec       q    Type
REMARK                         _______ _______ _______ _____ _____    ______ ____
ROOT
ATOM      1  N   UNL     1      -1.282  -0.740   0.169  0.00  0.00    -0.297 N 
ATOM      2  C   UNL     1      -1.918  -0.655   1.354  0.00  0.00    +0.247 C 
ATOM      3  O   UNL     1      -3.093  -0.955   1.436  0.00  0.00    -0.270 OA
ENDROOT
BRANCH   2   4
ATOM      4  C   UNL     1      -1.186  -0.197   2.554  0.00  0.00    +0.038 A 
ATOM      5  C   UNL     1      -0.229   0.815   2.448  0.00  0.00    +0.013 A 
ATOM      6  C   UNL     1       0.450   1.238   3.571  0.00  0.00    +0.005 A 
ATOM      7  C   UNL     1       0.185   0.664   4.802  0.00  0.00    -0.032 A 
ATOM      8  C   UNL     1      -0.762  -0.340   4.915  0.00  0.00    +0.045 A 
ATOM      9  C   UNL     1      -1.453  -0.769   3.799  0.00  0.00    +0.033 A 
ATOM     10 CL   UNL     1      -1.087  -1.054   6.463  0.00  0.00    -0.083 Cl
ATOM     11  C   UNL     1       0.932   1.131   6.025  0.00  0.00    +0.045 C 
ENDBRANCH   2   4
BRANCH   1  13
ATOM     12  C   UNL     1       0.346   0.971  -0.466  0.00  0.00    +0.024 C 
ATOM     13  C   UNL     1       0.150  -0.443   0.083  0.00  0.00    +0.105 C 
ENDBRANCH   1  13
BRANCH   1  14
ATOM     14  C   UNL     1      -2.023  -1.128  -1.034  0.00  0.00    +0.119 C 
BRANCH  14  15
ATOM     15  C   UNL     1      -1.979  -2.649  -1.191  0.00  0.00    +0.070 C 
ATOM     16  C   UNL     1      -2.725  -3.304  -0.027  0.00  0.00    +0.017 C 
BRANCH  15  17
ATOM     17  C   UNL     1      -2.635  -3.039  -2.491  0.00  0.00    +0.136 C 
ATOM     18  N   UNL     1      -3.880  -3.383  -2.508  0.00  0.00    -0.076 NA
ATOM     19  N   UNL     1      -1.907  -3.029  -3.660  0.00  0.00    -0.344 N 
ATOM     20  H   UNL     1      -0.972  -2.772  -3.647  0.00  0.00    +0.144 HD
ATOM     21  H   UNL     1      -2.329  -3.280  -4.496  0.00  0.00    +0.144 HD
BRANCH  18  22
ATOM     22  O   UNL     1      -4.496  -3.749  -3.729  0.00  0.00    -0.408 OA
ATOM     23  H   UNL     1      -5.429  -3.990  -3.643  0.00  0.00    +0.328 HD
ENDBRANCH  18  22
ENDBRANCH  15  17
ENDBRANCH  14  15
ENDBRANCH   1  14
TORSDOF 6
