REMARK  Name = ZINC13499250
REMARK  11 active torsions:
REMARK  status: ('A' for Active; 'I' for Inactive)
REMARK    1  A    between atoms: C_1  and  C_2
REMARK    2  A    between atoms: C_2  and  C_3
REMARK    3  A    between atoms: C_3  and  C_4
REMARK    4  A    between atoms: C_4  and  C_6
REMARK    5  A    between atoms: C_4  and  N_78
REMARK    6  A    between atoms: N_10  and  C_11
REMARK    7  A    between atoms: C_17  and  C_18
REMARK    8  A    between atoms: C_17  and  N_78
REMARK    9  A    between atoms: C_22  and  C_30
REMARK   10  A    between atoms: C_30  and  C_31
REMARK   11  A    between atoms: C_32  and  N_78
REMARK                            x       y       z     vdW  Elec       q    Type
REMARK                         _______ _______ _______ _____ _____    ______ ____
ROOT
ATOM      1  N   UNL     1       0.930   3.491  -0.965  0.00  0.00    +0.391 N 
ATOM      2  H   UNL     1       0.007   3.280  -0.568  0.00  0.00    -0.080 HD
ENDROOT
BRANCH   1   3
ATOM      3  C   UNL     1       0.926   3.136  -2.400  0.00  0.00    -0.067 C 
ATOM      4  C   UNL     1       2.248   3.540  -3.056  0.00  0.00    -0.015 C 
ATOM      5  C   UNL     1       2.218   3.164  -4.539  0.00  0.00    -0.002 C 
ATOM      6  C   UNL     1       1.063   3.895  -5.226  0.00  0.00    -0.000 C 
ATOM      7  C   UNL     1      -0.259   3.490  -4.571  0.00  0.00    -0.002 C 
ATOM      8  C   UNL     1      -0.229   3.866  -3.088  0.00  0.00    -0.015 C 
ENDBRANCH   1   3
BRANCH   1   9
ATOM      9  C   UNL     1       1.953   2.698  -0.251  0.00  0.00    +0.003 C 
BRANCH   9  10
ATOM     10  C   UNL     1       3.305   3.352  -0.374  0.00  0.00    +0.138 A 
ATOM     11  N   UNL     1       3.709   4.139  -1.341  0.00  0.00    -0.115 NA
ATOM     12  N   UNL     1       4.921   4.493  -1.085  0.00  0.00    -0.023 NA
ATOM     13  N   UNL     1       5.301   3.952   0.020  0.00  0.00    -0.044 NA
ATOM     14  N   UNL     1       4.332   3.241   0.489  0.00  0.00    -0.228 N 
BRANCH  14  15
ATOM     15  C   UNL     1       4.348   2.459   1.728  0.00  0.00    +0.111 C 
ATOM     16  C   UNL     1       4.832   3.340   2.881  0.00  0.00    +0.027 C 
ATOM     17  C   UNL     1       4.848   2.523   4.175  0.00  0.00    +0.002 C 
ATOM     18  C   UNL     1       5.793   1.331   4.013  0.00  0.00    +0.000 C 
ATOM     19  C   UNL     1       5.309   0.450   2.860  0.00  0.00    +0.002 C 
ATOM     20  C   UNL     1       5.293   1.266   1.566  0.00  0.00    +0.027 C 
ENDBRANCH  14  15
ENDBRANCH   9  10
BRANCH   9  21
ATOM     21  C   UNL     1       2.011   1.290  -0.848  0.00  0.00    -0.008 C 
BRANCH  21  23
ATOM     22  C   UNL     1       0.778  -0.869  -1.096  0.00  0.00    +0.004 C 
ATOM     23  C   UNL     1       0.686   0.570  -0.585  0.00  0.00    -0.005 C 
ENDBRANCH  21  23
ENDBRANCH   9  21
ENDBRANCH   1   9
BRANCH   1  24
ATOM     24  C   UNL     1       1.204   4.934  -0.803  0.00  0.00    -0.036 C 
BRANCH  24  25
ATOM     25  C   UNL     1       0.754   5.359   0.571  0.00  0.00    +0.001 A 
ATOM     26  C   UNL     1       1.652   5.428   1.585  0.00  0.00    +0.017 A 
ATOM     27  C   UNL     1       1.183   5.850   2.906  0.00  0.00    -0.001 A 
ATOM     28  C   UNL     1       2.064   5.947   3.989  0.00  0.00    +0.013 A 
ATOM     29  C   UNL     1       1.594   6.340   5.210  0.00  0.00    -0.047 A 
ATOM     30  C   UNL     1       0.251   6.644   5.386  0.00  0.00    +0.005 A 
ATOM     31  C   UNL     1      -0.634   6.556   4.334  0.00  0.00    +0.026 A 
ATOM     32  C   UNL     1      -0.179   6.158   3.081  0.00  0.00    +0.049 A 
ATOM     33  N   UNL     1      -1.042   6.062   2.010  0.00  0.00    -0.322 N 
ATOM     34  H   UNL     1      -1.980   6.275   2.132  0.00  0.00    +0.169 HD
ATOM     35  C   UNL     1      -0.602   5.679   0.799  0.00  0.00    +0.251 A 
ATOM     36  O   UNL     1      -1.393   5.605  -0.125  0.00  0.00    -0.268 OA
BRANCH  29  37
ATOM     37  C   UNL     1       2.542   6.443   6.377  0.00  0.00    +0.032 C 
ATOM     38  C   UNL     1       3.039   7.885   6.504  0.00  0.00    +0.009 C 
ENDBRANCH  29  37
ENDBRANCH  24  25
ENDBRANCH   1  24
TORSDOF 9
