REMARK  Name = ZINC34734827
REMARK  8 active torsions:
REMARK  status: ('A' for Active; 'I' for Inactive)
REMARK    1  A    between atoms: C_1  and  C_2
REMARK    2  A    between atoms: C_5  and  C_38
REMARK    3  A    between atoms: C_6  and  C_8
REMARK    4  A    between atoms: C_8  and  N_9
REMARK    5  A    between atoms: N_22  and  C_25
REMARK    6  A    between atoms: C_25  and  C_26
REMARK    7  A    between atoms: C_34  and  C_36
REMARK    8  A    between atoms: C_34  and  C_37
REMARK                            x       y       z     vdW  Elec       q    Type
REMARK                         _______ _______ _______ _____ _____    ______ ____
ROOT
ATOM      1  N   UNL     1       1.587  -3.572   3.161  0.00  0.00    -0.276 N 
ATOM      2  C   UNL     1       2.022  -4.723   2.615  0.00  0.00    +0.264 A 
ATOM      3  O   UNL     1       1.288  -5.384   1.901  0.00  0.00    -0.267 OA
ATOM      4  C   UNL     1       3.357  -5.162   2.886  0.00  0.00    +0.076 A 
ATOM      5  C   UNL     1       4.033  -6.365   2.408  0.00  0.00    -0.018 A 
ATOM      6  C   UNL     1       5.309  -6.555   2.810  0.00  0.00    +0.021 A 
ATOM      7  S   UNL     1       5.680  -5.160   3.834  0.00  0.00    -0.071 S 
ATOM      8  C   UNL     1       4.117  -4.324   3.721  0.00  0.00    +0.118 A 
ATOM      9  N   UNL     1       3.627  -3.199   4.228  0.00  0.00    -0.208 NA
ATOM     10  C   UNL     1       2.396  -2.817   3.958  0.00  0.00    +0.202 A 
ATOM     11  N   UNL     1       1.918  -1.646   4.491  0.00  0.00    -0.304 N 
ATOM     12  C   UNL     1       1.175  -0.684   3.660  0.00  0.00    +0.089 C 
ATOM     13  C   UNL     1       1.794   0.704   3.854  0.00  0.00    -0.059 C 
ATOM     14  N   UNL     1       1.820   1.032   5.285  0.00  0.00    +0.384 N 
ATOM     15  C   UNL     1       2.706   0.102   5.996  0.00  0.00    -0.059 C 
ATOM     16  C   UNL     1       2.128  -1.319   5.909  0.00  0.00    +0.089 C 
ATOM     17  C   UNL     1       6.190  -7.710   2.448  0.00  0.00    +0.203 C 
ATOM     18  O   UNL     1       5.362  -8.733   1.871  0.00  0.00    -0.368 OA
ATOM     19  C   UNL     1       4.475  -8.246   0.861  0.00  0.00    +0.068 C 
ATOM     20  C   UNL     1       3.372  -7.393   1.493  0.00  0.00    +0.071 C 
ATOM     21  C   UNL     1       5.263  -7.396  -0.139  0.00  0.00    +0.041 C 
ATOM     22  C   UNL     1       3.843  -9.430   0.127  0.00  0.00    +0.041 C 
ATOM     23  H   UNL     1       0.887   0.960   5.662  0.00  0.00    -0.081 HD
ENDROOT
BRANCH   1  24
ATOM     24  C   UNL     1       0.221  -3.119   2.888  0.00  0.00    +0.163 C 
BRANCH  24  30
ATOM     25  C   UNL     1      -2.993  -6.896   2.216  0.00  0.00    +0.044 C 
ATOM     26  C   UNL     1      -2.299  -5.920   3.130  0.00  0.00    -0.050 A 
ATOM     27  C   UNL     1      -2.562  -5.937   4.487  0.00  0.00    +0.003 A 
ATOM     28  C   UNL     1      -1.926  -5.042   5.326  0.00  0.00    +0.004 A 
ATOM     29  C   UNL     1      -1.025  -4.130   4.809  0.00  0.00    -0.046 A 
ATOM     30  C   UNL     1      -0.760  -4.114   3.452  0.00  0.00    -0.024 A 
ATOM     31  C   UNL     1      -1.394  -5.012   2.613  0.00  0.00    +0.009 A 
ATOM     32  C   UNL     1      -0.332  -3.153   5.723  0.00  0.00    +0.044 C 
ENDBRANCH  24  30
ENDBRANCH   1  24
BRANCH  14  33
ATOM     33  C   UNL     1       2.311   2.405   5.462  0.00  0.00    -0.043 C 
BRANCH  33  34
ATOM     34  C   UNL     1       2.222   2.787   6.917  0.00  0.00    -0.064 A 
ATOM     35  C   UNL     1       1.072   3.375   7.409  0.00  0.00    +0.002 A 
ATOM     36  C   UNL     1       0.991   3.725   8.744  0.00  0.00    +0.000 A 
ATOM     37  C   UNL     1       2.059   3.486   9.587  0.00  0.00    +0.000 A 
ATOM     38  C   UNL     1       3.209   2.897   9.096  0.00  0.00    +0.000 A 
ATOM     39  C   UNL     1       3.289   2.543   7.762  0.00  0.00    +0.002 A 
ENDBRANCH  33  34
ENDBRANCH  14  33
TORSDOF 4
