REMARK  Name = ZINC39750244
REMARK  14 active torsions:
REMARK  status: ('A' for Active; 'I' for Inactive)
REMARK    1  A    between atoms: C_1  and  C_2
REMARK    2  A    between atoms: C_2  and  C_3
REMARK    3  A    between atoms: C_8  and  N_9
REMARK    4  A    between atoms: C_10  and  C_12
REMARK    5  A    between atoms: C_12  and  C_13
REMARK    6  A    between atoms: C_16  and  S_20
REMARK    7  A    between atoms: N_17  and  C_18
REMARK    8  A    between atoms: C_18  and  C_19
REMARK    9  A    between atoms: S_20  and  C_21
REMARK   10  A    between atoms: C_21  and  C_23
REMARK   11  A    between atoms: C_21  and  C_24
REMARK   12  A    between atoms: N_26  and  C_27
REMARK   13  A    between atoms: C_30  and  N_33
REMARK   14  A    between atoms: C_34  and  C_36
REMARK                            x       y       z     vdW  Elec       q    Type
REMARK                         _______ _______ _______ _____ _____    ______ ____
ROOT
ATOM      1  C   UNL     1      -2.382  -0.561  -5.997  0.00  0.00    +0.143 A 
ATOM      2  N   UNL     1      -2.479  -1.710  -6.605  0.00  0.00    -0.133 NA
ATOM      3  N   UNL     1      -3.369  -1.646  -7.530  0.00  0.00    -0.122 NA
ATOM      4  C   UNL     1      -3.892  -0.442  -7.562  0.00  0.00    +0.192 A 
ATOM      5  N   UNL     1      -3.282   0.286  -6.582  0.00  0.00    -0.306 N 
ENDROOT
BRANCH   5   6
ATOM      6  C   UNL     1      -3.537   1.685  -6.231  0.00  0.00    +0.122 C 
ATOM      7  C   UNL     1      -2.618   2.592  -7.052  0.00  0.00    +0.027 C 
ENDBRANCH   5   6
BRANCH   1   8
ATOM      8  C   UNL     1      -1.454  -0.230  -4.857  0.00  0.00    +0.172 C 
BRANCH   8  10
ATOM      9  N   UNL     1      -1.493  -0.314  -2.385  0.00  0.00    -0.285 N 
ATOM     10  C   UNL     1      -2.137  -0.533  -3.549  0.00  0.00    +0.225 C 
ATOM     11  O   UNL     1      -3.266  -0.976  -3.542  0.00  0.00    -0.275 OA
ATOM     12  H   UNL     1      -0.617   0.102  -2.387  0.00  0.00    +0.155 HD
BRANCH   9  18
ATOM     13  C   UNL     1      -1.305  -1.156  -0.130  0.00  0.00    -0.026 A 
ATOM     14  C   UNL     1      -1.895  -1.518   1.066  0.00  0.00    +0.005 A 
ATOM     15  C   UNL     1      -3.265  -1.417   1.220  0.00  0.00    +0.000 A 
ATOM     16  C   UNL     1      -4.049  -0.954   0.179  0.00  0.00    +0.002 A 
ATOM     17  C   UNL     1      -3.465  -0.590  -1.018  0.00  0.00    +0.023 A 
ATOM     18  C   UNL     1      -2.089  -0.686  -1.175  0.00  0.00    +0.037 A 
BRANCH  13  20
ATOM     19  C   UNL     1       0.838   0.082   0.018  0.00  0.00    +0.009 C 
ATOM     20  C   UNL     1       0.189  -1.267  -0.297  0.00  0.00    +0.033 C 
ENDBRANCH  13  20
ENDBRANCH   9  18
ENDBRANCH   8  10
ENDBRANCH   1   8
BRANCH   4  21
ATOM     21  S   UNL     1      -5.149   0.124  -8.660  0.00  0.00    -0.074 S 
BRANCH  21  22
ATOM     22  C   UNL     1      -5.518  -1.323  -9.689  0.00  0.00    +0.137 C 
ATOM     23  C   UNL     1      -4.290  -1.679 -10.528  0.00  0.00    +0.029 C 
BRANCH  22  24
ATOM     24  C   UNL     1      -6.676  -1.009 -10.601  0.00  0.00    +0.230 C 
ATOM     25  O   UNL     1      -6.912   0.140 -10.908  0.00  0.00    -0.274 OA
ATOM     26  N   UNL     1      -7.449  -2.006 -11.076  0.00  0.00    -0.285 N 
ATOM     27  H   UNL     1      -7.315  -2.915 -10.765  0.00  0.00    +0.155 HD
BRANCH  26  28
ATOM     28  C   UNL     1      -8.448  -1.729 -12.019  0.00  0.00    +0.034 A 
ATOM     29  C   UNL     1      -9.562  -2.552 -12.112  0.00  0.00    +0.025 A 
ATOM     30  C   UNL     1     -10.546  -2.279 -13.041  0.00  0.00    +0.025 A 
ATOM     31  C   UNL     1     -10.421  -1.181 -13.882  0.00  0.00    +0.033 A 
ATOM     32  C   UNL     1      -9.307  -0.358 -13.789  0.00  0.00    +0.025 A 
ATOM     33  C   UNL     1      -8.326  -0.627 -12.856  0.00  0.00    +0.025 A 
BRANCH  31  34
ATOM     34  N   UNL     1     -11.420  -0.904 -14.825  0.00  0.00    -0.286 N 
ATOM     35  C   UNL     1     -11.089  -0.384 -16.023  0.00  0.00    +0.214 C 
ATOM     36  O   UNL     1      -9.922  -0.245 -16.323  0.00  0.00    -0.276 OA
ATOM     37  C   UNL     1     -12.169   0.026 -16.991  0.00  0.00    +0.109 C 
ATOM     38  H   UNL     1     -12.349  -1.088 -14.616  0.00  0.00    +0.155 HD
ENDBRANCH  31  34
ENDBRANCH  26  28
ENDBRANCH  22  24
ENDBRANCH  21  22
ENDBRANCH   4  21
TORSDOF 10
