REMARK  Name = ZINC59472882
REMARK  11 active torsions:
REMARK  status: ('A' for Active; 'I' for Inactive)
REMARK    1  A    between atoms: C_1  and  C_2
REMARK    2  A    between atoms: C_5  and  N_9
REMARK    3  A    between atoms: C_6  and  C_8
REMARK    4  A    between atoms: N_9  and  C_10
REMARK    5  A    between atoms: N_9  and  S_27
REMARK    6  A    between atoms: C_10  and  C_11
REMARK    7  A    between atoms: N_13  and  N_14
REMARK    8  A    between atoms: C_15  and  C_16
REMARK    9  A    between atoms: C_20  and  O_22
REMARK   10  A    between atoms: O_22  and  C_23
REMARK   11  A    between atoms: S_27  and  C_30
REMARK                            x       y       z     vdW  Elec       q    Type
REMARK                         _______ _______ _______ _____ _____    ______ ____
ROOT
ATOM      1  N   UNL     1       0.525  -0.523   0.906  0.00  0.00    -0.194 N 
ENDROOT
BRANCH   1   6
ATOM      2  C   UNL     1       3.645   3.987   2.349  0.00  0.00    +0.044 C 
ATOM      3  C   UNL     1       2.816   2.788   1.966  0.00  0.00    -0.050 A 
ATOM      4  C   UNL     1       2.712   1.716   2.833  0.00  0.00    +0.005 A 
ATOM      5  C   UNL     1       1.953   0.616   2.485  0.00  0.00    +0.025 A 
ATOM      6  C   UNL     1       1.293   0.588   1.262  0.00  0.00    +0.055 A 
ATOM      7  C   UNL     1       1.400   1.667   0.394  0.00  0.00    -0.028 A 
ATOM      8  C   UNL     1       2.157   2.766   0.751  0.00  0.00    +0.008 A 
ATOM      9  C   UNL     1       0.687   1.640  -0.934  0.00  0.00    +0.046 C 
ENDBRANCH   1   6
BRANCH   1  10
ATOM     10  S   UNL     1      -1.094  -0.555   1.253  0.00  0.00    +0.075 S 
ATOM     11  O   UNL     1      -1.486  -1.921   1.233  0.00  0.00    -0.150 OA
ATOM     12  O   UNL     1      -1.282   0.275   2.391  0.00  0.00    -0.150 OA
BRANCH  10  13
ATOM     13  C   UNL     1      -1.929   0.228  -0.086  0.00  0.00    +0.109 A 
ATOM     14  C   UNL     1      -2.304   1.555   0.015  0.00  0.00    +0.029 A 
ATOM     15  C   UNL     1      -2.959   2.170  -1.036  0.00  0.00    +0.002 A 
ATOM     16  C   UNL     1      -3.239   1.458  -2.188  0.00  0.00    +0.000 A 
ATOM     17  C   UNL     1      -2.862   0.132  -2.289  0.00  0.00    +0.002 A 
ATOM     18  C   UNL     1      -2.204  -0.482  -1.240  0.00  0.00    +0.029 A 
ENDBRANCH  10  13
ENDBRANCH   1  10
BRANCH   1  19
ATOM     19  C   UNL     1       1.152  -1.660   0.227  0.00  0.00    +0.228 C 
BRANCH  19  20
ATOM     20  C   UNL     1       1.807  -2.556   1.247  0.00  0.00    +0.251 C 
ATOM     21  O   UNL     1       1.654  -2.340   2.431  0.00  0.00    -0.272 OA
ATOM     22  N   UNL     1       2.562  -3.597   0.844  0.00  0.00    -0.206 N 
ATOM     23  H   UNL     1       2.683  -3.769  -0.103  0.00  0.00    +0.177 HD
BRANCH  22  24
ATOM     24  N   UNL     1       3.171  -4.429   1.792  0.00  0.00    -0.188 NA
ATOM     25  C   UNL     1       3.897  -5.431   1.403  0.00  0.00    +0.138 C 
BRANCH  25  26
ATOM     26  C   UNL     1       4.539  -6.308   2.401  0.00  0.00    -0.002 A 
ATOM     27  C   UNL     1       4.360  -6.065   3.765  0.00  0.00    +0.010 A 
ATOM     28  C   UNL     1       4.962  -6.887   4.696  0.00  0.00    +0.004 A 
ATOM     29  C   UNL     1       5.741  -7.952   4.283  0.00  0.00    +0.046 A 
ATOM     30  C   UNL     1       5.925  -8.201   2.929  0.00  0.00    +0.122 A 
ATOM     31  C   UNL     1       5.321  -7.387   1.986  0.00  0.00    +0.055 A 
BRANCH  30  32
ATOM     32  O   UNL     1       6.692  -9.249   2.530  0.00  0.00    -0.487 OA
BRANCH  32  33
ATOM     33  C   UNL     1       6.741  -9.521   1.128  0.00  0.00    +0.193 C 
ATOM     34  C   UNL     1       8.026  -9.021   0.462  0.00  0.00    +0.114 C 
ATOM     35  S   UNL     1       8.888 -10.521   1.010  0.00  0.00    -0.153 S 
ATOM     36  C   UNL     1       7.140 -10.963   0.807  0.00  0.00    +0.114 C 
ENDBRANCH  32  33
ENDBRANCH  30  32
ENDBRANCH  25  26
ENDBRANCH  22  24
ENDBRANCH  19  20
ENDBRANCH   1  19
TORSDOF 9
