REMARK  Name = ZINC14732363
REMARK  6 active torsions:
REMARK  status: ('A' for Active; 'I' for Inactive)
REMARK    1  A    between atoms: C_1  and  N_2
REMARK    2  A    between atoms: C_5  and  C_7
REMARK    3  A    between atoms: C_16  and  N_65
REMARK    4  A    between atoms: C_20  and  C_21
REMARK    5  A    between atoms: C_20  and  N_65
REMARK    6  A    between atoms: C_21  and  C_27
REMARK                            x       y       z     vdW  Elec       q    Type
REMARK                         _______ _______ _______ _____ _____    ______ ____
ROOT
ATOM      1  C   UNL     1       0.572   0.468  -2.993  0.00  0.00    +0.172 C 
ATOM      2  N   UNL     1      -0.469   1.373  -2.501  0.00  0.00    -0.270 N 
ATOM      3  C   UNL     1      -0.757   1.583  -1.206  0.00  0.00    +0.043 A 
ATOM      4  C   UNL     1      -1.771   2.483  -1.161  0.00  0.00    +0.004 A 
ATOM      5  C   UNL     1      -2.071   2.794  -2.498  0.00  0.00    +0.151 A 
ATOM      6  N   UNL     1      -1.243   2.085  -3.246  0.00  0.00    -0.166 NA
ATOM      7  C   UNL     1      -2.398   3.001   0.104  0.00  0.00    +0.023 C 
ATOM      8  C   UNL     1      -1.460   2.677   1.274  0.00  0.00    -0.067 C 
ATOM      9  C   UNL     1      -1.054   1.202   1.212  0.00  0.00    -0.009 C 
ATOM     10  C   UNL     1      -0.121   0.973   0.017  0.00  0.00    +0.054 C 
ENDROOT
BRANCH   5  11
ATOM     11  C   UNL     1      -3.108   3.731  -2.975  0.00  0.00    +0.267 C 
ATOM     12  O   UNL     1      -3.724   4.412  -2.178  0.00  0.00    -0.268 OA
ATOM     13  N   UNL     1      -3.372   3.831  -4.293  0.00  0.00    -0.295 N 
ATOM     14  C   UNL     1      -4.284   4.870  -4.771  0.00  0.00    +0.119 C 
ATOM     15  C   UNL     1      -3.501   5.871  -5.637  0.00  0.00    +0.088 C 
ATOM     16  S   UNL     1      -2.713   4.965  -7.002  0.00  0.00    -0.158 S 
ATOM     17  C   UNL     1      -1.786   3.655  -6.148  0.00  0.00    +0.088 C 
ATOM     18  C   UNL     1      -2.747   2.894  -5.228  0.00  0.00    +0.119 C 
ENDBRANCH   5  11
BRANCH   8  19
ATOM     19  N   UNL     1      -2.162   2.941   2.545  0.00  0.00    +0.382 N 
ATOM     20  H   UNL     1      -2.720   2.118   2.801  0.00  0.00    -0.085 HD
ATOM     21  H   UNL     1      -2.782   3.751   2.427  0.00  0.00    -0.085 HD
BRANCH  19  22
ATOM     22  C   UNL     1      -1.190   3.223   3.618  0.00  0.00    -0.071 C 
BRANCH  22  23
ATOM     23  C   UNL     1      -1.946   3.493   4.920  0.00  0.00    -0.015 C 
ATOM     24  C   UNL     1      -2.864   4.706   4.739  0.00  0.00    +0.038 C 
ATOM     25  C   UNL     1      -2.011   5.943   4.446  0.00  0.00    +0.160 C 
ATOM     26  O   UNL     1      -1.081   6.142   5.513  0.00  0.00    -0.380 OA
ATOM     27  C   UNL     1      -0.166   5.060   5.699  0.00  0.00    +0.160 C 
ATOM     28  C   UNL     1      -0.945   3.788   6.042  0.00  0.00    +0.038 C 
BRANCH  23  29
ATOM     29  C   UNL     1      -2.770   2.285   5.285  0.00  0.00    -0.043 A 
ATOM     30  C   UNL     1      -2.757   1.168   4.470  0.00  0.00    +0.004 A 
ATOM     31  C   UNL     1      -3.509   0.059   4.806  0.00  0.00    +0.000 A 
ATOM     32  C   UNL     1      -4.282   0.069   5.952  0.00  0.00    +0.000 A 
ATOM     33  C   UNL     1      -4.299   1.187   6.764  0.00  0.00    +0.000 A 
ATOM     34  C   UNL     1      -3.543   2.295   6.431  0.00  0.00    +0.004 A 
ENDBRANCH  23  29
ENDBRANCH  22  23
ENDBRANCH  19  22
ENDBRANCH   8  19
TORSDOF 5
