REMARK  Name = ZINC10133197
REMARK  9 active torsions:
REMARK  status: ('A' for Active; 'I' for Inactive)
REMARK    1  A    between atoms: C_1  and  C_2
REMARK    2  A    between atoms: C_2  and  C_3
REMARK    3  A    between atoms: N_11  and  C_15
REMARK    4  A    between atoms: C_15  and  C_16
REMARK    5  A    between atoms: C_16  and  O_18
REMARK    6  A    between atoms: O_18  and  C_19
REMARK    7  A    between atoms: C_19  and  C_20
REMARK    8  A    between atoms: N_22  and  C_23
REMARK    9  A    between atoms: C_24  and  C_33
REMARK                            x       y       z     vdW  Elec       q    Type
REMARK                         _______ _______ _______ _____ _____    ______ ____
ROOT
ATOM      1  C   UNL     1      -1.624  -1.124  -1.409  0.00  0.00    +0.326 C 
ATOM      2  O   UNL     1      -0.990  -0.669  -2.331  0.00  0.00    -0.249 OA
ENDROOT
BRANCH   1   3
ATOM      3  C   UNL     1      -1.198  -0.844   0.009  0.00  0.00    +0.238 C 
BRANCH   3  12
ATOM      4  C   UNL     1       1.282   4.683   0.015  0.00  0.00    -0.011 C 
ATOM      5  C   UNL     1       0.926   3.877  -1.236  0.00  0.00    +0.006 C 
ATOM      6  C   UNL     1       1.741   2.581  -1.255  0.00  0.00    +0.035 C 
ATOM      7  C   UNL     1       1.435   1.768  -0.002  0.00  0.00    +0.113 C 
ATOM      8  C   UNL     1       1.765   2.568   1.254  0.00  0.00    +0.035 C 
ATOM      9  C   UNL     1       0.951   3.864   1.264  0.00  0.00    +0.006 C 
ATOM     10  C   UNL     1      -0.016   1.345   0.009  0.00  0.00    +0.247 C 
ATOM     11  O   UNL     1      -0.991   2.066   0.018  0.00  0.00    -0.273 OA
ATOM     12  N   UNL     1       0.002  -0.004   0.002  0.00  0.00    -0.213 N 
ATOM     13  C   UNL     1       1.253  -0.480  -0.013  0.00  0.00    +0.310 C 
ATOM     14  O   UNL     1       1.526  -1.665  -0.021  0.00  0.00    -0.252 OA
ATOM     15  N   UNL     1       2.176   0.501  -0.016  0.00  0.00    -0.285 N 
ATOM     16  H   UNL     1       3.140   0.392  -0.026  0.00  0.00    +0.151 HD
BRANCH   4  18
ATOM     17  C   UNL     1       0.922   6.846   1.212  0.00  0.00    +0.004 C 
ATOM     18  C   UNL     1       0.477   5.984   0.030  0.00  0.00    -0.000 C 
ENDBRANCH   4  18
ENDBRANCH   3  12
ENDBRANCH   1   3
BRANCH   1  19
ATOM     19  O   UNL     1      -2.708  -1.879  -1.647  0.00  0.00    -0.454 OA
BRANCH  19  20
ATOM     20  C   UNL     1      -3.059  -2.108  -3.038  0.00  0.00    +0.328 C 
BRANCH  20  21
ATOM     21  C   UNL     1      -4.293  -2.970  -3.109  0.00  0.00    +0.255 C 
ATOM     22  O   UNL     1      -4.824  -3.354  -2.088  0.00  0.00    -0.272 OA
ATOM     23  N   UNL     1      -4.806  -3.314  -4.307  0.00  0.00    -0.276 N 
ATOM     24  H   UNL     1      -4.381  -3.007  -5.123  0.00  0.00    +0.155 HD
BRANCH  23  25
ATOM     25  C   UNL     1      -5.943  -4.109  -4.372  0.00  0.00    +0.090 A 
ATOM     26  C   UNL     1      -6.615  -4.558  -5.497  0.00  0.00    +0.084 A 
ATOM     27  C   UNL     1      -7.791  -5.393  -5.295  0.00  0.00    -0.018 A 
ATOM     28  C   UNL     1      -8.109  -5.626  -4.003  0.00  0.00    -0.004 A 
ATOM     29  S   UNL     1      -6.869  -4.772  -3.068  0.00  0.00    -0.077 S 
ATOM     30  C   UNL     1      -9.263  -6.418  -3.473  0.00  0.00    +0.043 C 
ATOM     31  C   UNL     1      -9.326  -7.769  -4.199  0.00  0.00    +0.005 C 
ATOM     32  C   UNL     1     -10.196  -7.608  -5.442  0.00  0.00    +0.001 C 
ATOM     33  C   UNL     1     -10.040  -6.201  -6.014  0.00  0.00    +0.005 C 
ATOM     34  C   UNL     1      -8.600  -5.961  -6.454  0.00  0.00    +0.037 C 
BRANCH  26  35
ATOM     35  C   UNL     1      -6.167  -4.216  -6.813  0.00  0.00    +0.102 C 
ATOM     36  N   UNL     1      -5.811  -3.945  -7.857  0.00  0.00    -0.191 NA
ENDBRANCH  26  35
ENDBRANCH  23  25
ENDBRANCH  20  21
ENDBRANCH  19  20
ENDBRANCH   1  19
TORSDOF 8
