REMARK  Name = ZINC04426856
REMARK  8 active torsions:
REMARK  status: ('A' for Active; 'I' for Inactive)
REMARK    1  A    between atoms: C_1  and  C_2
REMARK    2  A    between atoms: C_4  and  O_32
REMARK    3  A    between atoms: C_12  and  O_20
REMARK    4  A    between atoms: C_14  and  C_15
REMARK    5  A    between atoms: C_14  and  O_19
REMARK    6  A    between atoms: C_15  and  C_17
REMARK    7  A    between atoms: C_17  and  O_18
REMARK    8  A    between atoms: C_29  and  C_30
REMARK                            x       y       z     vdW  Elec       q    Type
REMARK                         _______ _______ _______ _____ _____    ______ ____
ROOT
ATOM      1  C   UNL     1       3.542   3.454   0.542  0.00  0.00    +0.015 C 
ATOM      2  C   UNL     1       2.141   3.453   1.150  0.00  0.00    +0.012 C 
ATOM      3  C   UNL     1       1.888   4.734   1.909  0.00  0.00    +0.044 C 
ATOM      4  C   UNL     1       2.877   4.813   3.093  0.00  0.00    +0.154 C 
ATOM      5  C   UNL     1       2.748   3.623   4.023  0.00  0.00    +0.153 C 
ATOM      6  C   UNL     1       2.807   2.276   3.293  0.00  0.00    +0.034 C 
ATOM      7  C   UNL     1       1.903   2.267   2.107  0.00  0.00    +0.007 C 
ATOM      8  C   UNL     1       1.957   1.072   1.150  0.00  0.00    +0.039 C 
ATOM      9  C   UNL     1       1.162   1.588  -0.082  0.00  0.00    +0.154 C 
ATOM     10  C   UNL     1       1.148   3.135   0.020  0.00  0.00    +0.157 C 
ATOM     11  C   UNL     1       4.262   1.916   3.016  0.00  0.00    +0.011 C 
ATOM     12  C   UNL     1       4.836   1.428   4.353  0.00  0.00    +0.032 C 
ATOM     13  C   UNL     1       4.523   2.438   5.429  0.00  0.00    -0.053 C 
ATOM     14  C   UNL     1       5.083   2.210   6.631  0.00  0.00    +0.051 C 
ATOM     15  C   UNL     1       4.675   3.037   7.786  0.00  0.00    +0.179 C 
ATOM     16  O   UNL     1       5.356   3.084   8.806  0.00  0.00    -0.288 OA
ATOM     17  C   UNL     1       3.419   3.810   7.672  0.00  0.00    +0.047 C 
ATOM     18  C   UNL     1       2.933   4.074   6.453  0.00  0.00    -0.009 C 
ATOM     19  C   UNL     1       3.669   3.640   5.217  0.00  0.00    +0.044 C 
ATOM     20  C   UNL     1       4.695   4.755   4.996  0.00  0.00    +0.023 C 
ATOM     21  F   UNL     1       1.437   3.695   4.559  0.00  0.00    -0.238 F 
ENDROOT
BRANCH  10  22
ATOM     22  C   UNL     1       1.629   3.749  -1.268  0.00  0.00    +0.193 C 
ATOM     23  O   UNL     1       2.350   3.120  -2.005  0.00  0.00    -0.292 OA
BRANCH  22  24
ATOM     24  C   UNL     1       1.209   5.148  -1.638  0.00  0.00    +0.233 C 
BRANCH  24  25
ATOM     25  O   UNL     1       1.789   5.503  -2.895  0.00  0.00    -0.387 OA
ATOM     26  H   UNL     1       1.561   6.393  -3.196  0.00  0.00    +0.210 HD
ENDBRANCH  24  25
ENDBRANCH  22  24
ENDBRANCH  10  22
BRANCH  10  27
ATOM     27  O   UNL     1      -0.154   3.608   0.352  0.00  0.00    -0.378 OA
ATOM     28  H   UNL     1      -0.831   3.390  -0.303  0.00  0.00    +0.211 HD
ENDBRANCH  10  27
BRANCH   9  29
ATOM     29  O   UNL     1      -0.175   1.085  -0.052  0.00  0.00    -0.388 OA
ATOM     30  H   UNL     1      -0.234   0.121  -0.101  0.00  0.00    +0.210 HD
ENDBRANCH   9  29
BRANCH   4  31
ATOM     31  O   UNL     1       2.542   6.016   3.804  0.00  0.00    -0.389 OA
ATOM     32  H   UNL     1       2.616   6.821   3.273  0.00  0.00    +0.210 HD
ENDBRANCH   4  31
TORSDOF 6
