REMARK  Name = ZINC13958125
REMARK  14 active torsions:
REMARK  status: ('A' for Active; 'I' for Inactive)
REMARK    1  A    between atoms: C_1  and  C_2
REMARK    2  A    between atoms: C_2  and  O_3
REMARK    3  A    between atoms: O_3  and  C_4
REMARK    4  A    between atoms: C_4  and  C_6
REMARK    5  A    between atoms: C_7  and  C_35
REMARK    6  A    between atoms: C_8  and  C_34
REMARK    7  A    between atoms: C_10  and  N_11
REMARK    8  A    between atoms: C_12  and  C_14
REMARK    9  A    between atoms: C_14  and  S_15
REMARK   10  A    between atoms: S_15  and  C_16
REMARK   11  A    between atoms: C_19  and  C_28
REMARK   12  A    between atoms: N_20  and  C_21
REMARK   13  A    between atoms: C_21  and  C_22
REMARK   14  A    between atoms: N_31  and  C_33
REMARK                            x       y       z     vdW  Elec       q    Type
REMARK                         _______ _______ _______ _____ _____    ______ ____
ROOT
ATOM      1  S   UNL     1      -4.764  -0.435   1.179  0.00  0.00    -0.077 S 
ENDROOT
BRANCH   1   2
ATOM      2  C   UNL     1      -5.306   0.916   0.187  0.00  0.00    +0.192 A 
ATOM      3  N   UNL     1      -6.448   1.556   0.298  0.00  0.00    -0.122 NA
ATOM      4  N   UNL     1      -6.523   2.483  -0.589  0.00  0.00    -0.127 NA
ATOM      5  C   UNL     1      -5.432   2.495  -1.317  0.00  0.00    +0.185 A 
ATOM      6  N   UNL     1      -4.617   1.494  -0.841  0.00  0.00    -0.298 N 
BRANCH   5   7
ATOM      7  C   UNL     1      -5.134   3.412  -2.439  0.00  0.00    +0.130 A 
ATOM      8  C   UNL     1      -5.976   4.435  -2.921  0.00  0.00    +0.052 A 
ATOM      9  C   UNL     1      -5.343   5.042  -3.948  0.00  0.00    +0.108 A 
ATOM     10  N   UNL     1      -4.149   4.436  -4.120  0.00  0.00    -0.274 N 
ATOM     11  N   UNL     1      -4.032   3.421  -3.163  0.00  0.00    -0.168 NA
ATOM     12  C   UNL     1      -3.145   4.785  -5.129  0.00  0.00    +0.172 C 
ENDBRANCH   5   7
BRANCH   6  13
ATOM     13  C   UNL     1      -3.289   1.123  -1.336  0.00  0.00    +0.157 C 
BRANCH  13  14
ATOM     14  C   UNL     1      -2.223   1.924  -0.587  0.00  0.00    +0.138 C 
ATOM     15  C   UNL     1      -0.833   1.634  -1.185  0.00  0.00    +0.035 C 
ATOM     16  C   UNL     1      -0.013   1.086   0.008  0.00  0.00    +0.031 C 
ATOM     17  C   UNL     1      -0.810   1.621   1.224  0.00  0.00    +0.160 C 
ATOM     18  O   UNL     1      -2.186   1.524   0.793  0.00  0.00    -0.375 OA
ENDBRANCH  13  14
ENDBRANCH   6  13
ENDBRANCH   1   2
BRANCH   1  19
ATOM     19  C   UNL     1      -6.189  -0.607   2.282  0.00  0.00    +0.173 C 
BRANCH  19  21
ATOM     20  N   UNL     1      -6.876  -2.050   4.170  0.00  0.00    -0.279 N 
ATOM     21  C   UNL     1      -5.944  -1.737   3.248  0.00  0.00    +0.228 C 
ATOM     22  O   UNL     1      -4.907  -2.364   3.197  0.00  0.00    -0.275 OA
ATOM     23  H   UNL     1      -7.705  -1.548   4.211  0.00  0.00    +0.155 HD
BRANCH  20  28
ATOM     24  C   UNL     1      -7.482  -3.558   6.070  0.00  0.00    +0.091 A 
ATOM     25  C   UNL     1      -6.990  -4.667   6.853  0.00  0.00    -0.025 A 
ATOM     26  C   UNL     1      -5.774  -5.148   6.540  0.00  0.00    -0.008 A 
ATOM     27  S   UNL     1      -5.266  -4.124   5.175  0.00  0.00    -0.078 S 
ATOM     28  C   UNL     1      -6.650  -3.090   5.059  0.00  0.00    +0.086 A 
ATOM     29  C   UNL     1      -5.024  -6.285   7.185  0.00  0.00    +0.052 C 
ATOM     30  C   UNL     1      -7.804  -5.259   7.975  0.00  0.00    +0.045 C 
BRANCH  24  31
ATOM     31  C   UNL     1      -8.793  -2.958   6.326  0.00  0.00    +0.342 C 
ATOM     32  O   UNL     1      -9.779  -3.384   5.755  0.00  0.00    -0.245 OA
BRANCH  31  33
ATOM     33  O   UNL     1      -8.907  -1.933   7.195  0.00  0.00    -0.461 OA
BRANCH  33  35
ATOM     34  C   UNL     1     -10.167  -0.241   8.412  0.00  0.00    +0.048 C 
ATOM     35  C   UNL     1     -10.236  -1.387   7.401  0.00  0.00    +0.229 C 
ENDBRANCH  33  35
ENDBRANCH  31  33
ENDBRANCH  24  31
ENDBRANCH  20  28
ENDBRANCH  19  21
ENDBRANCH   1  19
TORSDOF 10
