REMARK  Name = ZINC16607730
REMARK  12 active torsions:
REMARK  status: ('A' for Active; 'I' for Inactive)
REMARK    1  A    between atoms: C_1  and  C_2
REMARK    2  A    between atoms: C_2  and  C_3
REMARK    3  A    between atoms: C_3  and  C_4
REMARK    4  A    between atoms: C_4  and  C_5
REMARK    5  A    between atoms: C_5  and  C_7
REMARK    6  A    between atoms: C_5  and  C_9
REMARK    7  A    between atoms: C_7  and  C_8
REMARK    8  A    between atoms: N_11  and  C_12
REMARK    9  A    between atoms: C_12  and  C_14
REMARK   10  A    between atoms: C_12  and  C_21
REMARK   11  A    between atoms: C_14  and  C_15
REMARK   12  A    between atoms: C_27  and  C_29
REMARK                            x       y       z     vdW  Elec       q    Type
REMARK                         _______ _______ _______ _____ _____    ______ ____
ROOT
ATOM      1  C   UNL     1      -3.532   1.090   1.624  0.00  0.00    +0.163 C 
ENDROOT
BRANCH   1   2
ATOM      2  C   UNL     1      -4.870   0.402   1.712  0.00  0.00    +0.239 C 
ATOM      3  O   UNL     1      -5.806   0.964   2.240  0.00  0.00    -0.273 OA
ATOM      4  N   UNL     1      -5.026  -0.836   1.203  0.00  0.00    -0.262 N 
ATOM      5  C   UNL     1      -6.260  -1.470   1.284  0.00  0.00    +0.188 A 
ATOM      6  N   UNL     1      -7.401  -1.050   1.815  0.00  0.00    -0.125 NA
ATOM      7  N   UNL     1      -8.444  -1.758   1.800  0.00  0.00    -0.140 NA
ATOM      8  C   UNL     1      -8.460  -2.971   1.261  0.00  0.00    +0.134 A 
ATOM      9  S   UNL     1      -6.762  -3.089   0.707  0.00  0.00    -0.030 S 
ATOM     10  H   UNL     1      -4.277  -1.285   0.781  0.00  0.00    +0.157 HD
BRANCH   8  11
ATOM     11  C   UNL     1      -9.565  -3.947   1.150  0.00  0.00    +0.009 A 
ATOM     12  C   UNL     1      -9.352  -5.179   0.530  0.00  0.00    +0.013 A 
ATOM     13  C   UNL     1     -10.384  -6.088   0.434  0.00  0.00    +0.039 A 
ATOM     14  C   UNL     1     -11.635  -5.776   0.944  0.00  0.00    +0.123 A 
ATOM     15  C   UNL     1     -11.854  -4.552   1.556  0.00  0.00    +0.039 A 
ATOM     16  C   UNL     1     -10.826  -3.638   1.661  0.00  0.00    +0.013 A 
ATOM     17  F   UNL     1     -12.645  -6.668   0.842  0.00  0.00    -0.205 F 
ENDBRANCH   8  11
ENDBRANCH   1   2
BRANCH   1  20
ATOM     18  C   UNL     1      -2.515   3.002   2.741  0.00  0.00    +0.217 C 
ATOM     19  O   UNL     1      -1.445   2.435   2.674  0.00  0.00    -0.275 OA
ATOM     20  N   UNL     1      -3.621   2.414   2.244  0.00  0.00    -0.303 N 
ATOM     21  H   UNL     1      -4.477   2.868   2.297  0.00  0.00    +0.149 HD
BRANCH  18  22
ATOM     22  C   UNL     1      -2.607   4.364   3.378  0.00  0.00    +0.075 C 
BRANCH  22  23
ATOM     23  C   UNL     1      -3.562   4.305   4.573  0.00  0.00    +0.009 C 
ATOM     24  C   UNL     1      -3.763   5.713   5.135  0.00  0.00    +0.004 C 
ENDBRANCH  22  23
BRANCH  22  25
ATOM     25  C   UNL     1      -1.220   4.799   3.855  0.00  0.00    +0.013 C 
BRANCH  25  26
ATOM     26  C   UNL     1      -0.315   5.035   2.644  0.00  0.00    +0.000 C 
BRANCH  26  28
ATOM     27  C   UNL     1       1.931   5.839   1.902  0.00  0.00    +0.004 C 
ATOM     28  C   UNL     1       1.026   5.604   3.113  0.00  0.00    -0.003 C 
ENDBRANCH  26  28
ENDBRANCH  25  26
ENDBRANCH  22  25
ENDBRANCH  18  22
ENDBRANCH   1  20
BRANCH   1  29
ATOM     29  C   UNL     1      -3.131   1.240   0.156  0.00  0.00    +0.067 C 
BRANCH  29  30
ATOM     30  C   UNL     1      -1.740   1.815   0.071  0.00  0.00    -0.045 A 
ATOM     31  C   UNL     1      -0.644   0.973   0.044  0.00  0.00    +0.004 A 
ATOM     32  C   UNL     1       0.631   1.500  -0.040  0.00  0.00    +0.000 A 
ATOM     33  C   UNL     1       0.810   2.869  -0.091  0.00  0.00    +0.000 A 
ATOM     34  C   UNL     1      -0.285   3.712  -0.058  0.00  0.00    +0.000 A 
ATOM     35  C   UNL     1      -1.560   3.185   0.025  0.00  0.00    +0.004 A 
ENDBRANCH  29  30
ENDBRANCH   1  29
TORSDOF 10
