REMARK  Name = ZINC13064982
REMARK  13 active torsions:
REMARK  status: ('A' for Active; 'I' for Inactive)
REMARK    1  A    between atoms: C_1  and  C_2
REMARK    2  A    between atoms: C_2  and  C_3
REMARK    3  A    between atoms: C_3  and  C_5
REMARK    4  A    between atoms: C_3  and  N_69
REMARK    5  A    between atoms: N_9  and  C_10
REMARK    6  A    between atoms: C_10  and  C_11
REMARK    7  A    between atoms: C_11  and  C_12
REMARK    8  A    between atoms: C_18  and  C_19
REMARK    9  A    between atoms: C_18  and  N_69
REMARK   10  A    between atoms: C_24  and  C_25
REMARK   11  A    between atoms: C_24  and  N_69
REMARK   12  A    between atoms: C_28  and  C_38
REMARK   13  A    between atoms: C_30  and  C_37
REMARK                            x       y       z     vdW  Elec       q    Type
REMARK                         _______ _______ _______ _____ _____    ______ ____
ROOT
ATOM      1  N   UNL     1       4.053   1.538   1.284  0.00  0.00    +0.394 N 
ATOM      2  H   UNL     1       3.835   1.322   2.264  0.00  0.00    -0.080 HD
ENDROOT
BRANCH   1   3
ATOM      3  C   UNL     1       3.538   0.449   0.427  0.00  0.00    +0.003 C 
BRANCH   3   4
ATOM      4  C   UNL     1       3.979   0.647  -1.001  0.00  0.00    +0.138 A 
ATOM      5  N   UNL     1       5.200   0.876  -1.418  0.00  0.00    -0.115 NA
ATOM      6  N   UNL     1       5.168   0.987  -2.701  0.00  0.00    -0.023 NA
ATOM      7  N   UNL     1       3.958   0.836  -3.113  0.00  0.00    -0.044 NA
ATOM      8  N   UNL     1       3.195   0.624  -2.095  0.00  0.00    -0.231 N 
BRANCH   8   9
ATOM      9  C   UNL     1       1.747   0.402  -2.123  0.00  0.00    +0.152 C 
BRANCH   9  10
ATOM     10  C   UNL     1       1.464  -1.096  -2.261  0.00  0.00    +0.058 C 
BRANCH  10  11
ATOM     11  C   UNL     1      -0.025  -1.325  -2.290  0.00  0.00    -0.046 A 
ATOM     12  C   UNL     1      -0.714  -1.545  -1.112  0.00  0.00    +0.004 A 
ATOM     13  C   UNL     1      -2.081  -1.750  -1.138  0.00  0.00    +0.000 A 
ATOM     14  C   UNL     1      -2.757  -1.746  -2.344  0.00  0.00    +0.000 A 
ATOM     15  C   UNL     1      -2.068  -1.532  -3.522  0.00  0.00    +0.000 A 
ATOM     16  C   UNL     1      -0.702  -1.321  -3.496  0.00  0.00    +0.004 A 
ENDBRANCH  10  11
ENDBRANCH   9  10
ENDBRANCH   8   9
ENDBRANCH   3   4
BRANCH   3  18
ATOM     17  C   UNL     1       3.525  -1.146   2.349  0.00  0.00    +0.002 C 
ATOM     18  C   UNL     1       4.077  -0.885   0.946  0.00  0.00    -0.011 C 
ENDBRANCH   3  18
ENDBRANCH   1   3
BRANCH   1  19
ATOM     19  C   UNL     1       3.407   2.817   0.918  0.00  0.00    -0.002 C 
BRANCH  19  20
ATOM     20  C   UNL     1       1.966   2.775   1.358  0.00  0.00    +0.089 A 
ATOM     21  C   UNL     1       1.489   3.225   2.533  0.00  0.00    +0.042 A 
ATOM     22  C   UNL     1       0.095   2.990   2.525  0.00  0.00    +0.041 A 
ATOM     23  C   UNL     1      -0.196   2.411   1.346  0.00  0.00    +0.195 A 
ATOM     24  O   UNL     1       0.940   2.289   0.641  0.00  0.00    -0.470 OA
ENDBRANCH  19  20
ENDBRANCH   1  19
BRANCH   1  25
ATOM     25  C   UNL     1       5.519   1.651   1.131  0.00  0.00    -0.036 C 
BRANCH  25  26
ATOM     26  C   UNL     1       6.060   2.483   2.265  0.00  0.00    +0.001 A 
ATOM     27  C   UNL     1       6.514   1.879   3.390  0.00  0.00    +0.017 A 
ATOM     28  C   UNL     1       7.034   2.716   4.473  0.00  0.00    +0.002 A 
ATOM     29  C   UNL     1       7.517   2.150   5.657  0.00  0.00    -0.041 A 
ATOM     30  C   UNL     1       7.996   2.959   6.648  0.00  0.00    +0.007 A 
ATOM     31  C   UNL     1       8.008   4.339   6.490  0.00  0.00    -0.048 A 
ATOM     32  C   UNL     1       7.537   4.918   5.332  0.00  0.00    +0.029 A 
ATOM     33  C   UNL     1       7.045   4.114   4.309  0.00  0.00    +0.050 A 
ATOM     34  N   UNL     1       6.569   4.667   3.139  0.00  0.00    -0.322 N 
ATOM     35  H   UNL     1       6.577   5.631   3.027  0.00  0.00    +0.169 HD
ATOM     36  C   UNL     1       6.098   3.889   2.148  0.00  0.00    +0.251 A 
ATOM     37  O   UNL     1       5.690   4.412   1.126  0.00  0.00    -0.268 OA
ATOM     38  C   UNL     1       8.541   5.211   7.597  0.00  0.00    +0.044 C 
ATOM     39  C   UNL     1       7.508   0.654   5.840  0.00  0.00    +0.044 C 
ENDBRANCH  25  26
ENDBRANCH   1  25
TORSDOF 10
