REMARK  Name = ZINC27697327
REMARK  9 active torsions:
REMARK  status: ('A' for Active; 'I' for Inactive)
REMARK    1  A    between atoms: C_4  and  C_7
REMARK    2  A    between atoms: C_7  and  C_9
REMARK    3  A    between atoms: C_7  and  S_30
REMARK    4  A    between atoms: N_17  and  C_18
REMARK    5  A    between atoms: C_18  and  C_19
REMARK    6  A    between atoms: C_19  and  C_21
REMARK    7  A    between atoms: C_19  and  O_29
REMARK    8  A    between atoms: C_21  and  N_22
REMARK    9  A    between atoms: S_30  and  C_31
REMARK                            x       y       z     vdW  Elec       q    Type
REMARK                         _______ _______ _______ _____ _____    ______ ____
ROOT
ATOM      1  C   UNL     1      -5.794   1.801  -0.203  0.00  0.00    +0.129 A 
ATOM      2  N   UNL     1      -6.320   0.961  -1.046  0.00  0.00    -0.231 NA
ATOM      3  C   UNL     1      -7.651   0.846  -0.805  0.00  0.00    +0.089 A 
ATOM      4  C   UNL     1      -8.677   0.101  -1.393  0.00  0.00    +0.030 A 
ATOM      5  C   UNL     1      -9.952   0.202  -0.915  0.00  0.00    +0.002 A 
ATOM      6  C   UNL     1     -10.243   1.038   0.153  0.00  0.00    +0.002 A 
ATOM      7  C   UNL     1      -9.248   1.783   0.750  0.00  0.00    +0.028 A 
ATOM      8  C   UNL     1      -7.946   1.693   0.277  0.00  0.00    +0.069 A 
ATOM      9  N   UNL     1      -6.749   2.279   0.639  0.00  0.00    -0.324 N 
ENDROOT
BRANCH   1  10
ATOM     10  C   UNL     1      -4.337   2.184  -0.163  0.00  0.00    +0.147 C 
BRANCH  10  14
ATOM     11  C   UNL     1      -3.226   3.959  -3.886  0.00  0.00    +0.000 A 
ATOM     12  C   UNL     1      -3.268   4.729  -2.739  0.00  0.00    +0.000 A 
ATOM     13  C   UNL     1      -3.627   4.155  -1.534  0.00  0.00    +0.005 A 
ATOM     14  C   UNL     1      -3.945   2.811  -1.476  0.00  0.00    -0.027 A 
ATOM     15  C   UNL     1      -3.898   2.039  -2.623  0.00  0.00    +0.005 A 
ATOM     16  C   UNL     1      -3.543   2.615  -3.828  0.00  0.00    +0.000 A 
ENDBRANCH  10  14
BRANCH  10  17
ATOM     17  S   UNL     1      -3.330   0.703   0.126  0.00  0.00    -0.109 S 
BRANCH  17  18
ATOM     18  C   UNL     1      -1.691   1.328   0.293  0.00  0.00    +0.009 A 
ATOM     19  C   UNL     1      -0.634   0.457   0.528  0.00  0.00    +0.015 A 
ATOM     20  C   UNL     1       0.650   0.950   0.654  0.00  0.00    +0.001 A 
ATOM     21  C   UNL     1       0.884   2.309   0.552  0.00  0.00    +0.000 A 
ATOM     22  C   UNL     1      -0.167   3.180   0.323  0.00  0.00    +0.001 A 
ATOM     23  C   UNL     1      -1.453   2.694   0.196  0.00  0.00    +0.015 A 
ENDBRANCH  17  18
ENDBRANCH  10  17
ENDBRANCH   1  10
BRANCH   9  24
ATOM     24  C   UNL     1      -6.546   3.240   1.726  0.00  0.00    +0.153 C 
BRANCH  24  25
ATOM     25  C   UNL     1      -6.855   4.651   1.223  0.00  0.00    +0.118 C 
BRANCH  25  26
ATOM     26  O   UNL     1      -5.919   5.010   0.205  0.00  0.00    -0.392 OA
ATOM     27  H   UNL     1      -5.983   5.995  -0.279  0.00  0.00    +0.210 HD
ENDBRANCH  25  26
BRANCH  25  28
ATOM     28  C   UNL     1      -6.748   5.641   2.385  0.00  0.00    -0.045 C 
BRANCH  28  29
ATOM     29  N   UNL     1      -7.161   6.976   1.931  0.00  0.00    +0.381 N 
ATOM     30  C   UNL     1      -6.280   7.462   0.844  0.00  0.00    -0.079 C 
ATOM     31  C   UNL     1      -6.487   8.919   0.533  0.00  0.00    -0.019 C 
ATOM     32  C   UNL     1      -5.468   9.743   1.349  0.00  0.00    -0.002 C 
ATOM     33  C   UNL     1      -5.875   9.900   2.741  0.00  0.00    -0.002 C 
ATOM     34  C   UNL     1      -5.997   8.545   3.469  0.00  0.00    -0.019 C 
ATOM     35  C   UNL     1      -7.300   7.906   3.074  0.00  0.00    -0.079 C 
ATOM     36  H   UNL     1      -8.164   6.906   1.485  0.00  0.00    -0.082 HD
ENDBRANCH  28  29
ENDBRANCH  25  28
ENDBRANCH  24  25
ENDBRANCH   9  24
TORSDOF 9
