REMARK  Name = ZINC01460151
REMARK  3 active torsions:
REMARK  status: ('A' for Active; 'I' for Inactive)
REMARK    1  A    between atoms: C_1  and  C_2
REMARK    2  A    between atoms: C_5  and  C_8
REMARK    3  A    between atoms: C_13  and  C_28
REMARK                            x       y       z     vdW  Elec       q    Type
REMARK                         _______ _______ _______ _____ _____    ______ ____
ROOT
ATOM      1  C   UNL     1       0.059  -4.275  -0.021  0.00  0.00    +0.032 C 
ATOM      2  C   UNL     1      -1.174  -4.809   0.711  0.00  0.00    +0.060 C 
ATOM      3  C   UNL     1      -1.123  -6.314   0.754  0.00  0.00    +0.020 C 
ATOM      4  C   UNL     1       0.054  -6.975   0.786  0.00  0.00    +0.041 C 
ATOM      5  C   UNL     1       0.080  -8.481   0.843  0.00  0.00    +0.173 C 
ATOM      6  N   UNL     1      -1.202  -9.050   0.450  0.00  0.00    -0.243 NA
ATOM      7  C   UNL     1      -2.293  -8.356   0.418  0.00  0.00    +0.188 C 
ATOM      8  N   UNL     1      -2.298  -7.021   0.755  0.00  0.00    -0.290 N 
ATOM      9  N   UNL     1      -3.472  -8.964   0.042  0.00  0.00    -0.241 N 
ATOM     10  C   UNL     1      -3.481 -10.302  -0.298  0.00  0.00    +0.295 A 
ATOM     11  N   UNL     1      -2.433 -11.083  -0.291  0.00  0.00    -0.195 NA
ATOM     12  C   UNL     1      -2.815 -12.330  -0.681  0.00  0.00    +0.111 A 
ATOM     13  C   UNL     1      -2.136 -13.537  -0.854  0.00  0.00    +0.031 A 
ATOM     14  C   UNL     1      -2.824 -14.655  -1.271  0.00  0.00    +0.002 A 
ATOM     15  C   UNL     1      -4.186 -14.588  -1.519  0.00  0.00    +0.004 A 
ATOM     16  C   UNL     1      -4.871 -13.401  -1.352  0.00  0.00    +0.048 A 
ATOM     17  C   UNL     1      -4.194 -12.267  -0.933  0.00  0.00    +0.157 A 
ATOM     18  O   UNL     1      -4.570 -10.993  -0.678  0.00  0.00    -0.424 OA
ATOM     19  C   UNL     1       1.275  -6.280   0.766  0.00  0.00    +0.164 C 
ATOM     20  O   UNL     1       2.317  -6.904   0.800  0.00  0.00    -0.292 OA
ATOM     21  C   UNL     1       1.315  -4.777   0.698  0.00  0.00    +0.088 C 
ATOM     22  H   UNL     1      -3.129  -6.582   0.993  0.00  0.00    +0.154 HD
ATOM     23  H   UNL     1      -4.295  -8.451   0.016  0.00  0.00    +0.159 HD
ENDROOT
BRANCH   1  28
ATOM     24  C   UNL     1      -0.018   1.503   0.010  0.00  0.00    +0.044 C 
ATOM     25  C   UNL     1       0.002  -0.004   0.002  0.00  0.00    -0.050 A 
ATOM     26  C   UNL     1       0.006  -0.689  -1.199  0.00  0.00    +0.003 A 
ATOM     27  C   UNL     1       0.025  -2.071  -1.206  0.00  0.00    +0.004 A 
ATOM     28  C   UNL     1       0.040  -2.768  -0.013  0.00  0.00    -0.043 A 
ATOM     29  C   UNL     1       0.037  -2.084   1.188  0.00  0.00    +0.004 A 
ATOM     30  C   UNL     1       0.023  -0.702   1.195  0.00  0.00    +0.003 A 
ENDBRANCH   1  28
BRANCH   5  31
ATOM     31  C   UNL     1       0.399  -8.916   2.250  0.00  0.00    -0.019 A 
ATOM     32  C   UNL     1      -0.595  -8.931   3.211  0.00  0.00    +0.006 A 
ATOM     33  C   UNL     1      -0.302  -9.330   4.502  0.00  0.00    +0.000 A 
ATOM     34  C   UNL     1       0.985  -9.714   4.832  0.00  0.00    +0.000 A 
ATOM     35  C   UNL     1       1.978  -9.699   3.871  0.00  0.00    +0.000 A 
ATOM     36  C   UNL     1       1.684  -9.304   2.579  0.00  0.00    +0.006 A 
ENDBRANCH   5  31
TORSDOF 2
