REMARK  Name = ZINC22451552
REMARK  3 active torsions:
REMARK  status: ('A' for Active; 'I' for Inactive)
REMARK    1  A    between atoms: C_1  and  C_2
REMARK    2  A    between atoms: C_5  and  C_22
REMARK    3  A    between atoms: C_16  and  C_18
REMARK                            x       y       z     vdW  Elec       q    Type
REMARK                         _______ _______ _______ _____ _____    ______ ____
ROOT
ATOM      1  C   UNL     1      -0.343  -4.460  -0.436  0.00  0.00    +0.009 C 
ATOM      2  C   UNL     1       0.270  -4.094   0.917  0.00  0.00    +0.004 C 
ATOM      3  C   UNL     1       1.679  -4.685   1.017  0.00  0.00    +0.009 C 
ATOM      4  C   UNL     1       2.559  -4.071  -0.075  0.00  0.00    +0.004 C 
ATOM      5  C   UNL     1       2.573  -2.549   0.083  0.00  0.00    +0.111 C 
ATOM      6  N   UNL     1       1.202  -2.032  -0.021  0.00  0.00    -0.301 N 
ATOM      7  C   UNL     1       0.350  -2.571   1.046  0.00  0.00    +0.111 C 
ATOM      8  C   UNL     1       1.192  -0.663  -0.013  0.00  0.00    +0.199 A 
ATOM      9  N   UNL     1       0.002  -0.004   0.002  0.00  0.00    -0.295 N 
ATOM     10  H   UNL     1      -0.941  -0.571   0.008  0.00  0.00    +0.172 HD
ATOM     11  C   UNL     1      -0.016   1.346   0.009  0.00  0.00    +0.253 A 
ATOM     12  O   UNL     1      -1.074   1.953   0.018  0.00  0.00    -0.268 OA
ATOM     13  C   UNL     1       1.208   2.038   0.002  0.00  0.00    +0.102 A 
ATOM     14  C   UNL     1       2.370   1.324  -0.013  0.00  0.00    +0.152 A 
ATOM     15  N   UNL     1       2.335  -0.007  -0.020  0.00  0.00    -0.212 NA
ATOM     16  C   UNL     1       3.985  -4.611   0.055  0.00  0.00    +0.009 C 
ENDROOT
BRANCH  14  17
ATOM     17  C   UNL     1       3.695   2.042  -0.022  0.00  0.00    +0.434 C 
ATOM     18  F   UNL     1       3.476   3.423  -0.012  0.00  0.00    -0.164 F 
ATOM     19  F   UNL     1       4.429   1.678   1.112  0.00  0.00    -0.164 F 
ATOM     20  F   UNL     1       4.408   1.690  -1.173  0.00  0.00    -0.164 F 
ENDBRANCH  14  17
TORSDOF 1
