REMARK  Name = ZINC01467374
REMARK  5 active torsions:
REMARK  status: ('A' for Active; 'I' for Inactive)
REMARK    1  A    between atoms: C_1  and  C_2
REMARK    2  A    between atoms: C_3  and  C_23
REMARK    3  A    between atoms: C_4  and  C_17
REMARK    4  A    between atoms: C_9  and  C_11
REMARK    5  A    between atoms: N_25  and  C_26
REMARK                            x       y       z     vdW  Elec       q    Type
REMARK                         _______ _______ _______ _____ _____    ______ ____
ROOT
ATOM      1  C   UNL     1      -0.018   1.502   0.016  0.00  0.00    +0.061 C 
ATOM      2  C   UNL     1       0.002  -0.004  -0.004  0.00  0.00    +0.018 C 
ATOM      3  C   UNL     1      -1.163  -0.668  -0.004  0.00  0.00    +0.060 C 
ATOM      4  C   UNL     1      -1.254  -2.170  -0.035  0.00  0.00    +0.177 C 
ATOM      5  N   UNL     1       0.064  -2.743   0.229  0.00  0.00    -0.220 N 
ATOM      6  C   UNL     1       1.212  -2.018   0.225  0.00  0.00    +0.219 A 
ATOM      7  N   UNL     1       2.203  -2.823   0.487  0.00  0.00    -0.190 NA
ATOM      8  C   UNL     1       1.733  -4.070   0.669  0.00  0.00    +0.218 A 
ATOM      9  N   UNL     1       0.421  -4.058   0.519  0.00  0.00    -0.144 NA
ATOM     10  N   UNL     1       1.213  -0.651  -0.027  0.00  0.00    -0.287 N 
ATOM     11  H   UNL     1       2.037  -0.173  -0.210  0.00  0.00    +0.155 HD
ENDROOT
BRANCH   4  12
ATOM     12  C   UNL     1      -1.733  -2.617  -1.392  0.00  0.00    -0.018 A 
ATOM     13  C   UNL     1      -0.998  -2.308  -2.521  0.00  0.00    +0.006 A 
ATOM     14  C   UNL     1      -1.437  -2.717  -3.766  0.00  0.00    +0.000 A 
ATOM     15  C   UNL     1      -2.612  -3.436  -3.881  0.00  0.00    +0.000 A 
ATOM     16  C   UNL     1      -3.348  -3.746  -2.752  0.00  0.00    +0.000 A 
ATOM     17  C   UNL     1      -2.906  -3.340  -1.507  0.00  0.00    +0.006 A 
ENDBRANCH   4  12
BRANCH   8  18
ATOM     18  C   UNL     1       2.551  -5.260   0.986  0.00  0.00    +0.173 A 
ATOM     19  C   UNL     1       3.901  -5.279   1.148  0.00  0.00    +0.053 A 
ATOM     20  C   UNL     1       4.255  -6.612   1.437  0.00  0.00    +0.042 A 
ATOM     21  C   UNL     1       3.117  -7.333   1.437  0.00  0.00    +0.196 A 
ATOM     22  O   UNL     1       2.088  -6.511   1.170  0.00  0.00    -0.460 OA
ENDBRANCH   8  18
BRANCH   3  23
ATOM     23  C   UNL     1      -2.364   0.079   0.028  0.00  0.00    +0.248 C 
ATOM     24  O   UNL     1      -2.324   1.296   0.054  0.00  0.00    -0.270 OA
ATOM     25  N   UNL     1      -3.553  -0.556   0.029  0.00  0.00    -0.282 N 
ATOM     26  H   UNL     1      -3.587  -1.521  -0.059  0.00  0.00    +0.155 HD
BRANCH  25  27
ATOM     27  C   UNL     1      -4.737   0.177   0.156  0.00  0.00    +0.034 A 
ATOM     28  C   UNL     1      -4.842   1.436  -0.421  0.00  0.00    +0.023 A 
ATOM     29  C   UNL     1      -6.013   2.157  -0.294  0.00  0.00    +0.002 A 
ATOM     30  C   UNL     1      -7.080   1.627   0.408  0.00  0.00    +0.000 A 
ATOM     31  C   UNL     1      -6.979   0.375   0.985  0.00  0.00    +0.002 A 
ATOM     32  C   UNL     1      -5.813  -0.354   0.856  0.00  0.00    +0.023 A 
ENDBRANCH  25  27
ENDBRANCH   3  23
TORSDOF 4
