REMARK  Name = ZINC64502515
REMARK  8 active torsions:
REMARK  status: ('A' for Active; 'I' for Inactive)
REMARK    1  A    between atoms: C_1  and  C_2
REMARK    2  A    between atoms: C_8  and  C_11
REMARK    3  A    between atoms: C_11  and  C_12
REMARK    4  A    between atoms: C_12  and  N_13
REMARK    5  A    between atoms: C_14  and  C_16
REMARK    6  A    between atoms: C_20  and  N_22
REMARK    7  A    between atoms: C_23  and  C_25
REMARK    8  A    between atoms: C_29  and  C_32
REMARK                            x       y       z     vdW  Elec       q    Type
REMARK                         _______ _______ _______ _____ _____    ______ ____
ROOT
ATOM      1  C   UNL     1      -2.553  -2.159   7.730  0.00  0.00    +0.038 A 
ATOM      2  C   UNL     1      -1.337  -2.086   8.413  0.00  0.00    +0.013 A 
ATOM      3  C   UNL     1      -1.323  -2.022   9.791  0.00  0.00    +0.003 A 
ATOM      4  C   UNL     1      -2.509  -2.030  10.501  0.00  0.00    +0.023 A 
ATOM      5  C   UNL     1      -3.724  -2.102   9.831  0.00  0.00    +0.034 A 
ATOM      6  C   UNL     1      -3.750  -2.160   8.446  0.00  0.00    +0.036 A 
ENDROOT
BRANCH   1   8
ATOM      7  N   UNL     1      -1.414  -2.225   5.564  0.00  0.00    -0.311 N 
ATOM      8  C   UNL     1      -2.572  -2.227   6.253  0.00  0.00    +0.244 C 
ATOM      9  O   UNL     1      -3.632  -2.286   5.661  0.00  0.00    -0.270 OA
ATOM     10  H   UNL     1      -0.568  -2.179   6.037  0.00  0.00    +0.149 HD
BRANCH   7  11
ATOM     11  C   UNL     1      -1.432  -2.293   4.101  0.00  0.00    +0.109 C 
BRANCH  11  12
ATOM     12  C   UNL     1       0.003  -2.276   3.571  0.00  0.00    +0.052 C 
BRANCH  12  20
ATOM     13  C   UNL     1       0.247   2.445   0.514  0.00  0.00    +0.044 C 
ATOM     14  C   UNL     1       0.159   0.954   0.316  0.00  0.00    -0.050 A 
ATOM     15  C   UNL     1       0.115   0.440  -0.988  0.00  0.00    +0.005 A 
ATOM     16  C   UNL     1       0.035  -0.882  -1.249  0.00  0.00    +0.026 A 
ATOM     17  C   UNL     1      -0.008  -1.823  -0.184  0.00  0.00    +0.043 A 
ATOM     18  N   UNL     1      -0.085  -3.132  -0.178  0.00  0.00    -0.380 N 
ATOM     19  C   UNL     1      -0.098  -3.593   1.215  0.00  0.00    +0.144 C 
ATOM     20  C   UNL     1      -0.016  -2.346   2.066  0.00  0.00    -0.040 C 
ATOM     21  C   UNL     1       0.036  -1.306   1.203  0.00  0.00    -0.001 A 
ATOM     22  C   UNL     1       0.129   0.146   1.399  0.00  0.00    +0.013 A 
ATOM     23  H   UNL     1      -0.127  -3.700  -0.963  0.00  0.00    +0.160 HD
ENDBRANCH  12  20
ENDBRANCH  11  12
ENDBRANCH   7  11
ENDBRANCH   1   8
BRANCH   5  24
ATOM     24  N   UNL     1      -4.923  -2.109  10.554  0.00  0.00    -0.283 N 
ATOM     25  C   UNL     1      -5.981  -2.807  10.097  0.00  0.00    +0.254 C 
ATOM     26  O   UNL     1      -5.868  -3.505   9.111  0.00  0.00    -0.272 OA
ATOM     27  H   UNL     1      -4.991  -1.612  11.384  0.00  0.00    +0.155 HD
BRANCH  25  28
ATOM     28  C   UNL     1      -7.306  -2.720  10.810  0.00  0.00    +0.272 C 
ATOM     29  N   UNL     1      -7.295  -3.505  12.066  0.00  0.00    -0.167 NA
ATOM     30  N   UNL     1      -8.196  -4.278  12.322  0.00  0.00    -0.176 NA
ATOM     31  C   UNL     1      -9.329  -4.456  11.386  0.00  0.00    +0.190 C 
ATOM     32  S   UNL     1      -8.628  -3.626   9.888  0.00  0.00    -0.095 S 
BRANCH  31  33
ATOM     33  C   UNL     1      -9.608  -5.938  11.124  0.00  0.00    +0.026 C 
ATOM     34  C   UNL     1     -11.053  -6.420  11.269  0.00  0.00    +0.007 C 
ATOM     35  C   UNL     1     -10.009  -6.803  12.320  0.00  0.00    +0.007 C 
ENDBRANCH  31  33
ENDBRANCH  25  28
ENDBRANCH   5  24
TORSDOF 7
