REMARK  Name = ZINC01048894
REMARK  6 active torsions:
REMARK  status: ('A' for Active; 'I' for Inactive)
REMARK    1  A    between atoms: C_1  and  C_2
REMARK    2  A    between atoms: C_7  and  C_10
REMARK    3  A    between atoms: N_13  and  S_14
REMARK    4  A    between atoms: S_14  and  C_17
REMARK    5  A    between atoms: C_19  and  C_27
REMARK    6  A    between atoms: C_21  and  C_23
REMARK                            x       y       z     vdW  Elec       q    Type
REMARK                         _______ _______ _______ _____ _____    ______ ____
ROOT
ATOM      1  S   UNL     1       2.957   2.661   0.491  0.00  0.00    +0.074 S 
ATOM      2  O   UNL     1       2.671   4.037   0.698  0.00  0.00    -0.150 OA
ATOM      3  O   UNL     1       3.595   1.859   1.476  0.00  0.00    -0.150 OA
ENDROOT
BRANCH   1  14
ATOM      4  C   UNL     1       6.988   4.417  -2.469  0.00  0.00    +0.039 C 
ATOM      5  C   UNL     1       6.732   3.376  -3.560  0.00  0.00    +0.133 C 
ATOM      6  C   UNL     1       5.582   2.458  -3.132  0.00  0.00    +0.139 C 
ATOM      7  N   UNL     1       4.341   3.248  -3.111  0.00  0.00    -0.299 N 
ATOM      8  C   UNL     1       4.008   4.047  -4.301  0.00  0.00    +0.139 C 
ATOM      9  C   UNL     1       5.239   4.892  -4.670  0.00  0.00    +0.133 C 
ATOM     10  O   UNL     1       6.379   4.037  -4.777  0.00  0.00    -0.371 OA
ATOM     11  C   UNL     1       4.995   5.589  -6.010  0.00  0.00    +0.039 C 
ATOM     12  C   UNL     1       3.513   3.237  -2.013  0.00  0.00    +0.174 C 
ATOM     13  H   UNL     1       1.976   4.290  -2.835  0.00  0.00    +0.158 HD
ATOM     14  N   UNL     1       3.895   2.572  -0.871  0.00  0.00    -0.189 N 
ATOM     15  H   UNL     1       4.713   2.052  -0.864  0.00  0.00    +0.176 HD
ATOM     16  N   UNL     1       2.339   3.851  -1.989  0.00  0.00    -0.374 N 
ATOM     17  H   UNL     1       1.795   3.886  -1.119  0.00  0.00    +0.158 HD
ENDBRANCH   1  14
BRANCH   1  18
ATOM     18  C   UNL     1       1.423   1.877   0.119  0.00  0.00    +0.110 A 
ATOM     19  C   UNL     1       0.377   2.617  -0.398  0.00  0.00    +0.041 A 
ATOM     20  C   UNL     1      -0.826   2.003  -0.691  0.00  0.00    +0.057 A 
ATOM     21  C   UNL     1      -0.984   0.648  -0.463  0.00  0.00    +0.024 A 
ATOM     22  C   UNL     1       0.062  -0.091   0.056  0.00  0.00    +0.057 A 
ATOM     23  C   UNL     1       1.266   0.523   0.347  0.00  0.00    +0.041 A 
BRANCH  22  24
ATOM     24  C   UNL     1      -0.109  -1.568   0.304  0.00  0.00    +0.417 C 
ATOM     25  F   UNL     1      -1.401  -1.956  -0.066  0.00  0.00    -0.166 F 
ATOM     26  F   UNL     1       0.827  -2.280  -0.454  0.00  0.00    -0.166 F 
ATOM     27  F   UNL     1       0.088  -1.839   1.663  0.00  0.00    -0.166 F 
ENDBRANCH  22  24
BRANCH  20  28
ATOM     28  C   UNL     1      -1.964   2.808  -1.263  0.00  0.00    +0.417 C 
ATOM     29  F   UNL     1      -3.065   1.971  -1.479  0.00  0.00    -0.166 F 
ATOM     30  F   UNL     1      -2.317   3.820  -0.364  0.00  0.00    -0.166 F 
ATOM     31  F   UNL     1      -1.568   3.379  -2.477  0.00  0.00    -0.166 F 
ENDBRANCH  20  28
ENDBRANCH   1  18
TORSDOF 4
