REMARK  Name = ZINC06600840
REMARK  6 active torsions:
REMARK  status: ('A' for Active; 'I' for Inactive)
REMARK    1  A    between atoms: C_1  and  C_2
REMARK    2  A    between atoms: C_2  and  O_3
REMARK    3  A    between atoms: O_3  and  C_4
REMARK    4  A    between atoms: C_7  and  C_10
REMARK    5  A    between atoms: C_13  and  C_22
REMARK    6  A    between atoms: C_18  and  C_21
REMARK                            x       y       z     vdW  Elec       q    Type
REMARK                         _______ _______ _______ _____ _____    ______ ____
ROOT
ATOM      1  C   UNL     1      -2.503   1.004   0.020  0.00  0.00    +0.098 C 
ATOM      2  N   UNL     1      -2.455  -0.283  -0.086  0.00  0.00    -0.180 NA
ATOM      3  N   UNL     1      -3.620  -1.055   0.011  0.00  0.00    -0.219 N 
ATOM      4  C   UNL     1      -4.347  -0.979   1.189  0.00  0.00    +0.153 C 
ATOM      5  N   UNL     1      -4.863   0.143   1.603  0.00  0.00    -0.229 NA
ATOM      6  C   UNL     1      -4.859   1.311   0.899  0.00  0.00    +0.075 A 
ATOM      7  C   UNL     1      -3.769   1.761   0.149  0.00  0.00    +0.028 A 
ATOM      8  C   UNL     1      -3.861   2.978  -0.533  0.00  0.00    +0.015 A 
ATOM      9  C   UNL     1      -5.015   3.735  -0.468  0.00  0.00    -0.050 A 
ATOM     10  C   UNL     1      -6.094   3.290   0.272  0.00  0.00    +0.005 A 
ATOM     11  C   UNL     1      -6.022   2.090   0.950  0.00  0.00    +0.029 A 
ATOM     12  C   UNL     1      -5.098   5.047  -1.205  0.00  0.00    +0.044 C 
ATOM     13  H   UNL     1      -3.909  -1.623  -0.721  0.00  0.00    +0.176 HD
ENDROOT
BRANCH   1  17
ATOM     14  C   UNL     1       1.152   3.173   0.008  0.00  0.00    +0.121 A 
ATOM     15  C   UNL     1       1.093   1.913  -0.572  0.00  0.00    +0.046 A 
ATOM     16  C   UNL     1      -0.090   1.204  -0.567  0.00  0.00    +0.013 A 
ATOM     17  C   UNL     1      -1.230   1.758   0.017  0.00  0.00    +0.003 A 
ATOM     18  C   UNL     1      -1.165   3.023   0.604  0.00  0.00    +0.013 A 
ATOM     19  C   UNL     1       0.021   3.725   0.595  0.00  0.00    +0.046 A 
BRANCH  14  20
ATOM     20  O   UNL     1       2.319   3.868   0.001  0.00  0.00    -0.492 OA
BRANCH  20  22
ATOM     21  C   UNL     1       3.703   5.783   0.509  0.00  0.00    +0.048 C 
ATOM     22  C   UNL     1       2.310   5.159   0.614  0.00  0.00    +0.225 C 
ENDBRANCH  20  22
ENDBRANCH  14  20
ENDBRANCH   1  17
BRANCH   4  23
ATOM     23  C   UNL     1      -4.540  -2.190   1.989  0.00  0.00    +0.053 A 
ATOM     24  C   UNL     1      -4.087  -3.479   1.746  0.00  0.00    +0.019 A 
ATOM     25  C   UNL     1      -4.414  -4.440   2.671  0.00  0.00    +0.008 A 
ATOM     26  C   UNL     1      -5.151  -4.091   3.758  0.00  0.00    +0.046 A 
ATOM     27  S   UNL     1      -5.411  -2.392   3.533  0.00  0.00    -0.094 S 
ENDBRANCH   4  23
TORSDOF 4
