REMARK  Name = ZINC44254587
REMARK  9 active torsions:
REMARK  status: ('A' for Active; 'I' for Inactive)
REMARK    1  A    between atoms: C_1  and  C_2
REMARK    2  A    between atoms: C_5  and  C_19
REMARK    3  A    between atoms: C_6  and  C_7
REMARK    4  A    between atoms: C_10  and  C_12
REMARK    5  A    between atoms: C_12  and  C_14
REMARK    6  A    between atoms: C_12  and  N_18
REMARK    7  A    between atoms: C_14  and  C_15
REMARK    8  A    between atoms: C_19  and  O_21
REMARK    9  A    between atoms: O_21  and  C_22
REMARK                            x       y       z     vdW  Elec       q    Type
REMARK                         _______ _______ _______ _____ _____    ______ ____
ROOT
ATOM      1  C   UNL     1       0.026  -0.050   2.510  0.00  0.00    +0.137 A 
ATOM      2  C   UNL     1      -0.962  -0.125   3.446  0.00  0.00    +0.050 A 
ATOM      3  C   UNL     1      -0.543   0.656   4.540  0.00  0.00    +0.043 A 
ATOM      4  C   UNL     1       0.666   1.164   4.224  0.00  0.00    +0.092 A 
ATOM      5  O   UNL     1       1.008   0.731   3.000  0.00  0.00    -0.461 OA
ENDROOT
BRANCH   1  11
ATOM      6  C   UNL     1      -0.018   1.503   0.010  0.00  0.00    +0.045 C 
ATOM      7  C   UNL     1       0.002  -0.004   0.002  0.00  0.00    -0.032 A 
ATOM      8  C   UNL     1       0.006  -0.682  -1.166  0.00  0.00    +0.050 A 
ATOM      9  S   UNL     1       0.031  -2.300  -0.717  0.00  0.00    -0.089 S 
ATOM     10  C   UNL     1       0.036  -2.110   1.055  0.00  0.00    +0.107 A 
ATOM     11  C   UNL     1       0.023  -0.714   1.194  0.00  0.00    +0.041 A 
BRANCH  10  12
ATOM     12  C   UNL     1       0.055  -3.107   2.059  0.00  0.00    +0.346 C 
ATOM     13  O   UNL     1       0.056  -2.787   3.234  0.00  0.00    -0.244 OA
BRANCH  12  14
ATOM     14  O   UNL     1       0.072  -4.412   1.715  0.00  0.00    -0.464 OA
ATOM     15  C   UNL     1       0.091  -5.364   2.780  0.00  0.00    +0.280 C 
ENDBRANCH  12  14
ENDBRANCH  10  12
ENDBRANCH   1  11
BRANCH   4  16
ATOM     16  C   UNL     1       1.497   2.063   5.102  0.00  0.00    +0.001 C 
BRANCH  16  17
ATOM     17  N   UNL     1       2.124   3.107   4.280  0.00  0.00    +0.385 N 
ATOM     18  H   UNL     1       2.715   2.677   3.584  0.00  0.00    -0.089 HD
ATOM     19  H   UNL     1       1.408   3.651   3.823  0.00  0.00    -0.089 HD
ATOM     20  H   UNL     1       2.681   3.709   4.867  0.00  0.00    -0.089 HD
ENDBRANCH  16  17
BRANCH  16  21
ATOM     21  C   UNL     1       2.583   1.238   5.795  0.00  0.00    +0.087 C 
BRANCH  21  22
ATOM     22  C   UNL     1       3.336   2.112   6.765  0.00  0.00    +0.209 C 
ATOM     23  O   UNL     1       3.033   3.280   6.890  0.00  0.00    -0.276 OA
ATOM     24  N   UNL     1       4.345   1.595   7.493  0.00  0.00    -0.329 N 
ATOM     25  H   UNL     1       4.587   0.662   7.393  0.00  0.00    +0.145 HD
ATOM     26  H   UNL     1       4.830   2.158   8.118  0.00  0.00    +0.145 HD
ENDBRANCH  21  22
ENDBRANCH  16  21
ENDBRANCH   4  16
TORSDOF 7
