REMARK  Name = ZINC22804268
REMARK  7 active torsions:
REMARK  status: ('A' for Active; 'I' for Inactive)
REMARK    1  A    between atoms: C_1  and  C_2
REMARK    2  A    between atoms: C_2  and  C_4
REMARK    3  A    between atoms: C_2  and  N_19
REMARK    4  A    between atoms: N_6  and  C_7
REMARK    5  A    between atoms: C_12  and  C_13
REMARK    6  A    between atoms: N_22  and  C_25
REMARK    7  A    between atoms: C_25  and  C_26
REMARK                            x       y       z     vdW  Elec       q    Type
REMARK                         _______ _______ _______ _____ _____    ______ ____
ROOT
ATOM      1  C   UNL     1       2.835   3.882   0.115  0.00  0.00    -0.004 C 
ATOM      2  C   UNL     1       1.367   3.496  -0.076  0.00  0.00    +0.017 C 
ENDROOT
BRANCH   2   3
ATOM      3  N   UNL     1       1.242   2.032  -0.082  0.00  0.00    +0.389 N 
ATOM      4  C   UNL     1      -0.158   1.623  -0.258  0.00  0.00    -0.062 C 
ATOM      5  C   UNL     1      -0.235   0.097  -0.338  0.00  0.00    +0.066 C 
ATOM      6  N   UNL     1       0.330  -0.484   0.888  0.00  0.00    -0.302 NA
ATOM      7  C   UNL     1       1.730  -0.075   1.064  0.00  0.00    +0.066 C 
ATOM      8  C   UNL     1       1.807   1.451   1.144  0.00  0.00    -0.062 C 
ATOM      9  H   UNL     1       1.819   1.649  -0.937  0.00  0.00    -0.081 HD
BRANCH   6  10
ATOM     10  C   UNL     1       0.205  -1.948   0.882  0.00  0.00    +0.119 C 
BRANCH  10  11
ATOM     11  C   UNL     1       1.005  -2.524   2.023  0.00  0.00    -0.033 A 
ATOM     12  C   UNL     1       2.329  -2.874   1.835  0.00  0.00    +0.008 A 
ATOM     13  C   UNL     1       3.066  -3.401   2.875  0.00  0.00    +0.046 A 
ATOM     14  C   UNL     1       2.477  -3.596   4.122  0.00  0.00    +0.124 A 
ATOM     15  C   UNL     1       1.146  -3.240   4.299  0.00  0.00    -0.002 A 
ATOM     16  C   UNL     1       0.414  -2.711   3.260  0.00  0.00    +0.012 A 
ATOM     17  C   UNL     1       0.792  -3.547   5.742  0.00  0.00    +0.080 C 
ATOM     18  C   UNL     1       2.189  -3.721   6.383  0.00  0.00    +0.234 C 
ATOM     19  O   UNL     1       3.006  -4.110   5.267  0.00  0.00    -0.491 OA
ENDBRANCH  10  11
ENDBRANCH   6  10
ENDBRANCH   2   3
BRANCH   2  20
ATOM     20  C   UNL     1       0.547   4.066   1.052  0.00  0.00    +0.203 C 
ATOM     21  O   UNL     1       0.057   3.326   1.879  0.00  0.00    -0.277 OA
ATOM     22  N   UNL     1       0.357   5.397   1.143  0.00  0.00    -0.286 N 
ATOM     23  H   UNL     1       0.730   6.061   0.348  0.00  0.00    +0.155 HD
BRANCH  22  24
ATOM     24  C   UNL     1      -0.312   5.934   2.245  0.00  0.00    +0.041 A 
ATOM     25  C   UNL     1      -1.343   5.228   2.847  0.00  0.00    +0.024 A 
ATOM     26  C   UNL     1      -2.000   5.758   3.940  0.00  0.00    +0.002 A 
ATOM     27  C   UNL     1      -1.641   7.000   4.435  0.00  0.00    +0.001 A 
ATOM     28  C   UNL     1      -0.621   7.717   3.844  0.00  0.00    +0.010 A 
ATOM     29  C   UNL     1       0.052   7.190   2.744  0.00  0.00    +0.003 A 
BRANCH  29  30
ATOM     30  C   UNL     1       1.149   7.957   2.105  0.00  0.00    -0.016 A 
ATOM     31  C   UNL     1       2.378   7.347   1.861  0.00  0.00    +0.008 A 
ATOM     32  C   UNL     1       3.394   8.063   1.262  0.00  0.00    +0.001 A 
ATOM     33  C   UNL     1       3.198   9.387   0.913  0.00  0.00    +0.000 A 
ATOM     34  C   UNL     1       1.981   9.999   1.157  0.00  0.00    +0.001 A 
ATOM     35  C   UNL     1       0.957   9.291   1.751  0.00  0.00    +0.008 A 
ENDBRANCH  29  30
ENDBRANCH  22  24
ENDBRANCH   2  20
TORSDOF 6
