REMARK  Name = ZINC04571678
REMARK  6 active torsions:
REMARK  status: ('A' for Active; 'I' for Inactive)
REMARK    1  A    between atoms: C_1  and  C_2
REMARK    2  A    between atoms: C_11  and  O_26
REMARK    3  A    between atoms: C_13  and  C_16
REMARK    4  A    between atoms: C_18  and  O_24
REMARK    5  A    between atoms: C_19  and  O_23
REMARK    6  A    between atoms: O_24  and  C_25
REMARK                            x       y       z     vdW  Elec       q    Type
REMARK                         _______ _______ _______ _____ _____    ______ ____
ROOT
ATOM      1  C   UNL     1      -0.019   1.526   0.010  0.00  0.00    +0.008 C 
ATOM      2  C   UNL     1       0.002  -0.004   0.002  0.00  0.00    -0.009 C 
ATOM      3  C   UNL     1      -1.434  -0.537   0.019  0.00  0.00    +0.008 C 
ATOM      4  C   UNL     1      -1.433  -2.045  -0.237  0.00  0.00    +0.037 C 
ATOM      5  C   UNL     1      -0.467  -2.706   0.737  0.00  0.00    -0.023 A 
ATOM      6  C   UNL     1       0.483  -1.985   1.377  0.00  0.00    -0.004 A 
ATOM      7  S   UNL     1       1.344  -3.164   2.381  0.00  0.00    -0.078 S 
ATOM      8  C   UNL     1       0.503  -4.535   1.978  0.00  0.00    +0.080 A 
ATOM      9  C   UNL     1      -0.471  -4.120   1.062  0.00  0.00    +0.068 A 
ATOM     10  C   UNL     1      -1.397  -5.154   0.532  0.00  0.00    +0.220 C 
ATOM     11  N   UNL     1      -1.097  -6.406   0.750  0.00  0.00    -0.223 NA
ATOM     12  C   UNL     1       0.114  -6.860   1.422  0.00  0.00    +0.224 C 
ATOM     13  N   UNL     1       0.623  -5.850   2.368  0.00  0.00    -0.313 N 
ATOM     14  C   UNL     1       0.739  -0.515   1.249  0.00  0.00    +0.046 C 
ATOM     15  H   UNL     1       1.020  -6.098   3.217  0.00  0.00    +0.149 HD
ENDROOT
BRANCH  12  16
ATOM     16  C   UNL     1       1.174  -7.140   0.388  0.00  0.00    -0.000 A 
ATOM     17  C   UNL     1       0.808  -7.555  -0.880  0.00  0.00    +0.056 A 
ATOM     18  C   UNL     1       1.781  -7.814  -1.832  0.00  0.00    +0.163 A 
ATOM     19  C   UNL     1       3.125  -7.656  -1.510  0.00  0.00    +0.177 A 
ATOM     20  C   UNL     1       3.486  -7.239  -0.238  0.00  0.00    +0.086 A 
ATOM     21  C   UNL     1       2.509  -6.977   0.707  0.00  0.00    +0.031 A 
ATOM     22 CL   UNL     1       5.162  -7.041   0.168  0.00  0.00    -0.080 Cl
BRANCH  19  23
ATOM     23  O   UNL     1       4.083  -7.909  -2.442  0.00  0.00    -0.502 OA
ATOM     24  H   UNL     1       4.325  -7.141  -2.977  0.00  0.00    +0.292 HD
ENDBRANCH  19  23
BRANCH  18  25
ATOM     25  O   UNL     1       1.422  -8.223  -3.079  0.00  0.00    -0.491 OA
ATOM     26  C   UNL     1       0.024  -8.364  -3.338  0.00  0.00    +0.277 C 
ENDBRANCH  18  25
ENDBRANCH  12  16
BRANCH  10  27
ATOM     27  O   UNL     1      -2.512  -4.810  -0.154  0.00  0.00    -0.492 OA
ATOM     28  H   UNL     1      -3.039  -5.565  -0.450  0.00  0.00    +0.294 HD
ENDBRANCH  10  27
TORSDOF 4
