REMARK  Name = ZINC00535319
REMARK  4 active torsions:
REMARK  status: ('A' for Active; 'I' for Inactive)
REMARK    1  A    between atoms: C_1  and  C_2
REMARK    2  A    between atoms: N_12  and  N_13
REMARK    3  A    between atoms: C_14  and  C_15
REMARK    4  A    between atoms: C_24  and  O_25
REMARK                            x       y       z     vdW  Elec       q    Type
REMARK                         _______ _______ _______ _____ _____    ______ ____
ROOT
ATOM      1  N   UNL     1       0.024   0.079   2.388  0.00  0.00    -0.170 NA
ATOM      2  C   UNL     1      -0.055  -0.536   3.530  0.00  0.00    +0.145 C 
ENDROOT
BRANCH   1  14
ATOM      3  C   UNL     1       2.335   0.109   0.859  0.00  0.00    +0.088 C 
ATOM      4  C   UNL     1       1.128  -0.673   0.410  0.00  0.00    +0.132 A 
ATOM      5  N   UNL     1       1.203  -1.334  -0.706  0.00  0.00    -0.232 NA
ATOM      6  C   UNL     1       0.157  -2.060  -1.173  0.00  0.00    +0.078 A 
ATOM      7  C   UNL     1       0.235  -2.772  -2.372  0.00  0.00    +0.028 A 
ATOM      8  C   UNL     1      -0.855  -3.495  -2.804  0.00  0.00    +0.002 A 
ATOM      9  C   UNL     1      -2.028  -3.525  -2.062  0.00  0.00    +0.001 A 
ATOM     10  C   UNL     1      -2.129  -2.836  -0.885  0.00  0.00    +0.015 A 
ATOM     11  C   UNL     1      -1.041  -2.096  -0.425  0.00  0.00    +0.067 A 
ATOM     12  C   UNL     1      -1.093  -1.338   0.833  0.00  0.00    +0.282 A 
ATOM     13  O   UNL     1      -2.095  -1.328   1.525  0.00  0.00    -0.265 OA
ATOM     14  N   UNL     1       0.018  -0.656   1.195  0.00  0.00    -0.182 N 
ENDBRANCH   1  14
BRANCH   2  15
ATOM     15  C   UNL     1      -0.165   0.239   4.777  0.00  0.00    +0.037 A 
ATOM     16  C   UNL     1      -0.244  -0.431   6.012  0.00  0.00    +0.014 A 
ATOM     17  C   UNL     1      -0.346   0.261   7.175  0.00  0.00    +0.009 A 
ATOM     18  C   UNL     1      -0.373   1.669   7.161  0.00  0.00    -0.014 A 
ATOM     19  C   UNL     1      -0.478   2.402   8.354  0.00  0.00    +0.008 A 
ATOM     20  C   UNL     1      -0.502   3.763   8.311  0.00  0.00    +0.001 A 
ATOM     21  C   UNL     1      -0.424   4.443   7.098  0.00  0.00    +0.001 A 
ATOM     22  C   UNL     1      -0.322   3.766   5.921  0.00  0.00    +0.012 A 
ATOM     23  C   UNL     1      -0.294   2.361   5.927  0.00  0.00    +0.024 A 
ATOM     24  C   UNL     1      -0.184   1.631   4.728  0.00  0.00    +0.133 A 
BRANCH  24  25
ATOM     25  O   UNL     1      -0.102   2.276   3.537  0.00  0.00    -0.506 OA
ATOM     26  H   UNL     1      -0.959   2.448   3.124  0.00  0.00    +0.292 HD
ENDBRANCH  24  25
ENDBRANCH   2  15
TORSDOF 3
