REMARK  Name = ZINC04835730
REMARK  8 active torsions:
REMARK  status: ('A' for Active; 'I' for Inactive)
REMARK    1  A    between atoms: C_1  and  C_2
REMARK    2  A    between atoms: C_7  and  N_8
REMARK    3  A    between atoms: C_9  and  C_26
REMARK    4  A    between atoms: C_12  and  S_13
REMARK    5  A    between atoms: S_13  and  C_14
REMARK    6  A    between atoms: C_14  and  C_16
REMARK    7  A    between atoms: C_14  and  C_17
REMARK    8  A    between atoms: N_19  and  C_20
REMARK                            x       y       z     vdW  Elec       q    Type
REMARK                         _______ _______ _______ _____ _____    ______ ____
ROOT
ATOM      1  N   UNL     1       2.432  -2.886  -0.324  0.00  0.00    -0.270 N 
ATOM      2  C   UNL     1       1.322  -2.127  -0.022  0.00  0.00    +0.171 A 
ATOM      3  N   UNL     1       0.350  -2.962   0.261  0.00  0.00    -0.128 NA
ATOM      4  N   UNL     1       0.764  -4.173   0.151  0.00  0.00    -0.122 NA
ATOM      5  C   UNL     1       2.031  -4.188  -0.201  0.00  0.00    +0.197 A 
ENDROOT
BRANCH   1  12
ATOM      6  C   UNL     1       2.988  -2.472  -3.084  0.00  0.00    +0.046 C 
ATOM      7  C   UNL     1       4.018  -2.207  -2.017  0.00  0.00    -0.026 A 
ATOM      8  C   UNL     1       5.272  -1.744  -2.365  0.00  0.00    +0.005 A 
ATOM      9  C   UNL     1       6.219  -1.506  -1.386  0.00  0.00    +0.000 A 
ATOM     10  C   UNL     1       5.912  -1.724  -0.056  0.00  0.00    +0.002 A 
ATOM     11  C   UNL     1       4.659  -2.182   0.299  0.00  0.00    +0.026 A 
ATOM     12  C   UNL     1       3.705  -2.422  -0.681  0.00  0.00    +0.053 A 
ENDBRANCH   1  12
BRANCH   2  13
ATOM     13  C   UNL     1       1.244  -0.651  -0.013  0.00  0.00    +0.038 A 
ATOM     14  C   UNL     1       0.002  -0.004   0.002  0.00  0.00    +0.014 A 
ATOM     15  C   UNL     1      -0.017   1.379   0.010  0.00  0.00    +0.020 A 
ATOM     16  C   UNL     1       1.180   2.073   0.002  0.00  0.00    +0.111 A 
ATOM     17  N   UNL     1       2.336   1.437  -0.013  0.00  0.00    -0.263 NA
ATOM     18  C   UNL     1       2.406   0.122  -0.020  0.00  0.00    +0.122 A 
ENDBRANCH   2  13
BRANCH   5  19
ATOM     19  S   UNL     1       3.026  -5.618  -0.465  0.00  0.00    -0.073 S 
BRANCH  19  20
ATOM     20  C   UNL     1       1.812  -6.915  -0.116  0.00  0.00    +0.137 C 
ATOM     21  C   UNL     1       1.398  -6.843   1.355  0.00  0.00    +0.029 C 
BRANCH  20  22
ATOM     22  C   UNL     1       2.420  -8.263  -0.402  0.00  0.00    +0.226 C 
ATOM     23  O   UNL     1       3.624  -8.407  -0.357  0.00  0.00    -0.275 OA
ATOM     24  N   UNL     1       1.628  -9.309  -0.708  0.00  0.00    -0.312 N 
ATOM     25  H   UNL     1       0.665  -9.194  -0.744  0.00  0.00    +0.149 HD
BRANCH  24  26
ATOM     26  C   UNL     1       2.219 -10.620  -0.986  0.00  0.00    +0.073 C 
ATOM     27  C   UNL     1       2.633 -10.691  -2.457  0.00  0.00    +0.022 C 
ATOM     28  C   UNL     1       3.251 -12.061  -2.748  0.00  0.00    +0.002 C 
ATOM     29  C   UNL     1       2.225 -13.156  -2.453  0.00  0.00    +0.000 C 
ATOM     30  C   UNL     1       1.811 -13.085  -0.981  0.00  0.00    +0.002 C 
ATOM     31  C   UNL     1       1.193 -11.716  -0.691  0.00  0.00    +0.022 C 
ENDBRANCH  24  26
ENDBRANCH  20  22
ENDBRANCH  19  20
ENDBRANCH   5  19
TORSDOF 6
