REMARK  Name = ZINC36500495
REMARK  12 active torsions:
REMARK  status: ('A' for Active; 'I' for Inactive)
REMARK    1  A    between atoms: C_1  and  C_2
REMARK    2  A    between atoms: C_2  and  C_3
REMARK    3  A    between atoms: C_2  and  C_4
REMARK    4  A    between atoms: C_2  and  N_5
REMARK    5  A    between atoms: C_6  and  C_8
REMARK    6  A    between atoms: C_8  and  C_10
REMARK    7  A    between atoms: C_8  and  N_24
REMARK    8  A    between atoms: N_24  and  C_25
REMARK    9  A    between atoms: C_25  and  C_26
REMARK   10  A    between atoms: C_31  and  C_33
REMARK   11  A    between atoms: C_34  and  O_40
REMARK   12  A    between atoms: C_38  and  O_39
REMARK                            x       y       z     vdW  Elec       q    Type
REMARK                         _______ _______ _______ _____ _____    ______ ____
ROOT
ATOM      1  C   UNL     1       2.660  -0.396  -2.632  0.00  0.00    +0.194 C 
ENDROOT
BRANCH   1   2
ATOM      2  C   UNL     1       2.334  -1.842  -2.903  0.00  0.00    -0.010 A 
ATOM      3  C   UNL     1       3.298  -2.774  -2.758  0.00  0.00    +0.015 A 
ATOM      4  C   UNL     1       3.042  -4.143  -3.000  0.00  0.00    -0.017 A 
ATOM      5  C   UNL     1       4.051  -5.105  -2.845  0.00  0.00    +0.008 A 
ATOM      6  C   UNL     1       3.777  -6.419  -3.085  0.00  0.00    +0.001 A 
ATOM      7  C   UNL     1       2.507  -6.822  -3.483  0.00  0.00    +0.001 A 
ATOM      8  C   UNL     1       1.503  -5.910  -3.642  0.00  0.00    +0.009 A 
ATOM      9  C   UNL     1       1.753  -4.558  -3.404  0.00  0.00    -0.010 A 
ATOM     10  C   UNL     1       0.706  -3.545  -3.562  0.00  0.00    -0.010 A 
ATOM     11  C   UNL     1       1.023  -2.193  -3.299  0.00  0.00    -0.012 A 
ATOM     12  C   UNL     1       0.026  -1.218  -3.442  0.00  0.00    +0.009 A 
ATOM     13  C   UNL     1      -1.230  -1.585  -3.826  0.00  0.00    +0.001 A 
ATOM     14  C   UNL     1      -1.540  -2.916  -4.077  0.00  0.00    +0.001 A 
ATOM     15  C   UNL     1      -0.588  -3.888  -3.959  0.00  0.00    +0.009 A 
ENDBRANCH   1   2
BRANCH   1  17
ATOM     16  N   UNL     1       0.971  -0.167  -0.840  0.00  0.00    -0.309 N 
ATOM     17  C   UNL     1       2.258  -0.046  -1.223  0.00  0.00    +0.239 C 
ATOM     18  O   UNL     1       3.091   0.345  -0.434  0.00  0.00    -0.273 OA
ATOM     19  H   UNL     1       0.304  -0.480  -1.471  0.00  0.00    +0.149 HD
BRANCH  16  21
ATOM     20  C   UNL     1       0.911   1.642   0.806  0.00  0.00    +0.031 C 
ATOM     21  C   UNL     1       0.580   0.173   0.531  0.00  0.00    +0.026 C 
ATOM     22  C   UNL     1       1.344  -0.715   1.515  0.00  0.00    +0.031 C 
ATOM     23  C   UNL     1      -0.924  -0.051   0.702  0.00  0.00    +0.031 C 
ENDBRANCH  16  21
ENDBRANCH   1  17
BRANCH   1  24
ATOM     24  N   UNL     1       4.100  -0.181  -2.797  0.00  0.00    -0.274 N 
ATOM     25  C   UNL     1       4.968  -0.733  -1.927  0.00  0.00    +0.255 C 
ATOM     26  O   UNL     1       4.553  -1.327  -0.949  0.00  0.00    -0.270 OA
BRANCH  25  27
ATOM     27  C   UNL     1       6.417  -0.619  -2.159  0.00  0.00    +0.119 A 
ATOM     28  C   UNL     1       7.134   0.465  -1.631  0.00  0.00    +0.133 A 
ATOM     29  C   UNL     1       8.498   0.562  -1.856  0.00  0.00    +0.046 A 
ATOM     30  C   UNL     1       9.152  -0.404  -2.597  0.00  0.00    +0.007 A 
ATOM     31  C   UNL     1       8.455  -1.476  -3.123  0.00  0.00    +0.046 A 
ATOM     32  C   UNL     1       7.092  -1.596  -2.905  0.00  0.00    +0.133 A 
BRANCH  32  33
ATOM     33  O   UNL     1       6.411  -2.653  -3.417  0.00  0.00    -0.506 OA
ATOM     34  H   UNL     1       6.059  -2.501  -4.305  0.00  0.00    +0.292 HD
ENDBRANCH  32  33
BRANCH  28  35
ATOM     35  O   UNL     1       6.494   1.414  -0.903  0.00  0.00    -0.506 OA
ATOM     36  H   UNL     1       6.463   1.228   0.045  0.00  0.00    +0.292 HD
ENDBRANCH  28  35
ENDBRANCH  25  27
BRANCH  24  37
ATOM     37  C   UNL     1       4.596   0.635  -3.908  0.00  0.00    +0.183 C 
BRANCH  37  38
ATOM     38  C   UNL     1       4.535   2.092  -3.527  0.00  0.00    +0.122 A 
ATOM     39  C   UNL     1       5.555   2.821  -3.038  0.00  0.00    +0.046 A 
ATOM     40  C   UNL     1       5.059   4.127  -2.822  0.00  0.00    +0.041 A 
ATOM     41  C   UNL     1       3.765   4.119  -3.192  0.00  0.00    +0.195 A 
ATOM     42  O   UNL     1       3.455   2.885  -3.623  0.00  0.00    -0.466 OA
ENDBRANCH  37  38
ENDBRANCH  24  37
ENDBRANCH   1  24
TORSDOF 9
