REMARK  Name = ZINC25505422
REMARK  7 active torsions:
REMARK  status: ('A' for Active; 'I' for Inactive)
REMARK    1  A    between atoms: C_1  and  C_2
REMARK    2  A    between atoms: C_2  and  C_4
REMARK    3  A    between atoms: C_2  and  N_17
REMARK    4  A    between atoms: N_6  and  C_7
REMARK    5  A    between atoms: C_8  and  C_15
REMARK    6  A    between atoms: N_20  and  C_23
REMARK    7  A    between atoms: C_26  and  O_29
REMARK                            x       y       z     vdW  Elec       q    Type
REMARK                         _______ _______ _______ _____ _____    ______ ____
ROOT
ATOM      1  C   UNL     1      -0.729   1.579   1.267  0.00  0.00    -0.004 C 
ATOM      2  C   UNL     1      -0.013   1.086   0.008  0.00  0.00    +0.017 C 
ENDROOT
BRANCH   2   3
ATOM      3  N   UNL     1      -0.723   1.572  -1.182  0.00  0.00    +0.389 N 
ATOM      4  C   UNL     1      -0.788   3.041  -1.193  0.00  0.00    -0.059 C 
ATOM      5  C   UNL     1      -1.463   3.509  -2.484  0.00  0.00    +0.086 C 
ATOM      6  N   UNL     1      -2.809   2.925  -2.570  0.00  0.00    -0.333 N 
ATOM      7  C   UNL     1      -2.744   1.457  -2.559  0.00  0.00    +0.086 C 
ATOM      8  C   UNL     1      -2.069   0.988  -1.268  0.00  0.00    -0.059 C 
ATOM      9  H   UNL     1      -0.156   1.250  -2.068  0.00  0.00    -0.081 HD
BRANCH   6  10
ATOM     10  C   UNL     1      -3.486   3.388  -3.704  0.00  0.00    +0.030 A 
ATOM     11  C   UNL     1      -3.983   2.485  -4.633  0.00  0.00    +0.026 A 
ATOM     12  C   UNL     1      -4.656   2.943  -5.749  0.00  0.00    +0.047 A 
ATOM     13  C   UNL     1      -4.825   4.306  -5.947  0.00  0.00    +0.117 A 
ATOM     14  C   UNL     1      -4.323   5.209  -5.021  0.00  0.00    +0.047 A 
ATOM     15  C   UNL     1      -3.655   4.752  -3.902  0.00  0.00    +0.026 A 
BRANCH  13  16
ATOM     16  O   UNL     1      -5.482   4.756  -7.049  0.00  0.00    -0.507 OA
ATOM     17  H   UNL     1      -5.616   5.837  -7.206  0.00  0.00    +0.292 HD
ENDBRANCH  13  16
ENDBRANCH   6  10
ENDBRANCH   2   3
BRANCH   2  18
ATOM     18  C   UNL     1       1.401   1.607  -0.003  0.00  0.00    +0.204 C 
ATOM     19  O   UNL     1       1.780   2.315  -0.912  0.00  0.00    -0.277 OA
ATOM     20  N   UNL     1       2.245   1.288   0.998  0.00  0.00    -0.280 N 
ATOM     21  H   UNL     1       1.902   0.646   1.823  0.00  0.00    +0.155 HD
BRANCH  20  22
ATOM     22  C   UNL     1       3.547   1.768   0.989  0.00  0.00    +0.090 A 
ATOM     23  C   UNL     1       4.550   1.552   1.917  0.00  0.00    +0.084 A 
ATOM     24  C   UNL     1       5.848   2.178   1.670  0.00  0.00    -0.018 A 
ATOM     25  C   UNL     1       5.923   2.912   0.544  0.00  0.00    -0.004 A 
ATOM     26  S   UNL     1       4.312   2.777  -0.192  0.00  0.00    -0.077 S 
ATOM     27  C   UNL     1       7.285   3.525   0.360  0.00  0.00    +0.043 C 
ATOM     28  C   UNL     1       7.946   3.430   1.754  0.00  0.00    +0.010 C 
ATOM     29  C   UNL     1       7.206   2.227   2.371  0.00  0.00    +0.037 C 
BRANCH  23  30
ATOM     30  C   UNL     1       4.325   0.745   3.078  0.00  0.00    +0.102 C 
ATOM     31  N   UNL     1       4.146   0.105   3.999  0.00  0.00    -0.191 NA
ENDBRANCH  23  30
ENDBRANCH  20  22
ENDBRANCH   2  18
TORSDOF 6
