REMARK  Name = ZINC12135637
REMARK  8 active torsions:
REMARK  status: ('A' for Active; 'I' for Inactive)
REMARK    1  A    between atoms: C_1  and  C_2
REMARK    2  A    between atoms: C_8  and  N_10
REMARK    3  A    between atoms: C_14  and  C_16
REMARK    4  A    between atoms: C_16  and  S_17
REMARK    5  A    between atoms: S_17  and  C_18
REMARK    6  A    between atoms: C_21  and  C_29
REMARK    7  A    between atoms: N_22  and  C_23
REMARK    8  A    between atoms: C_29  and  N_67
REMARK                            x       y       z     vdW  Elec       q    Type
REMARK                         _______ _______ _______ _____ _____    ______ ____
ROOT
ATOM      1  C   UNL     1       8.455   7.532  -2.873  0.00  0.00    +0.197 A 
ATOM      2  N   UNL     1       9.386   6.741  -2.392  0.00  0.00    -0.122 NA
ATOM      3  N   UNL     1      10.532   7.318  -2.467  0.00  0.00    -0.135 NA
ATOM      4  C   UNL     1      10.404   8.502  -2.995  0.00  0.00    +0.122 A 
ATOM      5  N   UNL     1       9.076   8.681  -3.279  0.00  0.00    -0.276 N 
ENDROOT
BRANCH   5   6
ATOM      6  C   UNL     1       8.478   9.807  -3.862  0.00  0.00    +0.050 A 
ATOM      7  C   UNL     1       8.790  10.163  -5.167  0.00  0.00    +0.026 A 
ATOM      8  C   UNL     1       8.194  11.270  -5.741  0.00  0.00    +0.002 A 
ATOM      9  C   UNL     1       7.298  12.030  -5.012  0.00  0.00    +0.000 A 
ATOM     10  C   UNL     1       6.989  11.681  -3.710  0.00  0.00    +0.002 A 
ATOM     11  C   UNL     1       7.577  10.572  -3.133  0.00  0.00    +0.026 A 
ENDBRANCH   5   6
BRANCH   1  12
ATOM     12  S   UNL     1       6.732   7.178  -2.981  0.00  0.00    -0.076 S 
BRANCH  12  13
ATOM     13  C   UNL     1       6.708   5.514  -2.268  0.00  0.00    +0.173 C 
BRANCH  13  18
ATOM     14  N   UNL     1       3.507   2.069  -1.270  0.00  0.00    -0.296 N 
ATOM     15  C   UNL     1       3.769   3.297  -1.759  0.00  0.00    +0.306 C 
ATOM     16  O   UNL     1       2.864   3.984  -2.191  0.00  0.00    -0.252 OA
ATOM     17  N   UNL     1       5.033   3.764  -1.768  0.00  0.00    -0.239 N 
ATOM     18  C   UNL     1       5.295   4.992  -2.258  0.00  0.00    +0.231 C 
ATOM     19  O   UNL     1       4.392   5.678  -2.689  0.00  0.00    -0.274 OA
ATOM     20  H   UNL     1       4.229   1.521  -0.924  0.00  0.00    +0.151 HD
ATOM     21  H   UNL     1       5.755   3.216  -1.423  0.00  0.00    +0.159 HD
BRANCH  14  28
ATOM     22  C   UNL     1       2.870  -0.461  -2.526  0.00  0.00    +0.009 C 
ATOM     23  C   UNL     1       2.154   0.032  -1.268  0.00  0.00    +0.006 C 
ATOM     24  C   UNL     1       0.718  -0.497  -1.257  0.00  0.00    +0.005 C 
ATOM     25  C   UNL     1       0.002  -0.004   0.002  0.00  0.00    +0.000 C 
ATOM     26  C   UNL     1      -0.019   1.526   0.010  0.00  0.00    +0.002 C 
ATOM     27  C   UNL     1       1.417   2.055  -0.000  0.00  0.00    +0.022 C 
ATOM     28  C   UNL     1       2.133   1.562  -1.259  0.00  0.00    +0.077 C 
ENDBRANCH  14  28
ENDBRANCH  13  18
ENDBRANCH  12  13
ENDBRANCH   1  12
BRANCH   4  29
ATOM     29  C   UNL     1      11.513   9.490  -3.253  0.00  0.00    -0.001 C 
BRANCH  29  35
ATOM     30  C   UNL     1      12.726   7.961  -4.685  0.00  0.00    -0.078 C 
ATOM     31  C   UNL     1      13.158   7.703  -6.130  0.00  0.00    -0.019 C 
ATOM     32  C   UNL     1      14.114   8.812  -6.578  0.00  0.00    -0.004 C 
ATOM     33  C   UNL     1      13.417  10.167  -6.430  0.00  0.00    -0.019 C 
ATOM     34  C   UNL     1      12.978  10.353  -4.976  0.00  0.00    -0.078 C 
ATOM     35  N   UNL     1      12.040   9.269  -4.615  0.00  0.00    +0.384 N 
ATOM     36  H   UNL     1      11.258   9.270  -5.280  0.00  0.00    -0.081 HD
ENDBRANCH  29  35
ENDBRANCH   4  29
TORSDOF 7
