REMARK  Name = ZINC35154738
REMARK  19 active torsions:
REMARK  status: ('A' for Active; 'I' for Inactive)
REMARK    1  A    between atoms: C_1  and  C_2
REMARK    2  A    between atoms: C_7  and  N_8
REMARK    3  A    between atoms: C_9  and  N_20
REMARK    4  A    between atoms: C_10  and  C_14
REMARK    5  A    between atoms: C_11  and  C_13
REMARK    6  A    between atoms: C_21  and  C_23
REMARK    7  A    between atoms: C_23  and  N_24
REMARK    8  A    between atoms: N_24  and  C_25
REMARK    9  A    between atoms: C_25  and  C_26
REMARK   10  A    between atoms: C_26  and  C_27
REMARK   11  A    between atoms: C_26  and  C_28
REMARK   12  A    between atoms: C_29  and  C_31
REMARK   13  A    between atoms: C_31  and  C_32
REMARK   14  A    between atoms: C_32  and  C_34
REMARK   15  A    between atoms: C_32  and  C_35
REMARK   16  A    between atoms: C_35  and  C_36
REMARK   17  A    between atoms: C_36  and  C_37
REMARK   18  A    between atoms: C_36  and  C_38
REMARK   19  A    between atoms: C_36  and  C_39
REMARK                            x       y       z     vdW  Elec       q    Type
REMARK                         _______ _______ _______ _____ _____    ______ ____
ROOT
ATOM      1  N   UNL     1       2.647  -4.049   5.728  0.00  0.00    -0.268 N 
ATOM      2  C   UNL     1       2.596  -4.631   4.513  0.00  0.00    +0.236 C 
ATOM      3  O   UNL     1       2.745  -3.961   3.513  0.00  0.00    -0.274 OA
ATOM      4  H   UNL     1       2.504  -4.580   6.527  0.00  0.00    +0.156 HD
ENDROOT
BRANCH   1   6
ATOM      5  N   UNL     1       3.813  -1.976   5.114  0.00  0.00    -0.217 N 
ATOM      6  C   UNL     1       2.905  -2.686   5.836  0.00  0.00    +0.137 A 
ATOM      7  C   UNL     1       2.285  -1.799   6.697  0.00  0.00    +0.045 A 
ATOM      8  C   UNL     1       2.852  -0.529   6.470  0.00  0.00    +0.070 A 
ATOM      9  N   UNL     1       3.758  -0.643   5.536  0.00  0.00    -0.169 NA
ATOM     10  C   UNL     1       2.479   0.743   7.187  0.00  0.00    +0.068 C 
BRANCH   5  17
ATOM     11  C   UNL     1       4.103  -0.507   2.694  0.00  0.00    +0.046 C 
ATOM     12  C   UNL     1       4.830  -1.806   2.929  0.00  0.00    -0.025 A 
ATOM     13  C   UNL     1       5.671  -2.313   1.957  0.00  0.00    +0.005 A 
ATOM     14  C   UNL     1       6.339  -3.505   2.172  0.00  0.00    +0.000 A 
ATOM     15  C   UNL     1       6.167  -4.193   3.360  0.00  0.00    +0.002 A 
ATOM     16  C   UNL     1       5.327  -3.691   4.335  0.00  0.00    +0.028 A 
ATOM     17  C   UNL     1       4.660  -2.491   4.124  0.00  0.00    +0.070 A 
ENDBRANCH   5  17
BRANCH   7  18
ATOM     18  C   UNL     1       1.221  -2.124   7.678  0.00  0.00    -0.013 A 
ATOM     19  C   UNL     1      -0.025  -2.566   7.238  0.00  0.00    +0.008 A 
ATOM     20  C   UNL     1      -1.011  -2.867   8.155  0.00  0.00    +0.001 A 
ATOM     21  C   UNL     1      -0.765  -2.729   9.509  0.00  0.00    +0.000 A 
ATOM     22  C   UNL     1       0.470  -2.291   9.952  0.00  0.00    +0.001 A 
ATOM     23  C   UNL     1       1.466  -1.993   9.044  0.00  0.00    +0.008 A 
ENDBRANCH   7  18
ENDBRANCH   1   6
BRANCH   2  24
ATOM     24  C   UNL     1       2.355  -6.114   4.398  0.00  0.00    +0.203 C 
BRANCH  24  25
ATOM     25  N   UNL     1       2.345  -6.499   2.984  0.00  0.00    -0.292 N 
ATOM     26  C   UNL     1       1.189  -6.485   2.291  0.00  0.00    +0.216 C 
ATOM     27  O   UNL     1       0.168  -6.104   2.822  0.00  0.00    -0.276 OA
BRANCH  25  28
ATOM     28  C   UNL     1       3.591  -6.898   2.325  0.00  0.00    +0.111 C 
BRANCH  28  29
ATOM     29  C   UNL     1       3.866  -8.376   2.606  0.00  0.00    +0.000 C 
ATOM     30  C   UNL     1       2.738  -9.226   2.017  0.00  0.00    +0.009 C 
ATOM     31  C   UNL     1       5.195  -8.779   1.965  0.00  0.00    +0.009 C 
ENDBRANCH  28  29
ENDBRANCH  25  28
BRANCH  26  32
ATOM     32  C   UNL     1       1.167  -6.944   0.855  0.00  0.00    +0.099 C 
BRANCH  32  33
ATOM     33  C   UNL     1      -0.209  -6.656   0.250  0.00  0.00    -0.005 C 
ATOM     34  C   UNL     1      -0.435  -5.144   0.195  0.00  0.00    +0.008 C 
BRANCH  33  35
ATOM     35  C   UNL     1      -0.273  -7.233  -1.166  0.00  0.00    +0.010 C 
BRANCH  35  36
ATOM     36  C   UNL     1      -1.736  -7.365  -1.597  0.00  0.00    -0.037 C 
ATOM     37  C   UNL     1      -2.353  -5.972  -1.740  0.00  0.00    +0.010 C 
ATOM     38  C   UNL     1      -1.808  -8.095  -2.939  0.00  0.00    +0.010 C 
ATOM     39  C   UNL     1      -2.508  -8.159  -0.541  0.00  0.00    +0.010 C 
ENDBRANCH  35  36
ENDBRANCH  33  35
ENDBRANCH  32  33
ENDBRANCH  26  32
ENDBRANCH  24  25
ENDBRANCH   2  24
TORSDOF 11
