REMARK  Name = ZINC28568723
REMARK  4 active torsions:
REMARK  status: ('A' for Active; 'I' for Inactive)
REMARK    1  A    between atoms: C_1  and  C_2
REMARK    2  A    between atoms: C_10  and  O_31
REMARK    3  A    between atoms: C_21  and  C_22
REMARK    4  A    between atoms: C_28  and  O_30
REMARK                            x       y       z     vdW  Elec       q    Type
REMARK                         _______ _______ _______ _____ _____    ______ ____
ROOT
ATOM      1  C   UNL     1      -2.416   1.718  -3.229  0.00  0.00    +0.014 C 
ATOM      2  C   UNL     1      -2.940   2.358  -1.944  0.00  0.00    +0.001 C 
ATOM      3  C   UNL     1      -4.437   2.507  -1.979  0.00  0.00    +0.010 C 
ATOM      4  C   UNL     1      -4.846   3.883  -2.532  0.00  0.00    +0.009 C 
ATOM      5  C   UNL     1      -3.761   4.427  -3.445  0.00  0.00    +0.023 C 
ATOM      6  C   UNL     1      -4.156   5.658  -4.212  0.00  0.00    -0.041 A 
ATOM      7  C   UNL     1      -5.467   5.807  -4.630  0.00  0.00    +0.008 A 
ATOM      8  C   UNL     1      -5.855   6.925  -5.339  0.00  0.00    +0.046 A 
ATOM      9  C   UNL     1      -4.916   7.898  -5.646  0.00  0.00    +0.117 A 
ATOM     10  C   UNL     1      -3.604   7.739  -5.243  0.00  0.00    +0.049 A 
ATOM     11  C   UNL     1      -3.207   6.611  -4.532  0.00  0.00    -0.040 A 
ATOM     12  C   UNL     1      -1.750   6.499  -4.174  0.00  0.00    +0.036 C 
ATOM     13  C   UNL     1      -1.399   5.129  -3.583  0.00  0.00    +0.009 C 
ATOM     14  C   UNL     1      -2.517   4.761  -2.615  0.00  0.00    +0.001 C 
ATOM     15  C   UNL     1      -2.232   3.691  -1.621  0.00  0.00    +0.005 C 
ATOM     16  C   UNL     1      -0.780   3.226  -1.444  0.00  0.00    +0.037 C 
ATOM     17  C   UNL     1      -0.928   1.895  -0.702  0.00  0.00    -0.040 C 
ATOM     18  C   UNL     1       0.041   1.214  -0.108  0.00  0.00    +0.011 C 
ATOM     19  C   UNL     1      -2.400   1.499  -0.779  0.00  0.00    +0.147 C 
ENDROOT
BRANCH  18  20
ATOM     20  C   UNL     1       1.439   1.684  -0.201  0.00  0.00    -0.007 A 
ATOM     21  C   UNL     1       1.775   2.759  -1.031  0.00  0.00    +0.011 A 
ATOM     22  C   UNL     1       3.098   3.160  -1.082  0.00  0.00    +0.020 A 
ATOM     23  C   UNL     1       4.038   2.492  -0.318  0.00  0.00    +0.111 A 
ATOM     24  N   UNL     1       3.692   1.482   0.456  0.00  0.00    -0.263 NA
ATOM     25  C   UNL     1       2.445   1.066   0.542  0.00  0.00    +0.118 A 
ENDBRANCH  18  20
BRANCH  19  26
ATOM     26  O   UNL     1      -2.537   0.119  -1.099  0.00  0.00    -0.387 OA
ATOM     27  H   UNL     1      -2.204  -0.648  -0.383  0.00  0.00    +0.210 HD
ENDBRANCH  19  26
BRANCH   9  28
ATOM     28  O   UNL     1      -5.284   9.006  -6.347  0.00  0.00    -0.507 OA
ATOM     29  H   UNL     1      -4.538   9.777  -6.590  0.00  0.00    +0.292 HD
ENDBRANCH   9  28
TORSDOF 3
