REMARK  Name = ZINC54710938
REMARK  4 active torsions:
REMARK  status: ('A' for Active; 'I' for Inactive)
REMARK    1  A    between atoms: C_6  and  N_22
REMARK    2  A    between atoms: C_8  and  S_10
REMARK    3  A    between atoms: S_10  and  C_11
REMARK    4  A    between atoms: C_11  and  C_12
REMARK                            x       y       z     vdW  Elec       q    Type
REMARK                         _______ _______ _______ _____ _____    ______ ____
ROOT
ATOM      1  C   UNL     1      -0.018   1.449   0.010  0.00  0.00    +0.021 A 
ATOM      2  C   UNL     1       1.143   2.120   0.003  0.00  0.00    +0.048 A 
ATOM      3  S   UNL     1       2.371   0.827  -0.016  0.00  0.00    -0.077 S 
ATOM      4  C   UNL     1       1.291  -0.580  -0.013  0.00  0.00    +0.114 A 
ATOM      5  C   UNL     1       0.002  -0.004   0.002  0.00  0.00    +0.047 A 
ATOM      6  C   UNL     1      -1.081  -0.927   0.007  0.00  0.00    +0.129 A 
ATOM      7  N   UNL     1      -0.826  -2.224  -0.003  0.00  0.00    -0.207 NA
ATOM      8  C   UNL     1       0.414  -2.700  -0.017  0.00  0.00    +0.191 A 
ATOM      9  N   UNL     1       1.462  -1.887  -0.022  0.00  0.00    -0.215 NA
ENDROOT
BRANCH   6  10
ATOM     10  N   UNL     1      -2.386  -0.471   0.022  0.00  0.00    -0.343 N 
ATOM     11  H   UNL     1      -2.568   0.481   0.030  0.00  0.00    +0.144 HD
ATOM     12  H   UNL     1      -3.121  -1.105   0.026  0.00  0.00    +0.144 HD
ENDBRANCH   6  10
BRANCH   8  13
ATOM     13  S   UNL     1       0.671  -4.443  -0.029  0.00  0.00    -0.083 S 
BRANCH  13  14
ATOM     14  C   UNL     1       2.477  -4.620  -0.048  0.00  0.00    +0.111 C 
BRANCH  14  15
ATOM     15  C   UNL     1       2.844  -6.105  -0.059  0.00  0.00    +0.157 C 
ATOM     16  C   UNL     1       4.377  -6.279   0.016  0.00  0.00    +0.195 C 
ATOM     17  O   UNL     1       4.624  -7.382  -0.893  0.00  0.00    -0.346 OA
ATOM     18  C   UNL     1       3.659  -7.170  -1.935  0.00  0.00    +0.171 C 
ATOM     19  O   UNL     1       2.457  -6.706  -1.310  0.00  0.00    -0.342 OA
ATOM     20  C   UNL     1       3.402  -8.479  -2.699  0.00  0.00    +0.065 C 
ATOM     21  C   UNL     1       3.203  -8.025  -4.168  0.00  0.00    +0.005 C 
ATOM     22  C   UNL     1       4.228  -6.872  -4.313  0.00  0.00    +0.005 C 
ATOM     23  C   UNL     1       4.179  -6.147  -2.951  0.00  0.00    +0.065 C 
ENDBRANCH  14  15
ENDBRANCH  13  14
ENDBRANCH   8  13
TORSDOF 4
