REMARK  Name = ZINC49271047
REMARK  9 active torsions:
REMARK  status: ('A' for Active; 'I' for Inactive)
REMARK    1  A    between atoms: C_1  and  C_2
REMARK    2  A    between atoms: C_5  and  C_7
REMARK    3  A    between atoms: C_7  and  N_8
REMARK    4  A    between atoms: C_9  and  C_11
REMARK    5  A    between atoms: N_13  and  C_14
REMARK    6  A    between atoms: C_17  and  C_19
REMARK    7  A    between atoms: C_19  and  C_20
REMARK    8  A    between atoms: C_19  and  C_21
REMARK    9  A    between atoms: C_19  and  C_22
REMARK                            x       y       z     vdW  Elec       q    Type
REMARK                         _______ _______ _______ _____ _____    ______ ____
ROOT
ATOM      1  C   UNL     1       3.399  -0.959   5.231  0.00  0.00    +0.335 C 
ATOM      2  O   UNL     1       4.034  -0.394   6.284  0.00  0.00    -0.260 OA
ATOM      3  N   UNL     1       3.426  -2.256   5.069  0.00  0.00    -0.177 NA
ENDROOT
BRANCH   3   4
ATOM      4  C   UNL     1       4.088  -3.034   5.954  0.00  0.00    +0.218 A 
ATOM      5  N   UNL     1       4.768  -2.695   7.050  0.00  0.00    -0.121 NA
ATOM      6  N   UNL     1       5.311  -3.609   7.732  0.00  0.00    -0.144 NA
ATOM      7  C   UNL     1       5.228  -4.878   7.395  0.00  0.00    +0.109 A 
ATOM      8  S   UNL     1       4.296  -4.809   5.992  0.00  0.00    -0.031 S 
BRANCH   7   9
ATOM      9  C   UNL     1       5.810  -6.083   8.088  0.00  0.00    +0.013 C 
ATOM     10  C   UNL     1       5.249  -6.175   9.508  0.00  0.00    +0.018 C 
ATOM     11  C   UNL     1       5.439  -7.347   7.310  0.00  0.00    +0.018 C 
ATOM     12  C   UNL     1       7.333  -5.950   8.149  0.00  0.00    +0.018 C 
ENDBRANCH   7   9
ENDBRANCH   3   4
BRANCH   1  14
ATOM     13  N   UNL     1       2.041  -0.670   3.213  0.00  0.00    -0.307 N 
ATOM     14  C   UNL     1       2.674  -0.108   4.262  0.00  0.00    +0.304 C 
ATOM     15  O   UNL     1       2.648   1.098   4.412  0.00  0.00    -0.265 OA
ATOM     16  H   UNL     1       2.061  -1.632   3.093  0.00  0.00    +0.149 HD
BRANCH  13  17
ATOM     17  C   UNL     1       1.323   0.173   2.253  0.00  0.00    +0.108 C 
BRANCH  17  21
ATOM     18  C   UNL     1      -0.019   1.526   0.010  0.00  0.00    +0.008 C 
ATOM     19  C   UNL     1       0.002  -0.004   0.002  0.00  0.00    -0.009 C 
ATOM     20  C   UNL     1      -0.828  -0.728   1.065  0.00  0.00    +0.009 C 
ATOM     21  C   UNL     1       0.700  -0.708   1.168  0.00  0.00    +0.009 C 
ENDBRANCH  17  21
ENDBRANCH  13  17
ENDBRANCH   1  14
TORSDOF 5
