REMARK  Name = ZINC00006988
REMARK  5 active torsions:
REMARK  status: ('A' for Active; 'I' for Inactive)
REMARK    1  A    between atoms: C_1  and  C_2
REMARK    2  A    between atoms: C_2  and  C_3
REMARK    3  A    between atoms: N_6  and  C_8
REMARK    4  A    between atoms: N_15  and  C_18
REMARK    5  A    between atoms: C_23  and  C_24
REMARK                            x       y       z     vdW  Elec       q    Type
REMARK                         _______ _______ _______ _____ _____    ______ ____
ROOT
ATOM      1  C   UNL     1      -2.598   3.734  -0.073  0.00  0.00    +0.067 A 
ATOM      2  C   UNL     1      -1.276   3.349  -0.157  0.00  0.00    +0.007 A 
ATOM      3  C   UNL     1      -1.276   1.967   0.019  0.00  0.00    +0.128 A 
ATOM      4  N   UNL     1      -2.562   1.602   0.193  0.00  0.00    -0.256 N 
ATOM      5  N   UNL     1      -3.314   2.651   0.137  0.00  0.00    -0.175 NA
ATOM      6  C   UNL     1      -0.014   1.212   0.009  0.00  0.00    +0.269 C 
ATOM      7  O   UNL     1       0.002  -0.004   0.002  0.00  0.00    -0.268 OA
ATOM      8  N   UNL     1       1.128   1.938   0.002  0.00  0.00    -0.266 N 
ATOM      9  C   UNL     1       1.151   3.370   0.274  0.00  0.00    +0.119 C 
ATOM     10  C   UNL     1      -0.007   4.118  -0.390  0.00  0.00    +0.058 C 
ENDROOT
BRANCH   8  11
ATOM     11  C   UNL     1       2.334   1.289  -0.277  0.00  0.00    +0.040 A 
ATOM     12  C   UNL     1       2.782   1.185  -1.588  0.00  0.00    +0.024 A 
ATOM     13  C   UNL     1       3.976   0.547  -1.859  0.00  0.00    +0.002 A 
ATOM     14  C   UNL     1       4.721   0.003  -0.829  0.00  0.00    +0.000 A 
ATOM     15  C   UNL     1       4.276   0.100   0.476  0.00  0.00    +0.005 A 
ATOM     16  C   UNL     1       3.084   0.741   0.755  0.00  0.00    -0.029 A 
ATOM     17  C   UNL     1       2.599   0.845   2.178  0.00  0.00    +0.045 C 
ENDBRANCH   8  11
BRANCH   4  18
ATOM     18  C   UNL     1      -3.033   0.231   0.407  0.00  0.00    +0.108 C 
ATOM     19  C   UNL     1      -4.046  -0.157  -0.690  0.00  0.00    +0.027 C 
ATOM     20  C   UNL     1      -5.096  -1.022   0.052  0.00  0.00    +0.002 C 
ATOM     21  C   UNL     1      -5.220  -0.309   1.422  0.00  0.00    +0.002 C 
ATOM     22  C   UNL     1      -3.780   0.135   1.750  0.00  0.00    +0.027 C 
ENDBRANCH   4  18
BRANCH   1  24
ATOM     23  C   UNL     1      -3.447   5.437  -1.663  0.00  0.00    +0.010 C 
ATOM     24  C   UNL     1      -3.125   5.141  -0.197  0.00  0.00    +0.054 C 
ENDBRANCH   1  24
TORSDOF 3
