REMARK  Name = ZINC15675331
REMARK  8 active torsions:
REMARK  status: ('A' for Active; 'I' for Inactive)
REMARK    1  A    between atoms: C_1  and  C_2
REMARK    2  A    between atoms: C_2  and  C_3
REMARK    3  A    between atoms: C_3  and  C_4
REMARK    4  A    between atoms: C_4  and  N_5
REMARK    5  A    between atoms: N_5  and  C_6
REMARK    6  A    between atoms: C_6  and  C_7
REMARK    7  A    between atoms: C_12  and  C_14
REMARK    8  A    between atoms: C_15  and  C_28
REMARK                            x       y       z     vdW  Elec       q    Type
REMARK                         _______ _______ _______ _____ _____    ______ ____
ROOT
ATOM      1  C   UNL     1       3.271   3.739   0.517  0.00  0.00    +0.080 A 
ATOM      2  C   UNL     1       3.499   2.406   0.699  0.00  0.00    -0.017 A 
ATOM      3  C   UNL     1       2.436   1.554   1.007  0.00  0.00    +0.076 A 
ATOM      4  C   UNL     1       1.162   2.163   1.084  0.00  0.00    +0.116 A 
ATOM      5  S   UNL     1       1.509   3.874   0.763  0.00  0.00    -0.064 S 
ATOM      6  N   UNL     1       0.075   1.456   1.343  0.00  0.00    -0.226 NA
ATOM      7  C   UNL     1       0.107   0.164   1.580  0.00  0.00    +0.114 A 
ATOM      8  N   UNL     1       1.280  -0.512   1.608  0.00  0.00    -0.296 N 
ATOM      9  C   UNL     1       2.440   0.100   1.265  0.00  0.00    +0.263 A 
ATOM     10  O   UNL     1       3.472  -0.540   1.171  0.00  0.00    -0.267 OA
ATOM     11  C   UNL     1       1.380  -1.912   2.031  0.00  0.00    +0.126 C 
ATOM     12  C   UNL     1       0.050  -2.637   1.843  0.00  0.00    +0.022 C 
ATOM     13  C   UNL     1      -1.040  -1.825   2.557  0.00  0.00    +0.009 C 
ATOM     14  C   UNL     1      -1.224  -0.516   1.792  0.00  0.00    +0.074 C 
ATOM     15  C   UNL     1       4.895   1.854   0.567  0.00  0.00    +0.046 C 
ENDROOT
BRANCH   1  17
ATOM     16  N   UNL     1       3.800   6.039  -0.093  0.00  0.00    -0.290 N 
ATOM     17  C   UNL     1       4.235   4.797   0.199  0.00  0.00    +0.254 C 
ATOM     18  O   UNL     1       5.428   4.554   0.198  0.00  0.00    -0.269 OA
BRANCH  16  19
ATOM     19  C   UNL     1       2.370   6.350  -0.021  0.00  0.00    +0.108 C 
BRANCH  19  20
ATOM     20  C   UNL     1       1.988   6.662   1.427  0.00  0.00    +0.019 C 
BRANCH  20  22
ATOM     21  C   UNL     1       0.113   7.299   2.950  0.00  0.00    +0.004 C 
ATOM     22  C   UNL     1       0.495   6.987   1.502  0.00  0.00    -0.002 C 
ENDBRANCH  20  22
ENDBRANCH  19  20
ENDBRANCH  16  19
BRANCH  16  23
ATOM     23  C   UNL     1       4.757   7.077  -0.482  0.00  0.00    +0.182 C 
BRANCH  23  24
ATOM     24  C   UNL     1       4.936   7.061  -1.978  0.00  0.00    +0.122 A 
ATOM     25  C   UNL     1       4.212   7.766  -2.865  0.00  0.00    +0.046 A 
ATOM     26  C   UNL     1       4.714   7.451  -4.148  0.00  0.00    +0.041 A 
ATOM     27  C   UNL     1       5.716   6.572  -3.969  0.00  0.00    +0.195 A 
ATOM     28  O   UNL     1       5.850   6.343  -2.652  0.00  0.00    -0.466 OA
ENDBRANCH  23  24
ENDBRANCH  16  23
ENDBRANCH   1  17
TORSDOF 6
