REMARK  Name = ZINC36561504
REMARK  15 active torsions:
REMARK  status: ('A' for Active; 'I' for Inactive)
REMARK    1  A    between atoms: C_1  and  C_2
REMARK    2  A    between atoms: C_2  and  C_3
REMARK    3  A    between atoms: C_3  and  N_4
REMARK    4  A    between atoms: N_4  and  C_5
REMARK    5  A    between atoms: C_5  and  C_7
REMARK    6  A    between atoms: C_5  and  C_16
REMARK    7  A    between atoms: C_7  and  C_9
REMARK    8  A    between atoms: C_7  and  C_10
REMARK    9  A    between atoms: N_18  and  C_19
REMARK   10  A    between atoms: C_19  and  S_20
REMARK   11  A    between atoms: S_20  and  C_23
REMARK   12  A    between atoms: C_26  and  C_29
REMARK   13  A    between atoms: C_30  and  C_32
REMARK   14  A    between atoms: C_32  and  C_33
REMARK   15  A    between atoms: C_38  and  C_39
REMARK                            x       y       z     vdW  Elec       q    Type
REMARK                         _______ _______ _______ _____ _____    ______ ____
ROOT
ATOM      1  C   UNL     1       0.065  -2.821  -1.472  0.00  0.00    +0.169 C 
ENDROOT
BRANCH   1   2
ATOM      2  C   UNL     1      -1.380  -2.500  -1.189  0.00  0.00    +0.235 C 
ATOM      3  O   UNL     1      -2.153  -2.323  -2.106  0.00  0.00    -0.274 OA
ATOM      4  N   UNL     1      -1.813  -2.410   0.084  0.00  0.00    -0.295 N 
ATOM      5  H   UNL     1      -1.182  -2.481   0.818  0.00  0.00    +0.150 HD
BRANCH   4   6
ATOM      6  C   UNL     1      -3.237  -2.204   0.360  0.00  0.00    +0.278 C 
BRANCH   6   7
ATOM      7  S   UNL     1      -4.028  -3.805   0.682  0.00  0.00    +0.013 S 
ATOM      8  O   UNL     1      -5.386  -3.615   1.054  0.00  0.00    -0.168 OA
ATOM      9  O   UNL     1      -3.678  -4.737  -0.333  0.00  0.00    -0.168 OA
BRANCH   7  10
ATOM     10  C   UNL     1      -3.244  -4.412   2.139  0.00  0.00    +0.090 A 
ATOM     11  C   UNL     1      -2.058  -5.115   2.044  0.00  0.00    +0.027 A 
ATOM     12  C   UNL     1      -1.443  -5.591   3.187  0.00  0.00    +0.005 A 
ATOM     13  C   UNL     1      -2.015  -5.365   4.425  0.00  0.00    -0.050 A 
ATOM     14  C   UNL     1      -3.201  -4.661   4.520  0.00  0.00    +0.005 A 
ATOM     15  C   UNL     1      -3.813  -4.181   3.377  0.00  0.00    +0.027 A 
ATOM     16  C   UNL     1      -1.345  -5.885   5.671  0.00  0.00    +0.044 C 
ENDBRANCH   7  10
ENDBRANCH   6   7
ENDBRANCH   4   6
ENDBRANCH   1   2
BRANCH   1  17
ATOM     17  N   UNL     1       0.906  -2.270  -0.406  0.00  0.00    -0.289 N 
ATOM     18  C   UNL     1       1.581  -3.098   0.416  0.00  0.00    +0.221 C 
ATOM     19  O   UNL     1       1.492  -4.299   0.273  0.00  0.00    -0.275 OA
BRANCH  17  20
ATOM     20  C   UNL     1       1.012  -0.819  -0.233  0.00  0.00    +0.108 C 
BRANCH  20  22
ATOM     21  C   UNL     1       0.212   1.134   1.104  0.00  0.00    +0.005 C 
ATOM     22  C   UNL     1       0.011  -0.357   0.828  0.00  0.00    +0.016 C 
ENDBRANCH  20  22
ENDBRANCH  17  20
BRANCH  18  23
ATOM     23  C   UNL     1       2.445  -2.531   1.513  0.00  0.00    +0.131 C 
BRANCH  23  24
ATOM     24  C   UNL     1       3.085  -3.659   2.281  0.00  0.00    -0.036 A 
ATOM     25  C   UNL     1       2.492  -4.131   3.438  0.00  0.00    +0.004 A 
ATOM     26  C   UNL     1       3.078  -5.165   4.143  0.00  0.00    +0.000 A 
ATOM     27  C   UNL     1       4.258  -5.727   3.692  0.00  0.00    +0.000 A 
ATOM     28  C   UNL     1       4.850  -5.256   2.535  0.00  0.00    +0.003 A 
ATOM     29  C   UNL     1       4.261  -4.225   1.828  0.00  0.00    -0.047 A 
ATOM     30  C   UNL     1       4.905  -3.714   0.564  0.00  0.00    +0.044 C 
ENDBRANCH  23  24
ENDBRANCH  18  23
ENDBRANCH   1  17
BRANCH   1  31
ATOM     31  C   UNL     1       0.472  -2.205  -2.812  0.00  0.00    +0.045 C 
ATOM     32  C   UNL     1       1.971  -2.414  -3.035  0.00  0.00    +0.015 C 
BRANCH  31  33
ATOM     33  C   UNL     1      -0.299  -2.867  -3.924  0.00  0.00    -0.042 A 
ATOM     34  C   UNL     1      -0.277  -4.243  -4.056  0.00  0.00    +0.004 A 
ATOM     35  C   UNL     1      -0.984  -4.851  -5.077  0.00  0.00    +0.000 A 
ATOM     36  C   UNL     1      -1.714  -4.083  -5.964  0.00  0.00    +0.000 A 
ATOM     37  C   UNL     1      -1.738  -2.708  -5.831  0.00  0.00    +0.000 A 
ATOM     38  C   UNL     1      -1.034  -2.100  -4.808  0.00  0.00    +0.004 A 
ENDBRANCH  31  33
ENDBRANCH   1  31
TORSDOF 11
