REMARK  Name = ZINC07613726
REMARK  5 active torsions:
REMARK  status: ('A' for Active; 'I' for Inactive)
REMARK    1  A    between atoms: C_1  and  O_2
REMARK    2  A    between atoms: O_2  and  C_3
REMARK    3  A    between atoms: C_3  and  C_5
REMARK    4  A    between atoms: C_9  and  N_10
REMARK    5  A    between atoms: C_11  and  C_13
REMARK                            x       y       z     vdW  Elec       q    Type
REMARK                         _______ _______ _______ _____ _____    ______ ____
ROOT
ATOM      1  C   UNL     1      -2.503   1.114   0.014  0.00  0.00    +0.091 A 
ATOM      2  C   UNL     1      -3.619   2.050   0.034  0.00  0.00    -0.021 A 
ATOM      3  C   UNL     1      -3.269   3.354   0.035  0.00  0.00    -0.004 A 
ATOM      4  S   UNL     1      -1.497   3.351   0.027  0.00  0.00    -0.077 S 
ATOM      5  C   UNL     1      -1.219   1.642   0.017  0.00  0.00    +0.087 A 
ATOM      6  C   UNL     1      -4.176   4.545   0.028  0.00  0.00    +0.043 C 
ATOM      7  C   UNL     1      -5.249   4.372   1.111  0.00  0.00    +0.005 C 
ATOM      8  C   UNL     1      -6.441   3.644   0.496  0.00  0.00    +0.001 C 
ATOM      9  C   UNL     1      -5.963   2.660  -0.570  0.00  0.00    +0.005 C 
ATOM     10  C   UNL     1      -5.072   1.592   0.053  0.00  0.00    +0.037 C 
ENDROOT
BRANCH   5  11
ATOM     11  N   UNL     1      -0.011   0.966   0.007  0.00  0.00    -0.273 N 
ATOM     12  C   UNL     1       1.147   1.655   0.000  0.00  0.00    +0.284 C 
ATOM     13  O   UNL     1       1.130   2.872   0.007  0.00  0.00    -0.266 OA
ATOM     14  H   UNL     1       0.002  -0.004   0.002  0.00  0.00    +0.156 HD
BRANCH  12  15
ATOM     15  C   UNL     1       2.429   0.938  -0.016  0.00  0.00    +0.191 A 
ATOM     16  C   UNL     1       3.654   1.526  -0.025  0.00  0.00    +0.063 A 
ATOM     17  C   UNL     1       4.627   0.435  -0.039  0.00  0.00    +0.021 A 
ATOM     18  C   UNL     1       6.022   0.375  -0.052  0.00  0.00    +0.011 A 
ATOM     19  C   UNL     1       6.648  -0.840  -0.063  0.00  0.00    +0.001 A 
ATOM     20  C   UNL     1       5.905  -2.013  -0.062  0.00  0.00    +0.004 A 
ATOM     21  C   UNL     1       4.528  -1.976  -0.049  0.00  0.00    +0.047 A 
ATOM     22  C   UNL     1       3.869  -0.751  -0.037  0.00  0.00    +0.136 A 
ATOM     23  O   UNL     1       2.568  -0.404  -0.019  0.00  0.00    -0.450 OA
ENDBRANCH  12  15
ENDBRANCH   5  11
BRANCH   1  24
ATOM     24  C   UNL     1      -2.727  -0.332  -0.004  0.00  0.00    +0.342 C 
ATOM     25  O   UNL     1      -2.817  -0.947   1.042  0.00  0.00    -0.245 OA
BRANCH  24  27
ATOM     26  C   UNL     1      -3.056  -2.417  -1.122  0.00  0.00    +0.280 C 
ATOM     27  O   UNL     1      -2.834  -0.984  -1.180  0.00  0.00    -0.464 OA
ENDBRANCH  24  27
ENDBRANCH   1  24
TORSDOF 4
