REMARK  Name = ZINC20339825
REMARK  6 active torsions:
REMARK  status: ('A' for Active; 'I' for Inactive)
REMARK    1  A    between atoms: C_1  and  C_2
REMARK    2  A    between atoms: C_6  and  C_8
REMARK    3  A    between atoms: N_12  and  C_21
REMARK    4  A    between atoms: C_16  and  N_20
REMARK    5  A    between atoms: C_21  and  C_22
REMARK    6  A    between atoms: C_22  and  C_24
REMARK                            x       y       z     vdW  Elec       q    Type
REMARK                         _______ _______ _______ _____ _____    ______ ____
ROOT
ATOM      1  C   UNL     1       0.584   1.215   0.411  0.00  0.00    +0.059 C 
ATOM      2  C   UNL     1       1.675   1.851  -0.071  0.00  0.00    +0.191 C 
ATOM      3  C   UNL     1       1.638   3.286  -0.426  0.00  0.00    +0.287 C 
ATOM      4  O   UNL     1       0.597   3.832  -0.741  0.00  0.00    -0.266 OA
ATOM      5  N   UNL     1       2.807   3.970  -0.389  0.00  0.00    -0.258 N 
ATOM      6  C   UNL     1       3.975   3.292  -0.006  0.00  0.00    +0.080 A 
ATOM      7  C   UNL     1       5.120   4.009   0.308  0.00  0.00    +0.029 A 
ATOM      8  C   UNL     1       6.271   3.343   0.686  0.00  0.00    +0.025 A 
ATOM      9  C   UNL     1       6.284   1.956   0.753  0.00  0.00    +0.028 A 
ATOM     10  C   UNL     1       5.139   1.234   0.440  0.00  0.00    +0.071 A 
ATOM     11  C   UNL     1       3.986   1.899   0.060  0.00  0.00    +0.152 A 
ATOM     12  O   UNL     1       2.864   1.197  -0.246  0.00  0.00    -0.449 OA
ENDROOT
BRANCH   1  18
ATOM     13  C   UNL     1      -4.384   1.587   0.603  0.00  0.00    +0.044 C 
ATOM     14  C   UNL     1      -3.016   2.168   0.852  0.00  0.00    -0.050 A 
ATOM     15  C   UNL     1      -2.893   3.429   1.409  0.00  0.00    +0.003 A 
ATOM     16  C   UNL     1      -1.641   3.972   1.642  0.00  0.00    +0.001 A 
ATOM     17  C   UNL     1      -0.506   3.256   1.325  0.00  0.00    +0.008 A 
ATOM     18  C   UNL     1      -0.622   1.983   0.757  0.00  0.00    -0.021 A 
ATOM     19  C   UNL     1      -1.891   1.442   0.525  0.00  0.00    +0.011 A 
ENDBRANCH   1  18
BRANCH   9  20
ATOM     20  N   UNL     1       7.450   1.286   1.137  0.00  0.00    -0.358 N 
ATOM     21  H   UNL     1       7.460   0.187   1.190  0.00  0.00    +0.142 HD
ATOM     22  H   UNL     1       8.356   1.857   1.385  0.00  0.00    +0.142 HD
ENDBRANCH   9  20
BRANCH   5  23
ATOM     23  C   UNL     1       2.851   5.391  -0.741  0.00  0.00    +0.144 C 
BRANCH  23  24
ATOM     24  C   UNL     1       3.226   5.537  -2.193  0.00  0.00    -0.062 C 
ATOM     25  C   UNL     1       2.292   5.693  -3.098  0.00  0.00    +0.009 C 
ATOM     26  C   UNL     1       4.675   5.505  -2.604  0.00  0.00    +0.040 C 
ENDBRANCH  23  24
ENDBRANCH   5  23
TORSDOF 4
