REMARK  Name = ZINC01440784
REMARK  7 active torsions:
REMARK  status: ('A' for Active; 'I' for Inactive)
REMARK    1  A    between atoms: C_1  and  N_2
REMARK    2  A    between atoms: N_2  and  C_3
REMARK    3  A    between atoms: N_2  and  N_4
REMARK    4  A    between atoms: C_7  and  C_14
REMARK    5  A    between atoms: C_9  and  C_12
REMARK    6  A    between atoms: C_10  and  N_11
REMARK    7  A    between atoms: C_27  and  C_30
REMARK                            x       y       z     vdW  Elec       q    Type
REMARK                         _______ _______ _______ _____ _____    ______ ____
ROOT
ATOM      1  N   UNL     1       0.605  -0.288   0.417  0.00  0.00    -0.223 N 
ATOM      2  C   UNL     1       0.009  -1.097   1.346  0.00  0.00    +0.037 C 
ATOM      3  C   UNL     1      -0.905  -2.019   0.969  0.00  0.00    +0.026 C 
ATOM      4  C   UNL     1      -1.294  -2.178  -0.479  0.00  0.00    +0.097 C 
ATOM      5  C   UNL     1      -0.277  -1.548  -1.385  0.00  0.00    +0.078 C 
ATOM      6  C   UNL     1       0.616  -0.640  -0.911  0.00  0.00    +0.117 C 
ATOM      7  C   UNL     1      -1.516  -2.862   1.914  0.00  0.00    +0.162 C 
ATOM      8  O   UNL     1      -2.336  -3.678   1.542  0.00  0.00    -0.292 OA
ATOM      9  C   UNL     1      -1.159  -2.781   3.378  0.00  0.00    +0.088 C 
ATOM     10  C   UNL     1       0.279  -2.270   3.519  0.00  0.00    +0.032 C 
ATOM     11  C   UNL     1       0.390  -0.926   2.796  0.00  0.00    +0.061 C 
ENDROOT
BRANCH   4  12
ATOM     12  C   UNL     1      -2.631  -1.521  -0.706  0.00  0.00    -0.034 A 
ATOM     13  C   UNL     1      -2.772  -0.153  -0.479  0.00  0.00    +0.005 A 
ATOM     14  C   UNL     1      -3.964   0.472  -0.679  0.00  0.00    +0.009 A 
ATOM     15  C   UNL     1      -5.076  -0.273  -1.109  0.00  0.00    -0.018 A 
ATOM     16  C   UNL     1      -6.324   0.337  -1.321  0.00  0.00    +0.008 A 
ATOM     17  C   UNL     1      -7.379  -0.416  -1.737  0.00  0.00    +0.001 A 
ATOM     18  C   UNL     1      -7.240  -1.786  -1.958  0.00  0.00    +0.001 A 
ATOM     19  C   UNL     1      -6.046  -2.409  -1.764  0.00  0.00    +0.008 A 
ATOM     20  C   UNL     1      -4.935  -1.665  -1.334  0.00  0.00    -0.018 A 
ATOM     21  C   UNL     1      -3.686  -2.274  -1.122  0.00  0.00    +0.013 A 
ENDBRANCH   4  12
BRANCH  10  22
ATOM     22  C   UNL     1       0.611  -2.090   4.978  0.00  0.00    -0.044 A 
ATOM     23  C   UNL     1      -0.138  -1.227   5.756  0.00  0.00    +0.004 A 
ATOM     24  C   UNL     1       0.165  -1.065   7.095  0.00  0.00    +0.000 A 
ATOM     25  C   UNL     1       1.222  -1.758   7.654  0.00  0.00    +0.000 A 
ATOM     26  C   UNL     1       1.974  -2.617   6.875  0.00  0.00    +0.000 A 
ATOM     27  C   UNL     1       1.669  -2.782   5.537  0.00  0.00    +0.004 A 
ENDBRANCH  10  22
BRANCH   1  29
ATOM     28  C   UNL     1       2.655   0.814   0.627  0.00  0.00    +0.128 C 
ATOM     29  N   UNL     1       1.200   0.875   0.815  0.00  0.00    -0.227 NA
ATOM     30  C   UNL     1       0.625   2.028   0.108  0.00  0.00    +0.128 C 
ENDBRANCH   1  29
BRANCH   6  31
ATOM     31  N   UNL     1       1.533  -0.072  -1.763  0.00  0.00    -0.344 N 
ATOM     32  H   UNL     1       1.845   0.833  -1.606  0.00  0.00    +0.144 HD
ATOM     33  H   UNL     1       1.867  -0.575  -2.522  0.00  0.00    +0.144 HD
ENDBRANCH   6  31
BRANCH   5  34
ATOM     34  C   UNL     1      -0.247  -1.909  -2.770  0.00  0.00    +0.099 C 
ATOM     35  N   UNL     1      -0.224  -2.195  -3.869  0.00  0.00    -0.191 NA
ENDBRANCH   5  34
TORSDOF 5
