REMARK  Name = ZINC41006426
REMARK  11 active torsions:
REMARK  status: ('A' for Active; 'I' for Inactive)
REMARK    1  A    between atoms: C_1  and  C_2
REMARK    2  A    between atoms: C_2  and  C_3
REMARK    3  A    between atoms: C_6  and  C_9
REMARK    4  A    between atoms: C_11  and  C_31
REMARK    5  A    between atoms: C_16  and  C_29
REMARK    6  A    between atoms: C_16  and  O_30
REMARK    7  A    between atoms: C_17  and  C_19
REMARK    8  A    between atoms: N_21  and  C_22
REMARK    9  A    between atoms: C_27  and  C_28
REMARK   10  A    between atoms: N_33  and  C_34
REMARK   11  A    between atoms: C_39  and  C_40
REMARK                            x       y       z     vdW  Elec       q    Type
REMARK                         _______ _______ _______ _____ _____    ______ ____
ROOT
ATOM      1  C   UNL     1      -5.524  -2.456  -0.211  0.00  0.00    +0.053 C 
ATOM      2  C   UNL     1      -5.508  -3.822  -0.905  0.00  0.00    +0.149 C 
ATOM      3  C   UNL     1      -6.931  -4.324  -1.013  0.00  0.00    +0.148 C 
ATOM      4  O   UNL     1      -7.228  -5.430  -0.631  0.00  0.00    -0.296 OA
ATOM      5  C   UNL     1      -7.973  -3.404  -1.610  0.00  0.00    +0.110 C 
ATOM      6  C   UNL     1      -7.899  -2.053  -0.890  0.00  0.00    +0.082 C 
ATOM      7  C   UNL     1      -6.469  -1.516  -0.962  0.00  0.00    +0.115 C 
ATOM      8  C   UNL     1      -8.850  -1.063  -1.566  0.00  0.00    +0.042 C 
ENDROOT
BRANCH   1  12
ATOM      9  C   UNL     1      -1.581  -0.814  -0.211  0.00  0.00    -0.048 A 
ATOM     10  C   UNL     1      -2.148  -1.249   0.972  0.00  0.00    +0.004 A 
ATOM     11  C   UNL     1      -3.424  -1.780   0.972  0.00  0.00    +0.004 A 
ATOM     12  C   UNL     1      -4.133  -1.876  -0.211  0.00  0.00    -0.042 A 
ATOM     13  C   UNL     1      -3.566  -1.440  -1.394  0.00  0.00    +0.004 A 
ATOM     14  C   UNL     1      -2.292  -0.904  -1.393  0.00  0.00    +0.004 A 
BRANCH   9  16
ATOM     15  C   UNL     1      -0.266   1.276   0.017  0.00  0.00    +0.009 C 
ATOM     16  C   UNL     1      -0.189  -0.234  -0.211  0.00  0.00    +0.032 C 
ENDBRANCH   9  16
ENDBRANCH   1  12
BRANCH   7  17
ATOM     17  C   UNL     1      -6.041  -1.421  -2.403  0.00  0.00    +0.224 C 
ATOM     18  O   UNL     1      -6.373  -2.280  -3.192  0.00  0.00    -0.275 OA
ATOM     19  N   UNL     1      -5.288  -0.382  -2.816  0.00  0.00    -0.285 N 
ATOM     20  H   UNL     1      -4.950   0.258  -2.171  0.00  0.00    +0.155 HD
BRANCH  19  21
ATOM     21  C   UNL     1      -4.996  -0.226  -4.176  0.00  0.00    +0.036 A 
ATOM     22  C   UNL     1      -5.685  -0.970  -5.125  0.00  0.00    +0.023 A 
ATOM     23  C   UNL     1      -5.394  -0.814  -6.466  0.00  0.00    +0.002 A 
ATOM     24  C   UNL     1      -4.418   0.081  -6.864  0.00  0.00    +0.000 A 
ATOM     25  C   UNL     1      -3.730   0.823  -5.921  0.00  0.00    +0.005 A 
ATOM     26  C   UNL     1      -4.021   0.676  -4.579  0.00  0.00    -0.029 A 
ATOM     27  C   UNL     1      -3.276   1.490  -3.552  0.00  0.00    +0.045 C 
ENDBRANCH  19  21
ENDBRANCH   7  17
BRANCH   2  28
ATOM     28  C   UNL     1      -4.911  -3.683  -2.282  0.00  0.00    +0.228 C 
ATOM     29  O   UNL     1      -3.798  -3.220  -2.416  0.00  0.00    -0.275 OA
ATOM     30  N   UNL     1      -5.613  -4.074  -3.364  0.00  0.00    -0.285 N 
ATOM     31  H   UNL     1      -6.530  -4.376  -3.264  0.00  0.00    +0.155 HD
BRANCH  30  32
ATOM     32  C   UNL     1      -5.020  -4.046  -4.631  0.00  0.00    +0.036 A 
ATOM     33  C   UNL     1      -3.645  -3.893  -4.752  0.00  0.00    +0.023 A 
ATOM     34  C   UNL     1      -3.063  -3.865  -6.004  0.00  0.00    +0.002 A 
ATOM     35  C   UNL     1      -3.847  -3.988  -7.136  0.00  0.00    +0.000 A 
ATOM     36  C   UNL     1      -5.217  -4.139  -7.019  0.00  0.00    +0.005 A 
ATOM     37  C   UNL     1      -5.804  -4.175  -5.769  0.00  0.00    -0.029 A 
ATOM     38  C   UNL     1      -7.296  -4.347  -5.642  0.00  0.00    +0.045 C 
ENDBRANCH  30  32
ENDBRANCH   2  28
BRANCH   6  39
ATOM     39  O   UNL     1      -8.278  -2.220   0.477  0.00  0.00    -0.388 OA
ATOM     40  H   UNL     1      -9.175  -2.559   0.598  0.00  0.00    +0.210 HD
ENDBRANCH   6  39
TORSDOF 7
