REMARK  Name = ZINC14021788
REMARK  9 active torsions:
REMARK  status: ('A' for Active; 'I' for Inactive)
REMARK    1  A    between atoms: C_1  and  N_2
REMARK    2  A    between atoms: N_2  and  C_3
REMARK    3  A    between atoms: N_2  and  S_9
REMARK    4  A    between atoms: S_9  and  C_12
REMARK    5  A    between atoms: C_17  and  N_18
REMARK    6  A    between atoms: C_19  and  C_21
REMARK    7  A    between atoms: C_21  and  S_22
REMARK    8  A    between atoms: S_22  and  C_23
REMARK    9  A    between atoms: C_27  and  C_29
REMARK                            x       y       z     vdW  Elec       q    Type
REMARK                         _______ _______ _______ _____ _____    ______ ____
ROOT
ATOM      1  C   UNL     1       1.690  -1.063  -1.929  0.00  0.00    +0.127 A 
ATOM      2  C   UNL     1       2.221  -2.335  -2.014  0.00  0.00    +0.030 A 
ATOM      3  C   UNL     1       3.541  -2.512  -2.386  0.00  0.00    +0.002 A 
ATOM      4  C   UNL     1       4.334  -1.417  -2.675  0.00  0.00    +0.002 A 
ATOM      5  C   UNL     1       3.809  -0.142  -2.593  0.00  0.00    +0.025 A 
ATOM      6  C   UNL     1       2.482   0.039  -2.224  0.00  0.00    +0.060 A 
ENDROOT
BRANCH   6   7
ATOM      7  N   UNL     1       1.947   1.329  -2.144  0.00  0.00    -0.283 N 
ATOM      8  C   UNL     1       2.718   2.355  -1.734  0.00  0.00    +0.228 C 
ATOM      9  O   UNL     1       3.896   2.176  -1.509  0.00  0.00    -0.275 OA
ATOM     10  H   UNL     1       1.020   1.485  -2.384  0.00  0.00    +0.155 HD
BRANCH   8  11
ATOM     11  C   UNL     1       2.117   3.726  -1.556  0.00  0.00    +0.173 C 
BRANCH  11  12
ATOM     12  S   UNL     1       3.400   4.881  -1.001  0.00  0.00    -0.077 S 
BRANCH  12  13
ATOM     13  C   UNL     1       2.551   6.417  -0.841  0.00  0.00    +0.185 A 
ATOM     14  N   UNL     1       3.099   7.590  -0.454  0.00  0.00    -0.253 N 
ATOM     15  H   UNL     1       4.025   7.746  -0.212  0.00  0.00    +0.191 HD
ATOM     16  N   UNL     1       2.064   8.539  -0.469  0.00  0.00    -0.151 NA
ATOM     17  C   UNL     1       0.974   7.910  -0.853  0.00  0.00    +0.189 A 
ATOM     18  N   UNL     1       1.275   6.622  -1.083  0.00  0.00    -0.200 NA
BRANCH  17  19
ATOM     19  C   UNL     1      -0.362   8.523  -1.011  0.00  0.00    +0.058 A 
ATOM     20  C   UNL     1      -0.746   9.821  -0.808  0.00  0.00    +0.019 A 
ATOM     21  C   UNL     1      -2.063  10.164  -1.022  0.00  0.00    +0.008 A 
ATOM     22  C   UNL     1      -2.938   9.208  -1.426  0.00  0.00    +0.046 A 
ATOM     23  S   UNL     1      -1.895   7.763  -1.523  0.00  0.00    -0.093 S 
ENDBRANCH  17  19
ENDBRANCH  12  13
ENDBRANCH  11  12
ENDBRANCH   8  11
ENDBRANCH   6   7
BRANCH   1  24
ATOM     24  S   UNL     1       0.008  -0.838  -1.455  0.00  0.00    +0.063 S 
ATOM     25  O   UNL     1      -0.517  -2.133  -1.198  0.00  0.00    -0.153 OA
ATOM     26  O   UNL     1      -0.569   0.043  -2.409  0.00  0.00    -0.153 OA
BRANCH  24  28
ATOM     27  C   UNL     1      -0.014   1.432   0.015  0.00  0.00    +0.132 C 
ATOM     28  N   UNL     1       0.011  -0.033  -0.008  0.00  0.00    -0.177 NA
BRANCH  28  29
ATOM     29  C   UNL     1       0.038  -0.785   1.249  0.00  0.00    +0.080 C 
ATOM     30  C   UNL     1      -1.208  -0.450   2.071  0.00  0.00    +0.020 C 
ATOM     31  C   UNL     1      -1.180  -1.235   3.383  0.00  0.00    +0.002 C 
ATOM     32  C   UNL     1       0.072  -0.857   4.177  0.00  0.00    +0.000 C 
ATOM     33  C   UNL     1       1.318  -1.192   3.355  0.00  0.00    +0.002 C 
ATOM     34  C   UNL     1       1.290  -0.407   2.043  0.00  0.00    +0.020 C 
ENDBRANCH  28  29
ENDBRANCH  24  28
ENDBRANCH   1  24
TORSDOF 8
