REMARK  Name = ZINC14201450
REMARK  7 active torsions:
REMARK  status: ('A' for Active; 'I' for Inactive)
REMARK    1  A    between atoms: C_1  and  C_2
REMARK    2  A    between atoms: C_2  and  C_4
REMARK    3  A    between atoms: C_2  and  N_19
REMARK    4  A    between atoms: N_6  and  C_7
REMARK    5  A    between atoms: C_8  and  C_17
REMARK    6  A    between atoms: C_22  and  C_27
REMARK    7  A    between atoms: C_27  and  C_28
REMARK                            x       y       z     vdW  Elec       q    Type
REMARK                         _______ _______ _______ _____ _____    ______ ____
ROOT
ATOM      1  C   UNL     1      -1.429   2.830  -1.225  0.00  0.00    +0.038 C 
ATOM      2  C   UNL     1      -1.330   1.944   0.019  0.00  0.00    +0.168 C 
ENDROOT
BRANCH   2   3
ATOM      3  N   UNL     1      -2.430   0.977   0.019  0.00  0.00    -0.213 N 
ATOM      4  C   UNL     1      -3.359   0.888   0.991  0.00  0.00    +0.244 C 
ATOM      5  O   UNL     1      -3.439   1.566   1.993  0.00  0.00    -0.273 OA
ATOM      6  C   UNL     1      -4.285  -0.237   0.571  0.00  0.00    +0.165 C 
ATOM      7  N   UNL     1      -3.712  -0.698  -0.706  0.00  0.00    -0.287 N 
ATOM      8  C   UNL     1      -2.634   0.070  -0.943  0.00  0.00    +0.310 C 
ATOM      9  O   UNL     1      -1.924  -0.046  -1.923  0.00  0.00    -0.252 OA
ATOM     10  H   UNL     1      -4.047  -1.416  -1.266  0.00  0.00    +0.151 HD
BRANCH   6  11
ATOM     11  C   UNL     1      -5.711   0.278   0.366  0.00  0.00    +0.067 C 
BRANCH  11  12
ATOM     12  C   UNL     1      -6.606  -0.867  -0.031  0.00  0.00    -0.045 A 
ATOM     13  C   UNL     1      -6.779  -1.178  -1.367  0.00  0.00    +0.004 A 
ATOM     14  C   UNL     1      -7.596  -2.232  -1.731  0.00  0.00    +0.000 A 
ATOM     15  C   UNL     1      -8.249  -2.968  -0.760  0.00  0.00    +0.000 A 
ATOM     16  C   UNL     1      -8.080  -2.654   0.576  0.00  0.00    +0.000 A 
ATOM     17  C   UNL     1      -7.259  -1.604   0.940  0.00  0.00    +0.004 A 
ENDBRANCH  11  12
ENDBRANCH   6  11
ENDBRANCH   2   3
BRANCH   2  18
ATOM     18  C   UNL     1      -0.014   1.209   0.009  0.00  0.00    +0.238 C 
ATOM     19  O   UNL     1       0.002  -0.004   0.002  0.00  0.00    -0.273 OA
ATOM     20  N   UNL     1       1.143   1.898   0.001  0.00  0.00    -0.277 N 
ATOM     21  H   UNL     1       1.130   2.868   0.007  0.00  0.00    +0.155 HD
BRANCH  20  22
ATOM     22  C   UNL     1       2.355   1.221  -0.014  0.00  0.00    +0.090 A 
ATOM     23  C   UNL     1       3.636   1.747  -0.023  0.00  0.00    +0.084 A 
ATOM     24  C   UNL     1       4.753   0.813  -0.035  0.00  0.00    -0.018 A 
ATOM     25  C   UNL     1       4.404  -0.491  -0.046  0.00  0.00    -0.004 A 
ATOM     26  S   UNL     1       2.632  -0.489  -0.018  0.00  0.00    -0.077 S 
ATOM     27  C   UNL     1       5.311  -1.682  -0.074  0.00  0.00    +0.043 C 
ATOM     28  C   UNL     1       6.390  -1.520   1.005  0.00  0.00    +0.005 C 
ATOM     29  C   UNL     1       7.578  -0.784   0.393  0.00  0.00    +0.001 C 
ATOM     30  C   UNL     1       7.094   0.213  -0.658  0.00  0.00    +0.005 C 
ATOM     31  C   UNL     1       6.205   1.274  -0.018  0.00  0.00    +0.037 C 
BRANCH  23  32
ATOM     32  C   UNL     1       3.854   3.163  -0.021  0.00  0.00    +0.102 C 
ATOM     33  N   UNL     1       4.028   4.285  -0.020  0.00  0.00    -0.191 NA
ENDBRANCH  23  32
ENDBRANCH  20  22
ENDBRANCH   2  18
TORSDOF 6
