REMARK  Name = ZINC12106059
REMARK  7 active torsions:
REMARK  status: ('A' for Active; 'I' for Inactive)
REMARK    1  A    between atoms: C_4  and  C_7
REMARK    2  A    between atoms: C_7  and  C_8
REMARK    3  A    between atoms: C_11  and  S_19
REMARK    4  A    between atoms: N_12  and  C_13
REMARK    5  A    between atoms: S_19  and  C_20
REMARK    6  A    between atoms: C_20  and  C_21
REMARK    7  A    between atoms: C_29  and  N_31
REMARK                            x       y       z     vdW  Elec       q    Type
REMARK                         _______ _______ _______ _____ _____    ______ ____
ROOT
ATOM      1  C   UNL     1      -5.260  -2.938  -1.637  0.00  0.00    +0.143 A 
ATOM      2  N   UNL     1      -4.990  -2.801  -0.369  0.00  0.00    -0.133 NA
ATOM      3  N   UNL     1      -3.874  -2.183  -0.218  0.00  0.00    -0.122 NA
ATOM      4  C   UNL     1      -3.368  -1.879  -1.391  0.00  0.00    +0.197 A 
ATOM      5  N   UNL     1      -4.236  -2.355  -2.336  0.00  0.00    -0.274 N 
ENDROOT
BRANCH   5   6
ATOM      6  C   UNL     1      -4.104  -2.265  -3.729  0.00  0.00    +0.050 A 
ATOM      7  C   UNL     1      -5.015  -1.522  -4.467  0.00  0.00    +0.026 A 
ATOM      8  C   UNL     1      -4.879  -1.430  -5.839  0.00  0.00    +0.002 A 
ATOM      9  C   UNL     1      -3.844  -2.088  -6.478  0.00  0.00    +0.000 A 
ATOM     10  C   UNL     1      -2.939  -2.833  -5.746  0.00  0.00    +0.002 A 
ATOM     11  C   UNL     1      -3.066  -2.924  -4.374  0.00  0.00    +0.026 A 
ENDBRANCH   5   6
BRANCH   1  12
ATOM     12  C   UNL     1      -6.472  -3.613  -2.225  0.00  0.00    +0.111 C 
BRANCH  12  16
ATOM     13  C   UNL     1      -5.646  -7.762  -2.818  0.00  0.00    +0.000 A 
ATOM     14  C   UNL     1      -6.182  -7.328  -1.620  0.00  0.00    +0.000 A 
ATOM     15  C   UNL     1      -6.449  -5.985  -1.428  0.00  0.00    +0.004 A 
ATOM     16  C   UNL     1      -6.180  -5.076  -2.434  0.00  0.00    -0.040 A 
ATOM     17  C   UNL     1      -5.649  -5.511  -3.635  0.00  0.00    +0.004 A 
ATOM     18  C   UNL     1      -5.378  -6.853  -3.825  0.00  0.00    +0.000 A 
ENDBRANCH  12  16
ENDBRANCH   1  12
BRANCH   4  19
ATOM     19  S   UNL     1      -1.855  -1.027  -1.692  0.00  0.00    -0.078 S 
BRANCH  19  20
ATOM     20  C   UNL     1      -1.312  -0.741   0.011  0.00  0.00    +0.153 C 
BRANCH  20  21
ATOM     21  C   UNL     1       0.002  -0.004   0.002  0.00  0.00    +0.142 A 
ATOM     22  N   UNL     1       1.112  -0.703  -0.012  0.00  0.00    -0.231 NA
ATOM     23  C   UNL     1       2.304  -0.087  -0.021  0.00  0.00    +0.076 A 
ATOM     24  C   UNL     1       3.509  -0.802  -0.037  0.00  0.00    +0.028 A 
ATOM     25  C   UNL     1       4.692  -0.125  -0.045  0.00  0.00    +0.002 A 
ATOM     26  C   UNL     1       4.723   1.266  -0.039  0.00  0.00    +0.001 A 
ATOM     27  C   UNL     1       3.569   1.993  -0.023  0.00  0.00    +0.013 A 
ATOM     28  C   UNL     1       2.337   1.329  -0.013  0.00  0.00    +0.040 A 
ATOM     29  C   UNL     1       1.106   2.027   0.002  0.00  0.00    +0.127 A 
ATOM     30  N   UNL     1      -0.016   1.319   0.009  0.00  0.00    -0.216 NA
BRANCH  29  31
ATOM     31  N   UNL     1       1.073   3.405   0.010  0.00  0.00    -0.343 N 
ATOM     32  H   UNL     1       0.222   3.870   0.020  0.00  0.00    +0.144 HD
ATOM     33  H   UNL     1       1.901   3.910   0.004  0.00  0.00    +0.144 HD
ENDBRANCH  29  31
ENDBRANCH  20  21
ENDBRANCH  19  20
ENDBRANCH   4  19
TORSDOF 7
