REMARK  Name = ZINC63985859
REMARK  17 active torsions:
REMARK  status: ('A' for Active; 'I' for Inactive)
REMARK    1  A    between atoms: C_1  and  C_2
REMARK    2  A    between atoms: C_2  and  C_4
REMARK    3  A    between atoms: C_2  and  N_7
REMARK    4  A    between atoms: C_4  and  S_5
REMARK    5  A    between atoms: S_5  and  C_6
REMARK    6  A    between atoms: N_7  and  C_8
REMARK    7  A    between atoms: N_14  and  C_30
REMARK    8  A    between atoms: C_15  and  C_26
REMARK    9  A    between atoms: C_17  and  N_19
REMARK   10  A    between atoms: C_20  and  C_22
REMARK   11  A    between atoms: C_22  and  C_23
REMARK   12  A    between atoms: C_23  and  O_24
REMARK   13  A    between atoms: O_24  and  C_25
REMARK   14  A    between atoms: C_26  and  O_28
REMARK   15  A    between atoms: O_28  and  C_29
REMARK   16  A    between atoms: C_30  and  C_31
REMARK   17  A    between atoms: C_31  and  C_32
REMARK                            x       y       z     vdW  Elec       q    Type
REMARK                         _______ _______ _______ _____ _____    ______ ____
ROOT
ATOM      1  C   UNL     1       0.025  -0.639   2.401  0.00  0.00    +0.044 A 
ATOM      2  C   UNL     1       0.688  -1.095   3.540  0.00  0.00    +0.033 A 
ATOM      3  C   UNL     1      -0.031  -1.226   4.712  0.00  0.00    +0.015 A 
ATOM      4  C   UNL     1      -1.382  -0.907   4.738  0.00  0.00    +0.105 A 
ATOM      5  N   UNL     1      -1.976  -0.475   3.627  0.00  0.00    -0.348 N 
ATOM      6  C   UNL     1      -1.323  -0.332   2.493  0.00  0.00    +0.107 A 
ATOM      7  N   UNL     1      -1.928  -1.104   6.005  0.00  0.00    -0.301 N 
ATOM      8  C   UNL     1      -0.901  -1.592   6.929  0.00  0.00    +0.208 C 
ATOM      9  C   UNL     1       0.385  -1.684   6.091  0.00  0.00    +0.138 C 
ATOM     10  H   UNL     1      -2.921  -0.255   3.655  0.00  0.00    +0.167 HD
ENDROOT
BRANCH   9  11
ATOM     11  N   UNL     1       1.415  -0.796   6.636  0.00  0.00    -0.306 N 
ATOM     12  C   UNL     1       2.714  -1.019   6.354  0.00  0.00    +0.216 C 
ATOM     13  O   UNL     1       3.030  -1.954   5.649  0.00  0.00    -0.276 OA
ATOM     14  H   UNL     1       1.163  -0.049   7.199  0.00  0.00    +0.149 HD
BRANCH  12  15
ATOM     15  C   UNL     1       3.774  -0.107   6.914  0.00  0.00    +0.124 C 
BRANCH  15  16
ATOM     16  C   UNL     1       5.152  -0.578   6.446  0.00  0.00    +0.168 C 
BRANCH  16  17
ATOM     17  O   UNL     1       6.158   0.288   6.977  0.00  0.00    -0.382 OA
ATOM     18  C   UNL     1       7.489  -0.066   6.598  0.00  0.00    +0.194 C 
ENDBRANCH  16  17
ENDBRANCH  15  16
ENDBRANCH  12  15
ENDBRANCH   9  11
BRANCH   1  19
ATOM     19  N   UNL     1       0.711  -0.489   1.189  0.00  0.00    -0.339 N 
ATOM     20  H   UNL     1       1.654  -0.707   1.135  0.00  0.00    +0.146 HD
BRANCH  19  22
ATOM     21  C   UNL     1      -0.019   1.526   0.010  0.00  0.00    +0.028 C 
ATOM     22  C   UNL     1       0.002  -0.004   0.002  0.00  0.00    +0.077 C 
BRANCH  22  23
ATOM     23  C   UNL     1       0.718  -0.497  -1.257  0.00  0.00    +0.090 C 
BRANCH  23  24
ATOM     24  S   UNL     1       0.614  -2.307  -1.342  0.00  0.00    -0.162 S 
ATOM     25  C   UNL     1       1.498  -2.726  -2.869  0.00  0.00    +0.084 C 
ENDBRANCH  23  24
ENDBRANCH  22  23
ENDBRANCH  19  22
ENDBRANCH   1  19
BRANCH   8  26
ATOM     26  C   UNL     1      -0.718  -0.620   8.066  0.00  0.00    +0.330 C 
ATOM     27  O   UNL     1      -1.108   0.518   7.957  0.00  0.00    -0.249 OA
BRANCH  26  28
ATOM     28  O   UNL     1      -0.122  -1.019   9.201  0.00  0.00    -0.467 OA
ATOM     29  C   UNL     1       0.019  -0.046  10.237  0.00  0.00    +0.280 C 
ENDBRANCH  26  28
ENDBRANCH   8  26
BRANCH   7  30
ATOM     30  C   UNL     1      -3.328  -0.859   6.361  0.00  0.00    +0.112 C 
BRANCH  30  31
ATOM     31  C   UNL     1      -4.143  -2.133   6.132  0.00  0.00    +0.052 C 
BRANCH  31  32
ATOM     32  C   UNL     1      -5.583  -1.881   6.498  0.00  0.00    -0.040 C 
ATOM     33  C   UNL     1      -6.585  -1.528   5.662  0.00  0.00    -0.001 A 
ATOM     34  C   UNL     1      -6.633  -1.281   4.215  0.00  0.00    +0.010 A 
ATOM     35  C   UNL     1      -7.810  -0.933   3.647  0.00  0.00    +0.001 A 
ATOM     36  C   UNL     1      -8.983  -0.802   4.404  0.00  0.00    +0.002 A 
ATOM     37  C   UNL     1      -9.018  -1.012   5.737  0.00  0.00    +0.026 A 
ATOM     38  C   UNL     1      -7.838  -1.383   6.438  0.00  0.00    +0.043 A 
ATOM     39  N   UNL     1      -7.619  -1.637   7.705  0.00  0.00    -0.380 N 
ATOM     40  C   UNL     1      -6.202  -1.978   7.875  0.00  0.00    +0.144 C 
ATOM     41  H   UNL     1      -8.283  -1.608   8.411  0.00  0.00    +0.160 HD
ENDBRANCH  31  32
ENDBRANCH  30  31
ENDBRANCH   7  30
TORSDOF 13
