REMARK  Name = ZINC06197792
REMARK  18 active torsions:
REMARK  status: ('A' for Active; 'I' for Inactive)
REMARK    1  A    between atoms: C_1  and  C_2
REMARK    2  A    between atoms: C_2  and  C_3
REMARK    3  A    between atoms: C_10  and  C_15
REMARK    4  A    between atoms: C_15  and  N_16
REMARK    5  A    between atoms: N_16  and  C_17
REMARK    6  A    between atoms: N_16  and  C_26
REMARK    7  A    between atoms: C_17  and  C_18
REMARK    8  A    between atoms: C_21  and  O_24
REMARK    9  A    between atoms: O_24  and  C_25
REMARK   10  A    between atoms: C_26  and  N_28
REMARK   11  A    between atoms: N_28  and  C_29
REMARK   12  A    between atoms: C_29  and  C_30
REMARK   13  A    between atoms: C_30  and  C_31
REMARK   14  A    between atoms: C_31  and  N_73
REMARK   15  A    between atoms: C_32  and  C_33
REMARK   16  A    between atoms: C_32  and  N_73
REMARK   17  A    between atoms: C_34  and  C_35
REMARK   18  A    between atoms: C_34  and  N_73
REMARK                            x       y       z     vdW  Elec       q    Type
REMARK                         _______ _______ _______ _____ _____    ______ ____
ROOT
ATOM      1  N   UNL     1       0.940  -2.755   1.341  0.00  0.00    -0.304 N 
ENDROOT
BRANCH   1   2
ATOM      2  C   UNL     1      -0.322  -2.957   1.770  0.00  0.00    +0.133 C 
ATOM      3  S   UNL     1      -1.633  -2.773   0.685  0.00  0.00    -0.019 S 
BRANCH   2   4
ATOM      4  N   UNL     1      -0.551  -3.302   3.052  0.00  0.00    -0.326 N 
ATOM      5  H   UNL     1       0.192  -3.406   3.667  0.00  0.00    +0.148 HD
BRANCH   4   6
ATOM      6  C   UNL     1      -1.923  -3.521   3.517  0.00  0.00    +0.101 C 
BRANCH   6   7
ATOM      7  C   UNL     1      -1.905  -3.900   5.000  0.00  0.00    +0.000 C 
BRANCH   7   8
ATOM      8  C   UNL     1      -3.337  -4.129   5.486  0.00  0.00    -0.077 C 
BRANCH   8   9
ATOM      9  N   UNL     1      -3.307  -4.397   6.939  0.00  0.00    +0.379 N 
ATOM     10  H   UNL     1      -2.520  -5.022   7.146  0.00  0.00    -0.082 HD
BRANCH   9  11
ATOM     11  C   UNL     1      -3.124  -3.132   7.682  0.00  0.00    -0.082 C 
ATOM     12  C   UNL     1      -2.873  -3.458   9.156  0.00  0.00    -0.017 C 
ENDBRANCH   9  11
BRANCH   9  13
ATOM     13  C   UNL     1      -4.564  -5.051   7.358  0.00  0.00    -0.082 C 
ATOM     14  C   UNL     1      -4.508  -6.526   6.952  0.00  0.00    -0.017 C 
ENDBRANCH   9  13
ENDBRANCH   8   9
ENDBRANCH   7   8
ENDBRANCH   6   7
ENDBRANCH   4   6
ENDBRANCH   2   4
ENDBRANCH   1   2
BRANCH   1  15
ATOM     15  C   UNL     1       1.183  -2.266  -0.018  0.00  0.00    +0.147 C 
BRANCH  15  23
ATOM     16  C   UNL     1      -0.702  -6.438  -4.181  0.00  0.00    -0.047 A 
ATOM     17  C   UNL     1       0.512  -7.101  -4.298  0.00  0.00    +0.005 A 
ATOM     18  C   UNL     1       1.607  -6.697  -3.565  0.00  0.00    +0.026 A 
ATOM     19  C   UNL     1       1.498  -5.613  -2.700  0.00  0.00    +0.049 A 
ATOM     20  C   UNL     1       0.265  -4.944  -2.584  0.00  0.00    -0.001 A 
ATOM     21  C   UNL     1      -0.834  -5.372  -3.337  0.00  0.00    +0.013 A 
ATOM     22  C   UNL     1       0.159  -3.804  -1.670  0.00  0.00    +0.020 A 
ATOM     23  C   UNL     1       1.258  -3.435  -0.967  0.00  0.00    +0.035 A 
ATOM     24  C   UNL     1       2.471  -4.140  -1.120  0.00  0.00    +0.254 A 
ATOM     25  O   UNL     1       3.446  -3.791  -0.477  0.00  0.00    -0.268 OA
ATOM     26  N   UNL     1       2.577  -5.187  -1.956  0.00  0.00    -0.322 N 
ATOM     27  H   UNL     1       3.452  -5.663  -2.041  0.00  0.00    +0.169 HD
BRANCH  16  29
ATOM     28  C   UNL     1      -1.903  -6.162  -6.333  0.00  0.00    +0.009 C 
ATOM     29  C   UNL     1      -1.886  -6.898  -4.992  0.00  0.00    +0.032 C 
ENDBRANCH  16  29
ENDBRANCH  15  23
ENDBRANCH   1  15
BRANCH   1  30
ATOM     30  C   UNL     1       2.069  -3.026   2.235  0.00  0.00    +0.142 C 
BRANCH  30  31
ATOM     31  C   UNL     1       2.478  -1.751   2.928  0.00  0.00    -0.030 A 
ATOM     32  C   UNL     1       3.354  -0.880   2.307  0.00  0.00    +0.009 A 
ATOM     33  C   UNL     1       3.726   0.292   2.938  0.00  0.00    +0.046 A 
ATOM     34  C   UNL     1       3.229   0.588   4.199  0.00  0.00    +0.120 A 
ATOM     35  C   UNL     1       2.355  -0.291   4.821  0.00  0.00    +0.046 A 
ATOM     36  C   UNL     1       1.982  -1.459   4.184  0.00  0.00    +0.009 A 
BRANCH  34  37
ATOM     37  O   UNL     1       3.598   1.738   4.823  0.00  0.00    -0.495 OA
ATOM     38  C   UNL     1       4.501   2.595   4.122  0.00  0.00    +0.277 C 
ENDBRANCH  34  37
ENDBRANCH  30  31
ENDBRANCH   1  30
TORSDOF 14
