REMARK  Name = ZINC13132575
REMARK  7 active torsions:
REMARK  status: ('A' for Active; 'I' for Inactive)
REMARK    1  A    between atoms: C_4  and  N_7
REMARK    2  A    between atoms: C_9  and  C_17
REMARK    3  A    between atoms: C_10  and  C_12
REMARK    4  A    between atoms: C_19  and  C_31
REMARK    5  A    between atoms: C_21  and  C_26
REMARK    6  A    between atoms: C_21  and  O_30
REMARK    7  A    between atoms: C_31  and  C_33
REMARK                            x       y       z     vdW  Elec       q    Type
REMARK                         _______ _______ _______ _____ _____    ______ ____
ROOT
ATOM      1  C   UNL     1       1.177   7.390  -0.572  0.00  0.00    +0.124 C 
ATOM      2  C   UNL     1       1.353   5.988   0.021  0.00  0.00    +0.144 C 
ATOM      3  C   UNL     1       1.874   6.122   1.456  0.00  0.00    +0.243 C 
ATOM      4  N   UNL     1       0.957   6.978   2.218  0.00  0.00    -0.264 N 
ATOM      5  C   UNL     1       0.237   7.939   1.619  0.00  0.00    +0.302 C 
ATOM      6  O   UNL     1      -0.501   8.625   2.300  0.00  0.00    -0.253 OA
ATOM      7  N   UNL     1       0.299   8.173   0.300  0.00  0.00    -0.292 N 
ATOM      8  H   UNL     1       0.868   6.844   3.174  0.00  0.00    +0.153 HD
ATOM      9  H   UNL     1      -0.248   8.876  -0.084  0.00  0.00    +0.151 HD
ENDROOT
BRANCH   1  12
ATOM     10  N   UNL     1      -0.891   7.289  -3.583  0.00  0.00    -0.239 N 
ATOM     11  C   UNL     1      -0.743   7.473  -2.245  0.00  0.00    +0.120 A 
ATOM     12  C   UNL     1       0.560   7.284  -1.942  0.00  0.00    +0.020 A 
ATOM     13  C   UNL     1       1.240   6.964  -3.136  0.00  0.00    +0.105 A 
ATOM     14  N   UNL     1       0.362   6.969  -4.120  0.00  0.00    -0.166 NA
BRANCH  10  18
ATOM     15  C   UNL     1      -4.459   7.605  -5.715  0.00  0.00    +0.000 A 
ATOM     16  C   UNL     1      -3.287   7.281  -6.374  0.00  0.00    +0.002 A 
ATOM     17  C   UNL     1      -2.103   7.176  -5.671  0.00  0.00    +0.028 A 
ATOM     18  C   UNL     1      -2.090   7.396  -4.300  0.00  0.00    +0.065 A 
ATOM     19  C   UNL     1      -3.269   7.715  -3.640  0.00  0.00    +0.028 A 
ATOM     20  C   UNL     1      -4.449   7.825  -4.350  0.00  0.00    +0.002 A 
ENDBRANCH  10  18
BRANCH  13  21
ATOM     21  C   UNL     1       2.685   6.675  -3.263  0.00  0.00    +0.040 A 
ATOM     22  C   UNL     1       3.318   5.790  -4.093  0.00  0.00    +0.018 A 
ATOM     23  C   UNL     1       4.692   5.695  -4.036  0.00  0.00    +0.008 A 
ATOM     24  C   UNL     1       5.372   6.470  -3.154  0.00  0.00    +0.046 A 
ATOM     25  S   UNL     1       4.056   7.385  -2.366  0.00  0.00    -0.095 S 
ENDBRANCH  13  21
ENDBRANCH   1  12
BRANCH   3  26
ATOM     26  C   UNL     1       3.266   6.756   1.437  0.00  0.00    +0.436 C 
ATOM     27  F   UNL     1       3.194   8.023   0.847  0.00  0.00    -0.166 F 
ATOM     28  F   UNL     1       3.741   6.878   2.747  0.00  0.00    -0.166 F 
ATOM     29  F   UNL     1       4.137   5.947   0.699  0.00  0.00    -0.166 F 
ENDBRANCH   3  26
BRANCH   3  30
ATOM     30  O   UNL     1       1.944   4.830   2.061  0.00  0.00    -0.364 OA
ATOM     31  H   UNL     1       2.267   4.839   2.973  0.00  0.00    +0.212 HD
ENDBRANCH   3  30
BRANCH   2  32
ATOM     32  C   UNL     1       0.026   5.272   0.029  0.00  0.00    +0.174 C 
ATOM     33  O   UNL     1      -1.006   5.908   0.042  0.00  0.00    -0.291 OA
BRANCH  32  34
ATOM     34  C   UNL     1      -0.016   3.801   0.022  0.00  0.00    +0.036 A 
ATOM     35  C   UNL     1      -1.243   3.122   0.030  0.00  0.00    +0.014 A 
ATOM     36  C   UNL     1      -1.227   1.739   0.017  0.00  0.00    +0.020 A 
ATOM     37  C   UNL     1      -0.013   1.076   0.008  0.00  0.00    +0.111 A 
ATOM     38  N   UNL     1       1.128   1.740   0.001  0.00  0.00    -0.263 NA
ATOM     39  C   UNL     1       1.167   3.056   0.007  0.00  0.00    +0.122 A 
ENDBRANCH  32  34
ENDBRANCH   2  32
TORSDOF 7
