REMARK  Name = ZINC02910679
REMARK  6 active torsions:
REMARK  status: ('A' for Active; 'I' for Inactive)
REMARK    1  A    between atoms: C_1  and  C_2
REMARK    2  A    between atoms: C_2  and  C_32
REMARK    3  A    between atoms: C_6  and  N_7
REMARK    4  A    between atoms: N_7  and  C_8
REMARK    5  A    between atoms: C_8  and  C_9
REMARK    6  A    between atoms: C_9  and  C_10
REMARK                            x       y       z     vdW  Elec       q    Type
REMARK                         _______ _______ _______ _____ _____    ______ ____
ROOT
ATOM      1  C   UNL     1      -0.143   1.408  -0.034  0.00  0.00    +0.064 C 
ATOM      2  C   UNL     1      -0.035  -0.118   0.009  0.00  0.00    +0.167 C 
ATOM      3  C   UNL     1       0.660  -0.606  -1.237  0.00  0.00    +0.208 C 
ATOM      4  O   UNL     1       0.022  -0.921  -2.221  0.00  0.00    -0.288 OA
ATOM      5  C   UNL     1       2.079  -0.689  -1.235  0.00  0.00    +0.049 C 
ATOM      6  C   UNL     1       2.771  -1.089  -2.342  0.00  0.00    +0.079 C 
ATOM      7  C   UNL     1       2.776  -0.320   0.025  0.00  0.00    +0.071 A 
ATOM      8  C   UNL     1       2.029  -0.240   1.204  0.00  0.00    +0.133 A 
ATOM      9  C   UNL     1       2.649   0.107   2.399  0.00  0.00    +0.047 A 
ATOM     10  C   UNL     1       3.990   0.368   2.433  0.00  0.00    +0.015 A 
ATOM     11  C   UNL     1       4.754   0.290   1.262  0.00  0.00    +0.018 A 
ATOM     12  C   UNL     1       4.145  -0.057   0.043  0.00  0.00    +0.150 A 
ATOM     13  O   UNL     1       4.877  -0.133  -1.087  0.00  0.00    -0.421 OA
ATOM     14  C   UNL     1       6.191   0.121  -1.068  0.00  0.00    +0.337 A 
ATOM     15  O   UNL     1       6.819   0.043  -2.109  0.00  0.00    -0.245 OA
ATOM     16  C   UNL     1       6.875   0.475   0.113  0.00  0.00    +0.092 A 
ATOM     17  C   UNL     1       6.192   0.566   1.284  0.00  0.00    +0.018 A 
ATOM     18  O   UNL     1       0.699  -0.507   1.169  0.00  0.00    -0.478 OA
ATOM     19  C   UNL     1      -1.439  -0.723   0.072  0.00  0.00    +0.064 C 
ENDROOT
BRANCH   6  20
ATOM     20  N   UNL     1       3.984  -1.694  -2.206  0.00  0.00    -0.349 N 
ATOM     21  H   UNL     1       4.319  -1.914  -1.322  0.00  0.00    +0.146 HD
BRANCH  20  22
ATOM     22  C   UNL     1       4.782  -2.011  -3.392  0.00  0.00    +0.105 C 
BRANCH  22  23
ATOM     23  C   UNL     1       6.015  -2.815  -2.977  0.00  0.00    +0.056 C 
BRANCH  23  24
ATOM     24  C   UNL     1       6.762  -3.261  -4.208  0.00  0.00    -0.021 A 
ATOM     25  C   UNL     1       6.636  -4.442  -4.834  0.00  0.00    +0.087 A 
ATOM     26  N   UNL     1       7.474  -4.489  -5.915  0.00  0.00    -0.360 N 
ATOM     27  H   UNL     1       7.560  -5.241  -6.521  0.00  0.00    +0.165 HD
ATOM     28  C   UNL     1       8.178  -3.309  -6.013  0.00  0.00    +0.047 A 
ATOM     29  C   UNL     1       7.758  -2.486  -4.952  0.00  0.00    +0.003 A 
ATOM     30  C   UNL     1       8.304  -1.210  -4.801  0.00  0.00    +0.010 A 
ATOM     31  C   UNL     1       9.243  -0.766  -5.689  0.00  0.00    +0.001 A 
ATOM     32  C   UNL     1       9.658  -1.572  -6.740  0.00  0.00    +0.002 A 
ATOM     33  C   UNL     1       9.138  -2.838  -6.902  0.00  0.00    +0.026 A 
ENDBRANCH  23  24
ENDBRANCH  22  23
ENDBRANCH  20  22
ENDBRANCH   6  20
TORSDOF 4
