REMARK  Name = ZINC19720110
REMARK  8 active torsions:
REMARK  status: ('A' for Active; 'I' for Inactive)
REMARK    1  A    between atoms: C_1  and  C_2
REMARK    2  A    between atoms: C_3  and  C_27
REMARK    3  A    between atoms: C_4  and  C_16
REMARK    4  A    between atoms: C_10  and  C_14
REMARK    5  A    between atoms: C_10  and  C_15
REMARK    6  A    between atoms: C_27  and  O_29
REMARK    7  A    between atoms: O_29  and  C_30
REMARK    8  A    between atoms: C_30  and  C_31
REMARK                            x       y       z     vdW  Elec       q    Type
REMARK                         _______ _______ _______ _____ _____    ______ ____
ROOT
ATOM      1  C   UNL     1      -0.018   1.503   0.010  0.00  0.00    +0.061 C 
ATOM      2  C   UNL     1       0.002  -0.004   0.002  0.00  0.00    +0.016 C 
ATOM      3  C   UNL     1      -1.155  -0.688   0.004  0.00  0.00    +0.065 C 
ATOM      4  C   UNL     1      -1.174  -2.188   0.005  0.00  0.00    +0.099 C 
ATOM      5  C   UNL     1       0.160  -2.746  -0.422  0.00  0.00    +0.024 C 
ATOM      6  C   UNL     1       1.267  -1.974  -0.410  0.00  0.00    +0.016 C 
ATOM      7  N   UNL     1       1.198  -0.667  -0.013  0.00  0.00    -0.321 N 
ATOM      8  C   UNL     1       2.604  -2.524  -0.842  0.00  0.00    +0.058 C 
ATOM      9  C   UNL     1       2.670  -4.019  -0.526  0.00  0.00    -0.023 C 
ATOM     10  C   UNL     1       1.517  -4.721  -1.252  0.00  0.00    +0.086 C 
ATOM     11  C   UNL     1       0.218  -4.091  -0.830  0.00  0.00    +0.162 C 
ATOM     12  O   UNL     1      -0.799  -4.755  -0.843  0.00  0.00    -0.292 OA
ATOM     13  C   UNL     1       4.005  -4.588  -1.012  0.00  0.00    +0.011 C 
ATOM     14  C   UNL     1       2.534  -4.233   0.982  0.00  0.00    +0.011 C 
ATOM     15  H   UNL     1       2.005  -0.207   0.265  0.00  0.00    +0.152 HD
ENDROOT
BRANCH   4  16
ATOM     16  C   UNL     1      -1.492  -2.678   1.395  0.00  0.00    +0.047 A 
ATOM     17  C   UNL     1      -2.579  -3.440   1.611  0.00  0.00    +0.204 A 
ATOM     18  O   UNL     1      -2.911  -3.902   2.821  0.00  0.00    -0.462 OA
ATOM     19  C   UNL     1      -2.178  -3.639   3.922  0.00  0.00    +0.138 A 
ATOM     20  C   UNL     1      -2.550  -4.135   5.166  0.00  0.00    +0.047 A 
ATOM     21  C   UNL     1      -1.784  -3.853   6.276  0.00  0.00    +0.004 A 
ATOM     22  C   UNL     1      -0.639  -3.075   6.168  0.00  0.00    +0.001 A 
ATOM     23  C   UNL     1      -0.253  -2.573   4.945  0.00  0.00    +0.015 A 
ATOM     24  C   UNL     1      -1.020  -2.852   3.814  0.00  0.00    +0.064 A 
ATOM     25  C   UNL     1      -0.642  -2.342   2.482  0.00  0.00    +0.197 A 
ATOM     26  O   UNL     1       0.354  -1.657   2.322  0.00  0.00    -0.287 OA
ENDBRANCH   4  16
BRANCH   3  27
ATOM     27  C   UNL     1      -2.380   0.021   0.005  0.00  0.00    +0.338 C 
ATOM     28  O   UNL     1      -2.378   1.238   0.004  0.00  0.00    -0.245 OA
BRANCH  27  29
ATOM     29  O   UNL     1      -3.549  -0.652   0.007  0.00  0.00    -0.459 OA
BRANCH  29  30
ATOM     30  C   UNL     1      -4.747   0.128   0.008  0.00  0.00    +0.264 C 
BRANCH  30  31
ATOM     31  C   UNL     1      -5.961  -0.803   0.010  0.00  0.00    +0.156 C 
ATOM     32  C   UNL     1      -7.257   0.027  -0.111  0.00  0.00    +0.037 C 
ATOM     33  C   UNL     1      -8.218  -0.721   0.853  0.00  0.00    +0.031 C 
ATOM     34  C   UNL     1      -7.229  -1.190   1.950  0.00  0.00    +0.160 C 
ATOM     35  O   UNL     1      -6.019  -1.523   1.247  0.00  0.00    -0.373 OA
ENDBRANCH  30  31
ENDBRANCH  29  30
ENDBRANCH  27  29
ENDBRANCH   3  27
TORSDOF 5
