REMARK  Name = ZINC65151830
REMARK  7 active torsions:
REMARK  status: ('A' for Active; 'I' for Inactive)
REMARK    1  A    between atoms: C_1  and  C_2
REMARK    2  A    between atoms: C_5  and  C_8
REMARK    3  A    between atoms: C_8  and  N_9
REMARK    4  A    between atoms: C_10  and  C_12
REMARK    5  A    between atoms: C_12  and  N_13
REMARK    6  A    between atoms: N_26  and  C_29
REMARK    7  A    between atoms: C_32  and  C_35
REMARK                            x       y       z     vdW  Elec       q    Type
REMARK                         _______ _______ _______ _____ _____    ______ ____
ROOT
ATOM      1  N   UNL     1       3.178  -8.034  -0.060  0.00  0.00    -0.203 N 
ATOM      2  C   UNL     1       3.182  -8.825  -1.153  0.00  0.00    +0.352 A 
ATOM      3  O   UNL     1       3.179  -8.448  -2.312  0.00  0.00    -0.244 OA
ATOM      4  N   UNL     1       3.190 -10.103  -0.735  0.00  0.00    -0.247 N 
ATOM      5  C   UNL     1       3.196 -11.314  -1.401  0.00  0.00    +0.117 A 
ATOM      6  C   UNL     1       3.203 -12.466  -0.716  0.00  0.00    +0.131 A 
ATOM      7  N   UNL     1       3.204 -12.506   0.624  0.00  0.00    -0.235 NA
ATOM      8  C   UNL     1       3.198 -11.402   1.342  0.00  0.00    +0.167 A 
ATOM      9  C   UNL     1       3.191 -10.107   0.650  0.00  0.00    +0.202 A 
ATOM     10  N   UNL     1       3.190  -8.868   1.067  0.00  0.00    -0.145 NA
ATOM     11  N   UNL     1       3.199 -11.462   2.724  0.00  0.00    -0.309 N 
ATOM     12  C   UNL     1       3.307 -10.235   3.526  0.00  0.00    +0.125 C 
ATOM     13  C   UNL     1       2.117 -10.175   4.492  0.00  0.00    +0.124 C 
ATOM     14  N   UNL     1       2.010 -11.466   5.185  0.00  0.00    -0.327 N 
ATOM     15  C   UNL     1       1.902 -12.693   4.383  0.00  0.00    +0.124 C 
ATOM     16  C   UNL     1       3.085 -12.753   3.417  0.00  0.00    +0.125 C 
ENDROOT
BRANCH  14  17
ATOM     17  C   UNL     1       2.010 -11.527   6.580  0.00  0.00    +0.030 A 
ATOM     18  C   UNL     1       1.984 -10.356   7.328  0.00  0.00    +0.023 A 
ATOM     19  C   UNL     1       1.985 -10.419   8.707  0.00  0.00    +0.005 A 
ATOM     20  C   UNL     1       2.010 -11.646   9.345  0.00  0.00    -0.050 A 
ATOM     21  C   UNL     1       2.036 -12.813   8.604  0.00  0.00    +0.005 A 
ATOM     22  C   UNL     1       2.030 -12.757   7.224  0.00  0.00    +0.023 A 
ATOM     23  C   UNL     1       2.011 -11.711  10.850  0.00  0.00    +0.044 C 
ENDBRANCH  14  17
BRANCH   1  24
ATOM     24  C   UNL     1       3.170  -6.569  -0.052  0.00  0.00    +0.244 C 
BRANCH  24  26
ATOM     25  N   UNL     1       1.492  -4.751  -0.032  0.00  0.00    -0.310 N 
ATOM     26  C   UNL     1       1.746  -6.075  -0.041  0.00  0.00    +0.235 C 
ATOM     27  O   UNL     1       0.829  -6.868  -0.040  0.00  0.00    -0.274 OA
ATOM     28  H   UNL     1       2.225  -4.117  -0.033  0.00  0.00    +0.149 HD
BRANCH  25  29
ATOM     29  C   UNL     1       0.108  -4.271  -0.021  0.00  0.00    +0.139 C 
BRANCH  29  34
ATOM     30  C   UNL     1       0.071   1.507   0.011  0.00  0.00    +0.044 C 
ATOM     31  C   UNL     1       0.081   0.001   0.002  0.00  0.00    -0.050 A 
ATOM     32  C   UNL     1       0.079  -0.684  -1.199  0.00  0.00    +0.003 A 
ATOM     33  C   UNL     1       0.088  -2.066  -1.206  0.00  0.00    +0.005 A 
ATOM     34  C   UNL     1       0.099  -2.764  -0.013  0.00  0.00    -0.030 A 
ATOM     35  C   UNL     1       0.102  -2.079   1.188  0.00  0.00    +0.005 A 
ATOM     36  C   UNL     1       0.097  -0.697   1.196  0.00  0.00    +0.003 A 
ENDBRANCH  29  34
ENDBRANCH  25  29
ENDBRANCH  24  26
ENDBRANCH   1  24
TORSDOF 5
