REMARK  Name = ZINC23762696
REMARK  4 active torsions:
REMARK  status: ('A' for Active; 'I' for Inactive)
REMARK    1  A    between atoms: C_1  and  C_2
REMARK    2  A    between atoms: N_5  and  C_11
REMARK    3  A    between atoms: C_7  and  C_10
REMARK    4  A    between atoms: C_11  and  C_12
REMARK                            x       y       z     vdW  Elec       q    Type
REMARK                         _______ _______ _______ _____ _____    ______ ____
ROOT
ATOM      1  C   UNL     1       2.878   5.132  -0.325  0.00  0.00    +0.146 A 
ATOM      2  N   UNL     1       2.992   5.525  -1.581  0.00  0.00    -0.216 NA
ATOM      3  C   UNL     1       2.791   6.781  -1.947  0.00  0.00    +0.128 A 
ATOM      4  C   UNL     1       2.453   7.744  -0.956  0.00  0.00    +0.051 A 
ATOM      5  C   UNL     1       2.190   9.178  -1.128  0.00  0.00    -0.025 A 
ATOM      6  C   UNL     1       1.893   9.876  -0.014  0.00  0.00    -0.004 A 
ATOM      7  S   UNL     1       1.935   8.691   1.306  0.00  0.00    -0.073 S 
ATOM      8  C   UNL     1       2.357   7.252   0.359  0.00  0.00    +0.114 A 
ATOM      9  N   UNL     1       2.568   5.980   0.637  0.00  0.00    -0.223 NA
ATOM     10  C   UNL     1       1.604  11.341   0.100  0.00  0.00    +0.043 C 
ATOM     11  C   UNL     1       0.567  11.738  -0.960  0.00  0.00    +0.005 C 
ATOM     12  C   UNL     1       1.309  12.137  -2.231  0.00  0.00    +0.001 C 
ATOM     13  C   UNL     1       2.586  11.309  -2.372  0.00  0.00    +0.005 C 
ATOM     14  C   UNL     1       2.249   9.829  -2.506  0.00  0.00    +0.037 C 
ATOM     15  N   UNL     1       2.915   7.153  -3.273  0.00  0.00    -0.343 N 
ATOM     16  H   UNL     1       2.746   8.199  -3.569  0.00  0.00    +0.144 HD
ATOM     17  H   UNL     1       3.182   6.403  -4.032  0.00  0.00    +0.144 HD
ENDROOT
BRANCH   1  18
ATOM     18  C   UNL     1       3.115   3.684   0.018  0.00  0.00    +0.160 C 
BRANCH  18  22
ATOM     19  C   UNL     1      -0.104   1.175   1.210  0.00  0.00    +0.039 C 
ATOM     20  C   UNL     1       0.725   0.773  -0.011  0.00  0.00    +0.130 C 
ATOM     21  C   UNL     1       2.073   1.497   0.024  0.00  0.00    +0.116 C 
ATOM     22  N   UNL     1       1.847   2.947  -0.070  0.00  0.00    -0.290 NA
ATOM     23  C   UNL     1       1.126   3.283  -1.306  0.00  0.00    +0.116 C 
ATOM     24  C   UNL     1      -0.212   2.541  -1.328  0.00  0.00    +0.130 C 
ATOM     25  O   UNL     1       0.025   1.136  -1.205  0.00  0.00    -0.371 OA
ATOM     26  C   UNL     1      -0.932   2.824  -2.648  0.00  0.00    +0.039 C 
ENDBRANCH  18  22
ENDBRANCH   1  18
TORSDOF 2
