REMARK  Name = ZINC09674399
REMARK  10 active torsions:
REMARK  status: ('A' for Active; 'I' for Inactive)
REMARK    1  A    between atoms: C_1  and  C_2
REMARK    2  A    between atoms: C_7  and  N_8
REMARK    3  A    between atoms: C_9  and  C_11
REMARK    4  A    between atoms: C_11  and  S_12
REMARK    5  A    between atoms: S_12  and  C_13
REMARK    6  A    between atoms: C_23  and  C_28
REMARK    7  A    between atoms: C_28  and  C_29
REMARK    8  A    between atoms: C_29  and  C_30
REMARK    9  A    between atoms: N_32  and  C_33
REMARK   10  A    between atoms: C_33  and  C_34
REMARK                            x       y       z     vdW  Elec       q    Type
REMARK                         _______ _______ _______ _____ _____    ______ ____
ROOT
ATOM      1  C   UNL     1      -6.414  -6.595  -5.361  0.00  0.00    +0.169 C 
ATOM      2  N   UNL     1      -5.935  -7.646  -5.969  0.00  0.00    -0.225 NA
ATOM      3  C   UNL     1      -4.640  -7.725  -6.365  0.00  0.00    +0.077 A 
ATOM      4  C   UNL     1      -4.147  -8.859  -7.015  0.00  0.00    +0.028 A 
ATOM      5  C   UNL     1      -2.826  -8.904  -7.403  0.00  0.00    +0.002 A 
ATOM      6  C   UNL     1      -1.977  -7.835  -7.157  0.00  0.00    +0.001 A 
ATOM      7  C   UNL     1      -2.442  -6.704  -6.517  0.00  0.00    +0.013 A 
ATOM      8  C   UNL     1      -3.773  -6.641  -6.117  0.00  0.00    +0.041 A 
ATOM      9  C   UNL     1      -4.317  -5.451  -5.428  0.00  0.00    +0.139 C 
ATOM     10  N   UNL     1      -3.736  -4.335  -5.086  0.00  0.00    -0.255 NA
ATOM     11  C   UNL     1      -4.741  -3.490  -4.424  0.00  0.00    +0.194 C 
ATOM     12  C   UNL     1      -6.003  -4.326  -4.453  0.00  0.00    +0.251 C 
ATOM     13  O   UNL     1      -7.092  -4.024  -4.015  0.00  0.00    -0.272 OA
ATOM     14  N   UNL     1      -5.654  -5.481  -5.070  0.00  0.00    -0.200 N 
ENDROOT
BRANCH   1  15
ATOM     15  S   UNL     1      -8.112  -6.598  -4.890  0.00  0.00    -0.080 S 
BRANCH  15  16
ATOM     16  C   UNL     1      -8.602  -8.233  -5.493  0.00  0.00    +0.173 C 
BRANCH  16  18
ATOM     17  N   UNL     1     -10.648  -9.622  -5.550  0.00  0.00    -0.285 N 
ATOM     18  C   UNL     1     -10.060  -8.464  -5.191  0.00  0.00    +0.227 C 
ATOM     19  O   UNL     1     -10.705  -7.607  -4.624  0.00  0.00    -0.275 OA
ATOM     20  H   UNL     1     -10.156 -10.274  -6.074  0.00  0.00    +0.155 HD
BRANCH  17  27
ATOM     21  C   UNL     1     -12.172 -11.425  -7.138  0.00  0.00    +0.045 C 
ATOM     22  C   UNL     1     -12.748 -10.758  -5.915  0.00  0.00    -0.029 A 
ATOM     23  C   UNL     1     -14.049 -11.019  -5.533  0.00  0.00    +0.005 A 
ATOM     24  C   UNL     1     -14.580 -10.402  -4.415  0.00  0.00    +0.000 A 
ATOM     25  C   UNL     1     -13.808  -9.527  -3.673  0.00  0.00    +0.002 A 
ATOM     26  C   UNL     1     -12.505  -9.266  -4.047  0.00  0.00    +0.023 A 
ATOM     27  C   UNL     1     -11.969  -9.884  -5.169  0.00  0.00    +0.036 A 
ENDBRANCH  17  27
ENDBRANCH  16  18
ENDBRANCH  15  16
ENDBRANCH   1  15
BRANCH  11  28
ATOM     28  C   UNL     1      -4.326  -3.194  -2.982  0.00  0.00    +0.045 C 
BRANCH  28  29
ATOM     29  C   UNL     1      -3.094  -2.286  -2.982  0.00  0.00    +0.098 C 
BRANCH  29  30
ATOM     30  C   UNL     1      -2.686  -1.994  -1.561  0.00  0.00    +0.213 C 
ATOM     31  O   UNL     1      -3.318  -2.465  -0.639  0.00  0.00    -0.276 OA
ATOM     32  N   UNL     1      -1.618  -1.209  -1.314  0.00  0.00    -0.308 N 
ATOM     33  H   UNL     1      -1.113  -0.832  -2.052  0.00  0.00    +0.149 HD
BRANCH  32  34
ATOM     34  C   UNL     1      -1.221  -0.925   0.067  0.00  0.00    +0.178 C 
BRANCH  34  35
ATOM     35  C   UNL     1      -0.008  -0.031   0.067  0.00  0.00    +0.122 A 
ATOM     36  C   UNL     1      -0.022   1.314   0.073  0.00  0.00    +0.046 A 
ATOM     37  C   UNL     1       1.327   1.738   0.071  0.00  0.00    +0.041 A 
ATOM     38  C   UNL     1       2.084   0.627   0.065  0.00  0.00    +0.195 A 
ATOM     39  O   UNL     1       1.270  -0.442   0.062  0.00  0.00    -0.466 OA
ENDBRANCH  34  35
ENDBRANCH  32  34
ENDBRANCH  29  30
ENDBRANCH  28  29
ENDBRANCH  11  28
TORSDOF 9
