REMARK  Name = ZINC09605794
REMARK  9 active torsions:
REMARK  status: ('A' for Active; 'I' for Inactive)
REMARK    1  A    between atoms: C_1  and  C_2
REMARK    2  A    between atoms: C_6  and  N_9
REMARK    3  A    between atoms: C_7  and  C_8
REMARK    4  A    between atoms: C_10  and  C_12
REMARK    5  A    between atoms: C_12  and  N_13
REMARK    6  A    between atoms: N_13  and  C_14
REMARK    7  A    between atoms: C_14  and  C_15
REMARK    8  A    between atoms: C_21  and  C_23
REMARK    9  A    between atoms: C_23  and  C_24
REMARK                            x       y       z     vdW  Elec       q    Type
REMARK                         _______ _______ _______ _____ _____    ______ ____
ROOT
ATOM      1  N   UNL     1       5.266  -1.599  -1.744  0.00  0.00    -0.290 N 
ATOM      2  C   UNL     1       4.120  -0.940  -1.481  0.00  0.00    +0.220 C 
ATOM      3  O   UNL     1       3.428  -0.540  -2.393  0.00  0.00    -0.275 OA
ENDROOT
BRANCH   1   4
ATOM      4  C   UNL     1       5.676  -1.831  -3.131  0.00  0.00    +0.203 C 
BRANCH   4   6
ATOM      5  N   UNL     1       7.018  -0.674  -4.858  0.00  0.00    -0.284 N 
ATOM      6  C   UNL     1       6.525  -0.678  -3.604  0.00  0.00    +0.235 C 
ATOM      7  O   UNL     1       6.764   0.246  -2.855  0.00  0.00    -0.274 OA
ATOM      8  H   UNL     1       6.895  -1.448  -5.430  0.00  0.00    +0.155 HD
BRANCH   5  14
ATOM      9  C   UNL     1      10.320   1.266  -7.941  0.00  0.00    +0.044 C 
ATOM     10  C   UNL     1       9.314   1.415  -6.828  0.00  0.00    -0.046 A 
ATOM     11  C   UNL     1       9.072   2.660  -6.278  0.00  0.00    +0.004 A 
ATOM     12  C   UNL     1       8.149   2.801  -5.259  0.00  0.00    +0.002 A 
ATOM     13  C   UNL     1       7.466   1.698  -4.785  0.00  0.00    +0.023 A 
ATOM     14  C   UNL     1       7.708   0.446  -5.335  0.00  0.00    +0.037 A 
ATOM     15  C   UNL     1       8.639   0.306  -6.356  0.00  0.00    -0.026 A 
ATOM     16  C   UNL     1       8.909  -1.052  -6.951  0.00  0.00    +0.046 C 
ENDBRANCH   5  14
ENDBRANCH   4   6
ENDBRANCH   1   4
BRANCH   1  17
ATOM     17  C   UNL     1       6.103  -2.082  -0.642  0.00  0.00    +0.139 C 
BRANCH  17  18
ATOM     18  C   UNL     1       5.675  -3.501  -0.262  0.00  0.00    +0.136 C 
ATOM     19  C   UNL     1       6.458  -3.985   0.978  0.00  0.00    +0.035 C 
ATOM     20  C   UNL     1       6.713  -5.483   0.701  0.00  0.00    +0.031 C 
ATOM     21  C   UNL     1       6.053  -5.728  -0.674  0.00  0.00    +0.160 C 
ATOM     22  O   UNL     1       6.031  -4.431  -1.309  0.00  0.00    -0.375 OA
ENDBRANCH  17  18
ENDBRANCH   1  17
BRANCH   2  23
ATOM     23  C   UNL     1       3.699  -0.702  -0.054  0.00  0.00    +0.131 C 
BRANCH  23  24
ATOM     24  C   UNL     1       2.392   0.049  -0.035  0.00  0.00    -0.035 A 
ATOM     25  C   UNL     1       1.197  -0.646  -0.029  0.00  0.00    +0.008 A 
ATOM     26  C   UNL     1      -0.003   0.039  -0.012  0.00  0.00    +0.050 A 
ATOM     27  C   UNL     1      -0.012   1.426  -0.002  0.00  0.00    +0.162 A 
ATOM     28  C   UNL     1       1.190   2.125  -0.005  0.00  0.00    +0.162 A 
ATOM     29  C   UNL     1       2.391   1.431  -0.023  0.00  0.00    +0.053 A 
ATOM     30  O   UNL     1       1.204   3.486   0.013  0.00  0.00    -0.485 OA
ATOM     31  C   UNL     1      -0.013   4.147  -0.346  0.00  0.00    +0.270 C 
ATOM     32  C   UNL     1      -1.169   3.465   0.398  0.00  0.00    +0.270 C 
ATOM     33  O   UNL     1      -1.202   2.087   0.006  0.00  0.00    -0.485 OA
ENDBRANCH  23  24
ENDBRANCH   2  23
TORSDOF 7
