REMARK  Name = ZINC09291515
REMARK  14 active torsions:
REMARK  status: ('A' for Active; 'I' for Inactive)
REMARK    1  A    between atoms: C_1  and  C_2
REMARK    2  A    between atoms: C_2  and  C_3
REMARK    3  A    between atoms: C_3  and  N_4
REMARK    4  A    between atoms: C_13  and  C_16
REMARK    5  A    between atoms: C_18  and  C_33
REMARK    6  A    between atoms: C_20  and  C_21
REMARK    7  A    between atoms: C_21  and  C_23
REMARK    8  A    between atoms: C_25  and  O_31
REMARK    9  A    between atoms: C_27  and  O_29
REMARK   10  A    between atoms: O_29  and  C_30
REMARK   11  A    between atoms: O_31  and  C_32
REMARK   12  A    between atoms: C_33  and  O_35
REMARK   13  A    between atoms: O_35  and  C_36
REMARK   14  A    between atoms: C_36  and  C_37
REMARK                            x       y       z     vdW  Elec       q    Type
REMARK                         _______ _______ _______ _____ _____    ______ ____
ROOT
ATOM      1  N   UNL     1       0.197   3.690  -0.337  0.00  0.00    -0.285 N 
ATOM      2  C   UNL     1      -0.767   3.830   0.635  0.00  0.00    +0.117 A 
ATOM      3  C   UNL     1      -1.773   2.841   0.763  0.00  0.00    +0.079 A 
ATOM      4  C   UNL     1      -2.838   3.066   1.742  0.00  0.00    +0.267 A 
ATOM      5  O   UNL     1      -3.764   2.283   1.854  0.00  0.00    -0.267 OA
ATOM      6  N   UNL     1      -2.761   4.173   2.517  0.00  0.00    -0.269 N 
ATOM      7  C   UNL     1      -3.728   4.394   3.452  0.00  0.00    +0.096 A 
ATOM      8  C   UNL     1      -3.671   5.474   4.264  0.00  0.00    +0.019 A 
ATOM      9  C   UNL     1      -2.610   6.382   4.150  0.00  0.00    +0.008 A 
ATOM     10  C   UNL     1      -1.643   6.173   3.213  0.00  0.00    -0.009 A 
ATOM     11  C   UNL     1      -1.722   5.048   2.370  0.00  0.00    +0.122 A 
ATOM     12  N   UNL     1      -0.776   4.875   1.446  0.00  0.00    -0.328 N 
ATOM     13  C   UNL     1      -0.495   7.141   3.079  0.00  0.00    +0.047 C 
ATOM     14  C   UNL     1      -1.728   1.675  -0.006  0.00  0.00    +0.033 C 
ATOM     15  C   UNL     1      -0.618   1.440  -0.820  0.00  0.00    +0.081 C 
ATOM     16  C   UNL     1       0.487   2.410  -0.778  0.00  0.00    +0.053 C 
ATOM     17  C   UNL     1       1.771   2.056  -1.166  0.00  0.00    +0.075 C 
ATOM     18  H   UNL     1       0.015   5.635   1.371  0.00  0.00    +0.168 HD
ENDROOT
BRANCH  17  19
ATOM     19  C   UNL     1       2.246   0.766  -0.913  0.00  0.00    +0.188 C 
ATOM     20  O   UNL     1       1.509  -0.069  -0.415  0.00  0.00    -0.287 OA
BRANCH  19  21
ATOM     21  C   UNL     1       3.645   0.413  -1.251  0.00  0.00    +0.029 A 
ATOM     22  C   UNL     1       4.492   1.369  -1.809  0.00  0.00    +0.057 A 
ATOM     23  C   UNL     1       5.801   1.037  -2.118  0.00  0.00    +0.124 A 
ATOM     24  C   UNL     1       6.265  -0.249  -1.883  0.00  0.00    +0.091 A 
ATOM     25  C   UNL     1       5.423  -1.205  -1.333  0.00  0.00    +0.124 A 
ATOM     26  C   UNL     1       4.115  -0.878  -1.016  0.00  0.00    +0.057 A 
BRANCH  25  27
ATOM     27  O   UNL     1       5.883  -2.464  -1.105  0.00  0.00    -0.495 OA
ATOM     28  C   UNL     1       7.242  -2.731  -1.456  0.00  0.00    +0.277 C 
ENDBRANCH  25  27
BRANCH  23  29
ATOM     29  O   UNL     1       6.629   1.970  -2.657  0.00  0.00    -0.495 OA
ATOM     30  C   UNL     1       7.964   1.557  -2.957  0.00  0.00    +0.277 C 
ENDBRANCH  23  29
ENDBRANCH  19  21
ENDBRANCH  17  19
BRANCH  15  31
ATOM     31  C   UNL     1      -0.558   0.263  -1.696  0.00  0.00    +0.341 C 
ATOM     32  O   UNL     1       0.028   0.326  -2.759  0.00  0.00    -0.245 OA
BRANCH  31  33
ATOM     33  O   UNL     1      -1.154  -0.887  -1.322  0.00  0.00    -0.461 OA
BRANCH  33  34
ATOM     34  C   UNL     1      -1.186  -1.962  -2.298  0.00  0.00    +0.229 C 
ATOM     35  C   UNL     1      -1.993  -3.135  -1.739  0.00  0.00    +0.048 C 
ENDBRANCH  33  34
ENDBRANCH  31  33
ENDBRANCH  15  31
BRANCH   1  36
ATOM     36  C   UNL     1       0.894   4.856  -0.886  0.00  0.00    +0.112 C 
BRANCH  36  38
ATOM     37  C   UNL     1       0.853   6.603  -2.672  0.00  0.00    +0.005 C 
ATOM     38  C   UNL     1       0.125   5.385  -2.099  0.00  0.00    +0.016 C 
ENDBRANCH  36  38
ENDBRANCH   1  36
TORSDOF 9
