REMARK  Name = ZINC49211639
REMARK  6 active torsions:
REMARK  status: ('A' for Active; 'I' for Inactive)
REMARK    1  A    between atoms: C_1  and  C_2
REMARK    2  A    between atoms: C_3  and  C_21
REMARK    3  A    between atoms: C_5  and  N_9
REMARK    4  A    between atoms: C_6  and  C_7
REMARK    5  A    between atoms: N_12  and  C_13
REMARK    6  A    between atoms: C_13  and  C_14
REMARK                            x       y       z     vdW  Elec       q    Type
REMARK                         _______ _______ _______ _____ _____    ______ ____
ROOT
ATOM      1  N   UNL     1       0.054  -3.117   2.084  0.00  0.00    -0.263 N 
ATOM      2  C   UNL     1       0.071  -4.426   1.764  0.00  0.00    +0.304 C 
ATOM      3  O   UNL     1       0.070  -4.766   0.597  0.00  0.00    -0.252 OA
ATOM      4  N   UNL     1       0.089  -5.358   2.738  0.00  0.00    -0.297 N 
ATOM      5  H   UNL     1       0.055  -2.845   3.015  0.00  0.00    +0.157 HD
ATOM      6  H   UNL     1       0.089  -5.086   3.669  0.00  0.00    +0.150 HD
ENDROOT
BRANCH   1  11
ATOM      7  C   UNL     1      -0.018   1.503   0.010  0.00  0.00    +0.046 C 
ATOM      8  C   UNL     1       0.002  -0.004   0.002  0.00  0.00    -0.021 A 
ATOM      9  C   UNL     1       0.006  -0.713  -1.143  0.00  0.00    -0.007 A 
ATOM     10  S   UNL     1       0.032  -2.400  -0.579  0.00  0.00    -0.077 S 
ATOM     11  C   UNL     1       0.037  -2.157   1.081  0.00  0.00    +0.091 A 
ATOM     12  C   UNL     1       0.025  -0.778   1.222  0.00  0.00    +0.083 A 
ATOM     13  C   UNL     1      -0.009  -0.201  -2.560  0.00  0.00    +0.052 C 
BRANCH  12  14
ATOM     14  C   UNL     1       0.029  -0.153   2.510  0.00  0.00    +0.102 C 
ATOM     15  N   UNL     1       0.032   0.344   3.532  0.00  0.00    -0.191 NA
ENDBRANCH  12  14
ENDBRANCH   1  11
BRANCH   4  16
ATOM     16  C   UNL     1       0.107  -6.781   2.390  0.00  0.00    +0.137 C 
BRANCH  16  17
ATOM     17  C   UNL     1       0.124  -7.619   3.670  0.00  0.00    +0.135 C 
ATOM     18  C   UNL     1       0.268  -9.099   3.309  0.00  0.00    +0.033 C 
ATOM     19  C   UNL     1       0.225  -9.936   4.591  0.00  0.00    +0.005 C 
ATOM     20  C   UNL     1      -1.083  -9.643   5.334  0.00  0.00    +0.028 C 
ATOM     21  C   UNL     1      -1.174  -8.142   5.617  0.00  0.00    +0.160 C 
ATOM     22  O   UNL     1      -1.097  -7.420   4.386  0.00  0.00    -0.375 OA
ENDBRANCH  16  17
ENDBRANCH   4  16
TORSDOF 4
