REMARK  Name = ZINC38744529
REMARK  7 active torsions:
REMARK  status: ('A' for Active; 'I' for Inactive)
REMARK    1  A    between atoms: C_1  and  C_2
REMARK    2  A    between atoms: C_2  and  C_3
REMARK    3  A    between atoms: C_2  and  C_4
REMARK    4  A    between atoms: C_6  and  C_10
REMARK    5  A    between atoms: C_14  and  C_19
REMARK    6  A    between atoms: C_19  and  O_20
REMARK    7  A    between atoms: O_20  and  C_21
REMARK                            x       y       z     vdW  Elec       q    Type
REMARK                         _______ _______ _______ _____ _____    ______ ____
ROOT
ATOM      1  C   UNL     1       0.938  -0.952   4.528  0.00  0.00    +0.182 C 
ATOM      2  N   UNL     1       2.033  -1.141   5.517  0.00  0.00    -0.265 N 
ATOM      3  N   UNL     1       1.621  -1.438   6.782  0.00  0.00    -0.221 N 
ATOM      4  C   UNL     1       2.141  -1.371   8.062  0.00  0.00    +0.189 A 
ATOM      5  N   UNL     1       1.258  -1.859   8.881  0.00  0.00    -0.128 NA
ATOM      6  N   UNL     1       0.206  -2.220   8.232  0.00  0.00    -0.121 NA
ATOM      7  C   UNL     1       0.371  -1.969   6.971  0.00  0.00    +0.211 A 
ATOM      8  S   UNL     1      -0.348  -1.996   5.341  0.00  0.00    -0.058 S 
ATOM      9  H   UNL     1       2.705  -1.817   5.187  0.00  0.00    +0.168 HD
ENDROOT
BRANCH   1  12
ATOM     10  C   UNL     1       0.731  -0.503   1.223  0.00  0.00    +0.064 C 
ATOM     11  C   UNL     1       0.194  -1.291   2.157  0.00  0.00    +0.029 C 
ATOM     12  C   UNL     1       1.322  -1.500   3.152  0.00  0.00    +0.185 C 
ATOM     13  N   UNL     1       2.427  -0.722   2.567  0.00  0.00    -0.177 NA
ATOM     14  N   UNL     1       2.019  -0.219   1.517  0.00  0.00    -0.158 NA
BRANCH  10  16
ATOM     15  C   UNL     1      -0.019   1.526   0.010  0.00  0.00    +0.014 C 
ATOM     16  C   UNL     1       0.002  -0.004   0.002  0.00  0.00    +0.033 C 
ATOM     17  C   UNL     1       0.718  -0.497  -1.257  0.00  0.00    +0.014 C 
ENDBRANCH  10  16
ENDBRANCH   1  12
BRANCH   4  18
ATOM     18  C   UNL     1       3.495  -0.827   8.441  0.00  0.00    +0.306 C 
BRANCH  18  19
ATOM     19  O   UNL     1       3.387   0.572   8.713  0.00  0.00    -0.484 OA
BRANCH  19  20
ATOM     20  C   UNL     1       4.527   1.220   9.072  0.00  0.00    +0.121 A 
ATOM     21  C   UNL     1       5.725   0.525   9.154  0.00  0.00    +0.045 A 
ATOM     22  C   UNL     1       6.882   1.186   9.519  0.00  0.00    +0.004 A 
ATOM     23  C   UNL     1       6.846   2.539   9.802  0.00  0.00    +0.000 A 
ATOM     24  C   UNL     1       5.653   3.234   9.721  0.00  0.00    +0.004 A 
ATOM     25  C   UNL     1       4.495   2.579   9.351  0.00  0.00    +0.045 A 
ENDBRANCH  19  20
ENDBRANCH  18  19
ENDBRANCH   4  18
TORSDOF 5
