REMARK  Name = ZINC44457896
REMARK  6 active torsions:
REMARK  status: ('A' for Active; 'I' for Inactive)
REMARK    1  A    between atoms: C_1  and  C_2
REMARK    2  A    between atoms: C_5  and  N_12
REMARK    3  A    between atoms: C_8  and  C_10
REMARK    4  A    between atoms: C_8  and  C_11
REMARK    5  A    between atoms: C_13  and  C_15
REMARK    6  A    between atoms: N_23  and  C_24
REMARK                            x       y       z     vdW  Elec       q    Type
REMARK                         _______ _______ _______ _____ _____    ______ ____
ROOT
ATOM      1  N   UNL     1      -0.175  -2.687  -0.562  0.00  0.00    -0.312 N 
ATOM      2  C   UNL     1      -0.855  -2.501  -1.711  0.00  0.00    +0.216 C 
ATOM      3  O   UNL     1      -1.984  -2.058  -1.682  0.00  0.00    -0.276 OA
ATOM      4  H   UNL     1       0.728  -3.042  -0.585  0.00  0.00    +0.149 HD
ENDROOT
BRANCH   2   5
ATOM      5  C   UNL     1      -0.213  -2.844  -3.030  0.00  0.00    +0.078 C 
ATOM      6  C   UNL     1       1.056  -2.009  -3.212  0.00  0.00    +0.032 C 
ATOM      7  C   UNL     1       1.725  -2.385  -4.538  0.00  0.00    +0.110 C 
ATOM      8  N   UNL     1       0.744  -2.234  -5.621  0.00  0.00    -0.286 N 
ATOM      9  C   UNL     1      -0.549  -2.923  -5.505  0.00  0.00    +0.110 C 
ATOM     10  C   UNL     1      -1.192  -2.541  -4.168  0.00  0.00    +0.032 C 
ATOM     11  C   UNL     1       1.024  -1.479  -6.702  0.00  0.00    +0.302 C 
ATOM     12  O   UNL     1       0.172  -1.288  -7.548  0.00  0.00    -0.253 OA
ATOM     13  N   UNL     1       2.249  -0.935  -6.843  0.00  0.00    -0.296 N 
ATOM     14  H   UNL     1       2.906  -1.026  -6.135  0.00  0.00    +0.151 HD
BRANCH  13  15
ATOM     15  C   UNL     1       2.589  -0.205  -8.068  0.00  0.00    +0.075 C 
ATOM     16  C   UNL     1       3.961  -0.473  -8.692  0.00  0.00    +0.024 C 
ATOM     17  C   UNL     1       3.691   0.853  -7.977  0.00  0.00    +0.024 C 
ENDBRANCH  13  15
ENDBRANCH   2   5
BRANCH   1  21
ATOM     18  C   UNL     1       2.014  -3.651   3.008  0.00  0.00    +0.007 C 
ATOM     19  C   UNL     1       0.944  -3.688   1.915  0.00  0.00    -0.012 C 
ATOM     20  C   UNL     1       0.271  -2.317   1.814  0.00  0.00    +0.025 C 
ATOM     21  C   UNL     1      -0.799  -2.354   0.721  0.00  0.00    +0.074 C 
ATOM     22  C   UNL     1      -1.847  -3.413   1.068  0.00  0.00    +0.028 C 
ATOM     23  C   UNL     1      -1.174  -4.783   1.169  0.00  0.00    -0.033 C 
ATOM     24  C   UNL     1      -0.104  -4.747   2.262  0.00  0.00    +0.009 C 
ATOM     25  C   UNL     1      -0.522  -5.131  -0.171  0.00  0.00    +0.011 C 
ATOM     26  C   UNL     1      -2.222  -5.842   1.517  0.00  0.00    +0.011 C 
ENDBRANCH   1  21
TORSDOF 3
