REMARK  Name = ZINC36207660
REMARK  13 active torsions:
REMARK  status: ('A' for Active; 'I' for Inactive)
REMARK    1  A    between atoms: C_1  and  C_2
REMARK    2  A    between atoms: C_7  and  C_8
REMARK    3  A    between atoms: C_17  and  C_19
REMARK    4  A    between atoms: C_19  and  N_20
REMARK    5  A    between atoms: N_20  and  C_21
REMARK    6  A    between atoms: N_20  and  C_27
REMARK    7  A    between atoms: C_21  and  C_22
REMARK    8  A    between atoms: C_27  and  C_28
REMARK    9  A    between atoms: C_28  and  C_30
REMARK   10  A    between atoms: C_28  and  O_35
REMARK   11  A    between atoms: C_30  and  O_31
REMARK   12  A    between atoms: O_31  and  C_32
REMARK   13  A    between atoms: C_32  and  C_33
REMARK                            x       y       z     vdW  Elec       q    Type
REMARK                         _______ _______ _______ _____ _____    ______ ____
ROOT
ATOM      1  C   UNL     1       0.870   0.590   2.523  0.00  0.00    +0.004 A 
ATOM      2  C   UNL     1       1.937   0.776   3.337  0.00  0.00    +0.056 A 
ATOM      3  S   UNL     1       1.264   1.722   4.690  0.00  0.00    -0.076 S 
ATOM      4  C   UNL     1      -0.417   1.844   4.136  0.00  0.00    +0.116 A 
ATOM      5  C   UNL     1      -0.417   1.154   2.913  0.00  0.00    +0.080 A 
ATOM      6  C   UNL     1      -1.674   1.099   2.231  0.00  0.00    +0.260 A 
ATOM      7  O   UNL     1      -1.774   0.519   1.164  0.00  0.00    -0.267 OA
ATOM      8  N   UNL     1      -2.744   1.699   2.786  0.00  0.00    -0.312 N 
ATOM      9  H   UNL     1      -3.598   1.665   2.328  0.00  0.00    +0.170 HD
ATOM     10  C   UNL     1      -2.650   2.349   3.974  0.00  0.00    +0.094 A 
ATOM     11  N   UNL     1      -1.519   2.409   4.624  0.00  0.00    -0.229 NA
ENDROOT
BRANCH   1  18
ATOM     12  C   UNL     1       0.488   1.944  -0.005  0.00  0.00    +0.044 C 
ATOM     13  C   UNL     1       0.827   0.476   0.033  0.00  0.00    -0.043 A 
ATOM     14  C   UNL     1       0.964  -0.233  -1.144  0.00  0.00    +0.004 A 
ATOM     15  C   UNL     1       1.276  -1.580  -1.110  0.00  0.00    +0.000 A 
ATOM     16  C   UNL     1       1.452  -2.225   0.101  0.00  0.00    +0.001 A 
ATOM     17  C   UNL     1       1.317  -1.527   1.284  0.00  0.00    +0.009 A 
ATOM     18  C   UNL     1       1.010  -0.167   1.256  0.00  0.00    -0.014 A 
ENDBRANCH   1  18
BRANCH  10  19
ATOM     19  C   UNL     1      -3.875   3.006   4.557  0.00  0.00    -0.003 C 
BRANCH  19  20
ATOM     20  N   UNL     1      -3.528   3.641   5.836  0.00  0.00    +0.391 N 
ATOM     21  H   UNL     1      -3.108   2.958   6.448  0.00  0.00    -0.080 HD
BRANCH  20  22
ATOM     22  C   UNL     1      -2.577   4.735   5.597  0.00  0.00    -0.002 C 
BRANCH  22  23
ATOM     23  C   UNL     1      -2.111   5.292   6.918  0.00  0.00    +0.089 A 
ATOM     24  C   UNL     1      -1.109   4.802   7.669  0.00  0.00    +0.042 A 
ATOM     25  C   UNL     1      -1.015   5.625   8.814  0.00  0.00    +0.041 A 
ATOM     26  C   UNL     1      -1.966   6.569   8.695  0.00  0.00    +0.195 A 
ATOM     27  O   UNL     1      -2.623   6.366   7.541  0.00  0.00    -0.470 OA
ENDBRANCH  22  23
ENDBRANCH  20  22
BRANCH  20  28
ATOM     28  C   UNL     1      -4.744   4.177   6.462  0.00  0.00    -0.044 C 
BRANCH  28  29
ATOM     29  C   UNL     1      -5.674   3.023   6.841  0.00  0.00    +0.124 C 
BRANCH  29  30
ATOM     30  O   UNL     1      -5.021   2.177   7.789  0.00  0.00    -0.391 OA
ATOM     31  H   UNL     1      -4.834   2.605   8.635  0.00  0.00    +0.210 HD
ENDBRANCH  29  30
BRANCH  29  32
ATOM     32  C   UNL     1      -6.958   3.583   7.457  0.00  0.00    +0.189 C 
BRANCH  32  33
ATOM     33  O   UNL     1      -7.874   2.515   7.704  0.00  0.00    -0.373 OA
BRANCH  33  34
ATOM     34  C   UNL     1      -9.112   2.932   8.282  0.00  0.00    +0.186 C 
BRANCH  34  35
ATOM     35  C   UNL     1      -9.996   1.731   8.498  0.00  0.00    -0.007 C 
ATOM     36  C   UNL     1     -10.641   1.587   9.629  0.00  0.00    +0.006 C 
ENDBRANCH  34  35
ENDBRANCH  33  34
ENDBRANCH  32  33
ENDBRANCH  29  32
ENDBRANCH  28  29
ENDBRANCH  20  28
ENDBRANCH  19  20
ENDBRANCH  10  19
TORSDOF 12
