REMARK  Name = ZINC39665180
REMARK  8 active torsions:
REMARK  status: ('A' for Active; 'I' for Inactive)
REMARK    1  A    between atoms: C_1  and  C_2
REMARK    2  A    between atoms: C_5  and  C_9
REMARK    3  A    between atoms: C_13  and  C_22
REMARK    4  A    between atoms: N_24  and  C_25
REMARK    5  A    between atoms: C_25  and  C_26
REMARK    6  A    between atoms: C_26  and  C_28
REMARK    7  A    between atoms: C_26  and  O_29
REMARK    8  A    between atoms: O_29  and  C_30
REMARK                            x       y       z     vdW  Elec       q    Type
REMARK                         _______ _______ _______ _____ _____    ______ ____
ROOT
ATOM      1  C   UNL     1       0.175  -3.860   0.090  0.00  0.00    +0.247 C 
ATOM      2  O   UNL     1       0.082  -4.407  -0.992  0.00  0.00    -0.270 OA
ATOM      3  N   UNL     1       0.275  -4.598   1.213  0.00  0.00    -0.296 N 
ATOM      4  C   UNL     1       0.265  -4.123   2.616  0.00  0.00    +0.121 C 
ATOM      5  C   UNL     1      -0.566  -5.178   3.380  0.00  0.00    +0.100 C 
ATOM      6  C   UNL     1      -0.460  -6.453   2.528  0.00  0.00    -0.004 C 
ATOM      7  C   UNL     1       0.412  -6.071   1.323  0.00  0.00    +0.115 C 
ATOM      8  C   UNL     1       0.203  -7.570   3.328  0.00  0.00    -0.010 C 
ATOM      9  C   UNL     1       0.245  -8.844   2.479  0.00  0.00    -0.082 C 
ATOM     10  N   UNL     1      -1.121  -9.229   2.104  0.00  0.00    +0.379 N 
ATOM     11  C   UNL     1      -1.719  -8.190   1.257  0.00  0.00    -0.082 C 
ATOM     12  C   UNL     1      -1.843  -6.888   2.054  0.00  0.00    -0.010 C 
ATOM     13  H   UNL     1      -1.096 -10.101   1.597  0.00  0.00    -0.086 HD
ATOM     14  H   UNL     1      -1.678  -9.344   2.937  0.00  0.00    -0.086 HD
ENDROOT
BRANCH   1  19
ATOM     15  C   UNL     1       0.190   1.887   0.417  0.00  0.00    +0.047 C 
ATOM     16  C   UNL     1       0.186   0.383   0.331  0.00  0.00    -0.015 A 
ATOM     17  C   UNL     1       0.743  -0.368   1.351  0.00  0.00    +0.007 A 
ATOM     18  C   UNL     1       0.743  -1.745   1.278  0.00  0.00    +0.013 A 
ATOM     19  C   UNL     1       0.178  -2.384   0.173  0.00  0.00    +0.040 A 
ATOM     20  C   UNL     1      -0.384  -1.623  -0.853  0.00  0.00    +0.051 A 
ATOM     21  C   UNL     1      -0.382  -0.244  -0.766  0.00  0.00    +0.127 A 
ATOM     22  F   UNL     1      -0.930   0.495  -1.756  0.00  0.00    -0.205 F 
ENDBRANCH   1  19
BRANCH   5  23
ATOM     23  C   UNL     1       0.014  -5.411   4.751  0.00  0.00    +0.218 C 
ATOM     24  O   UNL     1       1.190  -5.193   4.957  0.00  0.00    -0.275 OA
ATOM     25  N   UNL     1      -0.772  -5.861   5.749  0.00  0.00    -0.312 N 
ATOM     26  H   UNL     1      -1.712  -6.035   5.584  0.00  0.00    +0.149 HD
BRANCH  25  27
ATOM     27  C   UNL     1      -0.208  -6.087   7.082  0.00  0.00    +0.148 C 
BRANCH  27  28
ATOM     28  C   UNL     1      -1.305  -6.594   8.020  0.00  0.00    +0.187 C 
ATOM     29  C   UNL     1      -0.716  -6.830   9.412  0.00  0.00    +0.053 C 
BRANCH  28  30
ATOM     30  O   UNL     1      -2.348  -5.620   8.104  0.00  0.00    -0.488 OA
BRANCH  30  31
ATOM     31  C   UNL     1      -3.614  -6.085   8.267  0.00  0.00    +0.121 A 
ATOM     32  C   UNL     1      -4.689  -5.209   8.215  0.00  0.00    +0.045 A 
ATOM     33  C   UNL     1      -5.975  -5.684   8.382  0.00  0.00    +0.004 A 
ATOM     34  C   UNL     1      -6.192  -7.032   8.600  0.00  0.00    +0.000 A 
ATOM     35  C   UNL     1      -5.123  -7.907   8.653  0.00  0.00    +0.004 A 
ATOM     36  C   UNL     1      -3.836  -7.438   8.481  0.00  0.00    +0.045 A 
ENDBRANCH  30  31
ENDBRANCH  28  30
ENDBRANCH  27  28
ENDBRANCH  25  27
ENDBRANCH   5  23
TORSDOF 6
