REMARK  Name = ZINC14557836
REMARK  7 active torsions:
REMARK  status: ('A' for Active; 'I' for Inactive)
REMARK    1  A    between atoms: C_1  and  C_2
REMARK    2  A    between atoms: C_2  and  C_24
REMARK    3  A    between atoms: C_9  and  C_12
REMARK    4  A    between atoms: C_10  and  O_11
REMARK    5  A    between atoms: C_12  and  C_14
REMARK    6  A    between atoms: C_15  and  C_16
REMARK    7  A    between atoms: C_19  and  O_22
REMARK                            x       y       z     vdW  Elec       q    Type
REMARK                         _______ _______ _______ _____ _____    ______ ____
ROOT
ATOM      1  C   UNL     1      -0.019   1.526   0.010  0.00  0.00    +0.060 C 
ATOM      2  C   UNL     1       0.002  -0.004   0.002  0.00  0.00    +0.124 C 
ATOM      3  C   UNL     1       0.719  -0.484  -1.232  0.00  0.00    +0.020 C 
ATOM      4  C   UNL     1       0.408  -1.663  -1.767  0.00  0.00    +0.015 C 
ATOM      5  C   UNL     1      -0.659  -2.459  -1.122  0.00  0.00    +0.059 A 
ATOM      6  C   UNL     1      -1.519  -1.816  -0.219  0.00  0.00    +0.132 A 
ATOM      7  C   UNL     1      -2.530  -2.531   0.405  0.00  0.00    +0.047 A 
ATOM      8  C   UNL     1      -2.693  -3.873   0.142  0.00  0.00    +0.019 A 
ATOM      9  C   UNL     1      -1.844  -4.528  -0.757  0.00  0.00    +0.064 A 
ATOM     10  C   UNL     1      -0.818  -3.815  -1.395  0.00  0.00    +0.138 A 
ATOM     11  O   UNL     1      -1.339  -0.493   0.025  0.00  0.00    -0.482 OA
ATOM     12  C   UNL     1       0.743  -0.505   1.243  0.00  0.00    +0.060 C 
ENDROOT
BRANCH  10  13
ATOM     13  O   UNL     1       0.010  -4.440  -2.269  0.00  0.00    -0.505 OA
ATOM     14  H   UNL     1      -0.299  -4.423  -3.185  0.00  0.00    +0.292 HD
ENDBRANCH  10  13
BRANCH   9  15
ATOM     15  C   UNL     1      -2.027  -5.965  -1.033  0.00  0.00    +0.190 C 
ATOM     16  O   UNL     1      -1.288  -6.534  -1.815  0.00  0.00    -0.287 OA
BRANCH  15  17
ATOM     17  C   UNL     1      -3.097  -6.706  -0.366  0.00  0.00    +0.052 C 
ATOM     18  C   UNL     1      -3.264  -8.023  -0.619  0.00  0.00    +0.012 C 
BRANCH  18  19
ATOM     19  C   UNL     1      -4.339  -8.769   0.050  0.00  0.00    -0.025 A 
ATOM     20  C   UNL     1      -5.187  -8.118   0.955  0.00  0.00    +0.011 A 
ATOM     21  C   UNL     1      -6.196  -8.820   1.575  0.00  0.00    +0.046 A 
ATOM     22  C   UNL     1      -6.366 -10.175   1.314  0.00  0.00    +0.117 A 
ATOM     23  C   UNL     1      -5.523 -10.827   0.420  0.00  0.00    +0.046 A 
ATOM     24  C   UNL     1      -4.515 -10.133  -0.210  0.00  0.00    +0.011 A 
BRANCH  22  25
ATOM     25  O   UNL     1      -7.359 -10.864   1.932  0.00  0.00    -0.507 OA
ATOM     26  H   UNL     1      -7.096 -11.260   2.774  0.00  0.00    +0.292 HD
ENDBRANCH  22  25
ENDBRANCH  18  19
ENDBRANCH  15  17
ENDBRANCH   9  15
TORSDOF 5
