REMARK  Name = ZINC40154904
REMARK  14 active torsions:
REMARK  status: ('A' for Active; 'I' for Inactive)
REMARK    1  A    between atoms: C_1  and  C_2
REMARK    2  A    between atoms: C_2  and  O_3
REMARK    3  A    between atoms: O_3  and  C_4
REMARK    4  A    between atoms: N_6  and  C_7
REMARK    5  A    between atoms: C_7  and  C_9
REMARK    6  A    between atoms: C_7  and  C_13
REMARK    7  A    between atoms: C_9  and  C_10
REMARK    8  A    between atoms: C_10  and  C_11
REMARK    9  A    between atoms: C_10  and  C_12
REMARK   10  A    between atoms: C_13  and  N_14
REMARK   11  A    between atoms: C_15  and  C_17
REMARK   12  A    between atoms: C_18  and  C_30
REMARK   13  A    between atoms: N_20  and  C_23
REMARK   14  A    between atoms: C_21  and  C_22
REMARK                            x       y       z     vdW  Elec       q    Type
REMARK                         _______ _______ _______ _____ _____    ______ ____
ROOT
ATOM      1  N   UNL     1       3.695  -3.375   2.602  0.00  0.00    -0.309 N 
ATOM      2  C   UNL     1       4.874  -3.543   3.233  0.00  0.00    +0.248 C 
ATOM      3  O   UNL     1       4.915  -4.120   4.303  0.00  0.00    -0.270 OA
ATOM      4  H   UNL     1       3.663  -2.915   1.749  0.00  0.00    +0.149 HD
ENDROOT
BRANCH   2   5
ATOM      5  C   UNL     1       6.115  -3.027   2.627  0.00  0.00    +0.080 A 
ATOM      6  C   UNL     1       6.676  -1.746   2.826  0.00  0.00    +0.073 A 
ATOM      7  N   UNL     1       7.771  -1.669   2.120  0.00  0.00    -0.171 NA
ATOM      8  N   UNL     1       7.961  -2.880   1.445  0.00  0.00    -0.236 N 
ATOM      9  C   UNL     1       6.949  -3.708   1.762  0.00  0.00    +0.054 A 
ATOM     10  C   UNL     1       6.759  -5.117   1.263  0.00  0.00    +0.066 C 
ATOM     11  C   UNL     1       6.109  -0.657   3.700  0.00  0.00    +0.068 C 
BRANCH   8  12
ATOM     12  C   UNL     1       9.028  -3.181   0.587  0.00  0.00    +0.066 A 
ATOM     13  C   UNL     1      10.317  -2.782   0.914  0.00  0.00    +0.029 A 
ATOM     14  C   UNL     1      11.366  -3.080   0.067  0.00  0.00    +0.017 A 
ATOM     15  C   UNL     1      11.134  -3.776  -1.106  0.00  0.00    +0.018 A 
ATOM     16  C   UNL     1       9.850  -4.175  -1.434  0.00  0.00    +0.017 A 
ATOM     17  C   UNL     1       8.798  -3.884  -0.588  0.00  0.00    +0.029 A 
ATOM     18 BR   UNL     1      12.573  -4.183  -2.263  0.00  0.00    -0.050 Br
ENDBRANCH   8  12
ENDBRANCH   2   5
BRANCH   1  19
ATOM     19  C   UNL     1       2.462  -3.888   3.205  0.00  0.00    +0.126 C 
BRANCH  19  20
ATOM     20  C   UNL     1       1.277  -3.568   2.293  0.00  0.00    +0.093 C 
BRANCH  20  23
ATOM     21  C   UNL     1       0.601  -1.660   0.936  0.00  0.00    +0.401 C 
ATOM     22  O   UNL     1       0.133  -2.436   0.126  0.00  0.00    -0.226 OA
ATOM     23  N   UNL     1       1.241  -2.128   2.026  0.00  0.00    -0.277 N 
ATOM     24  H   UNL     1       1.679  -1.511   2.633  0.00  0.00    +0.152 HD
BRANCH  21  25
ATOM     25  O   UNL     1       0.479  -0.333   0.744  0.00  0.00    -0.451 OA
BRANCH  25  27
ATOM     26  C   UNL     1      -0.249   1.621  -0.478  0.00  0.00    +0.048 C 
ATOM     27  C   UNL     1      -0.212   0.092  -0.432  0.00  0.00    +0.230 C 
ENDBRANCH  25  27
ENDBRANCH  21  25
ENDBRANCH  20  23
BRANCH  20  28
ATOM     28  C   UNL     1      -0.024  -3.991   2.979  0.00  0.00    +0.027 C 
BRANCH  28  29
ATOM     29  C   UNL     1      -0.050  -5.514   3.127  0.00  0.00    -0.015 C 
ATOM     30  C   UNL     1      -1.286  -5.928   3.928  0.00  0.00    +0.007 C 
ATOM     31  C   UNL     1      -0.100  -6.160   1.741  0.00  0.00    +0.007 C 
ENDBRANCH  28  29
ENDBRANCH  20  28
ENDBRANCH  19  20
ENDBRANCH   1  19
TORSDOF 9
