REMARK  Name = ZINC65356191
REMARK  7 active torsions:
REMARK  status: ('A' for Active; 'I' for Inactive)
REMARK    1  A    between atoms: C_1  and  C_2
REMARK    2  A    between atoms: C_5  and  N_8
REMARK    3  A    between atoms: C_9  and  C_30
REMARK    4  A    between atoms: C_13  and  S_15
REMARK    5  A    between atoms: S_15  and  C_16
REMARK    6  A    between atoms: C_16  and  C_17
REMARK    7  A    between atoms: N_19  and  C_20
REMARK                            x       y       z     vdW  Elec       q    Type
REMARK                         _______ _______ _______ _____ _____    ______ ____
ROOT
ATOM      1  N   UNL     1      -0.192  -4.613  -0.162  0.00  0.00    -0.284 N 
ATOM      2  C   UNL     1       0.211  -5.187   1.138  0.00  0.00    +0.188 C 
ATOM      3  N   UNL     1      -0.018  -6.648   0.980  0.00  0.00    -0.230 NA
ATOM      4  N   UNL     1       0.385  -6.896  -0.413  0.00  0.00    -0.226 NA
ATOM      5  C   UNL     1      -0.088  -5.702  -1.149  0.00  0.00    +0.218 C 
ATOM      6  H   UNL     1      -0.990  -6.879   1.123  0.00  0.00    +0.143 HD
ATOM      7  H   UNL     1      -0.049  -7.734  -0.771  0.00  0.00    +0.143 HD
ENDROOT
BRANCH   1  12
ATOM      8  C   UNL     1      -1.839   0.722  -1.151  0.00  0.00    +0.044 C 
ATOM      9  C   UNL     1      -1.402  -0.696  -0.888  0.00  0.00    -0.050 A 
ATOM     10  C   UNL     1      -1.480  -1.640  -1.896  0.00  0.00    +0.005 A 
ATOM     11  C   UNL     1      -1.079  -2.940  -1.658  0.00  0.00    +0.023 A 
ATOM     12  C   UNL     1      -0.598  -3.299  -0.406  0.00  0.00    +0.033 A 
ATOM     13  C   UNL     1      -0.520  -2.348   0.604  0.00  0.00    +0.023 A 
ATOM     14  C   UNL     1      -0.917  -1.048   0.358  0.00  0.00    +0.005 A 
ENDBRANCH   1  12
BRANCH   2  15
ATOM     15  C   UNL     1      -0.645  -4.634   2.248  0.00  0.00    -0.011 A 
ATOM     16  C   UNL     1      -2.023  -4.674   2.142  0.00  0.00    +0.008 A 
ATOM     17  C   UNL     1      -2.809  -4.166   3.159  0.00  0.00    +0.020 A 
ATOM     18  C   UNL     1      -2.217  -3.617   4.283  0.00  0.00    +0.041 A 
ATOM     19  C   UNL     1      -0.838  -3.577   4.388  0.00  0.00    +0.020 A 
ATOM     20  C   UNL     1      -0.053  -4.091   3.372  0.00  0.00    +0.008 A 
ATOM     21 CL   UNL     1      -3.204  -2.979   5.561  0.00  0.00    -0.084 Cl
ENDBRANCH   2  15
BRANCH   5  22
ATOM     22  S   UNL     1       1.106  -5.258  -2.440  0.00  0.00    -0.112 S 
BRANCH  22  23
ATOM     23  C   UNL     1       2.660  -5.015  -1.536  0.00  0.00    +0.168 C 
BRANCH  23  24
ATOM     24  C   UNL     1       3.751  -4.638  -2.504  0.00  0.00    +0.227 C 
ATOM     25  O   UNL     1       3.505  -4.542  -3.688  0.00  0.00    -0.275 OA
ATOM     26  N   UNL     1       5.000  -4.406  -2.055  0.00  0.00    -0.285 N 
ATOM     27  H   UNL     1       5.215  -4.555  -1.121  0.00  0.00    +0.155 HD
BRANCH  26  28
ATOM     28  C   UNL     1       5.988  -3.951  -2.936  0.00  0.00    +0.032 C 
ATOM     29  C   UNL     1       7.109  -4.680  -3.075  0.00  0.00    +0.029 C 
ATOM     30  C   UNL     1       8.198  -4.174  -3.975  0.00  0.00    +0.184 C 
ATOM     31  C   UNL     1       7.538  -3.318  -5.045  0.00  0.00    +0.002 C 
ATOM     32  C   UNL     1       8.043  -3.791  -6.197  0.00  0.00    +0.140 C 
ATOM     33  N   UNL     1       8.766  -4.896  -5.957  0.00  0.00    -0.161 NA
ATOM     34  N   UNL     1       8.884  -5.206  -4.746  0.00  0.00    -0.175 NA
ATOM     35  C   UNL     1       6.521  -2.394  -4.754  0.00  0.00    +0.009 C 
ATOM     36  C   UNL     1       5.751  -2.706  -3.669  0.00  0.00    +0.023 C 
ENDBRANCH  26  28
ENDBRANCH  23  24
ENDBRANCH  22  23
ENDBRANCH   5  22
TORSDOF 6
