REMARK  Name = ZINC04043754
REMARK  6 active torsions:
REMARK  status: ('A' for Active; 'I' for Inactive)
REMARK    1  A    between atoms: C_1  and  C_2
REMARK    2  A    between atoms: C_4  and  N_25
REMARK    3  A    between atoms: C_7  and  N_8
REMARK    4  A    between atoms: C_9  and  C_11
REMARK    5  A    between atoms: C_11  and  C_13
REMARK    6  A    between atoms: C_11  and  N_14
REMARK                            x       y       z     vdW  Elec       q    Type
REMARK                         _______ _______ _______ _____ _____    ______ ____
ROOT
ATOM      1  N   UNL     1      -1.195   2.161   0.019  0.00  0.00    -0.284 N 
ATOM      2  C   UNL     1      -0.018   1.502   0.013  0.00  0.00    +0.238 C 
ATOM      3  O   UNL     1       1.024   2.123   0.003  0.00  0.00    -0.273 OA
ATOM      4  H   UNL     1      -2.027   1.668  -0.054  0.00  0.00    +0.155 HD
ENDROOT
BRANCH   1  11
ATOM      5  C   UNL     1      -3.440   3.561  -1.026  0.00  0.00    +0.046 C 
ATOM      6  C   UNL     1      -2.292   4.278  -0.364  0.00  0.00    -0.027 A 
ATOM      7  C   UNL     1      -2.312   5.654  -0.246  0.00  0.00    +0.038 A 
ATOM      8  C   UNL     1      -1.256   6.313   0.357  0.00  0.00    +0.127 A 
ATOM      9  C   UNL     1      -0.180   5.596   0.848  0.00  0.00    +0.034 A 
ATOM     10  C   UNL     1      -0.156   4.220   0.737  0.00  0.00    +0.026 A 
ATOM     11  C   UNL     1      -1.215   3.555   0.133  0.00  0.00    +0.036 A 
BRANCH   8  12
ATOM     12  N   UNL     1      -1.278   7.788   0.476  0.00  0.00    +0.056 N 
ATOM     13  O   UNL     1      -0.349   8.370   1.006  0.00  0.00    -0.126 OA
ATOM     14  O   UNL     1      -2.225   8.420   0.044  0.00  0.00    -0.126 OA
ENDBRANCH   8  12
ENDBRANCH   1  11
BRANCH   2  15
ATOM     15  C   UNL     1       0.002  -0.004   0.013  0.00  0.00    +0.168 C 
ATOM     16  C   UNL     1      -0.725  -0.524  -1.229  0.00  0.00    +0.038 C 
BRANCH  15  17
ATOM     17  N   UNL     1       1.389  -0.474  -0.001  0.00  0.00    -0.222 N 
ATOM     18  C   UNL     1       2.277  -0.198  -0.974  0.00  0.00    +0.254 C 
ATOM     19  O   UNL     1       2.058   0.471  -1.964  0.00  0.00    -0.270 OA
ATOM     20  C   UNL     1       3.563  -0.842  -0.634  0.00  0.00    +0.049 A 
ATOM     21  C   UNL     1       4.806  -0.901  -1.244  0.00  0.00    +0.014 A 
ATOM     22  C   UNL     1       5.831  -1.618  -0.646  0.00  0.00    +0.001 A 
ATOM     23  C   UNL     1       5.622  -2.272   0.553  0.00  0.00    +0.001 A 
ATOM     24  C   UNL     1       4.384  -2.221   1.175  0.00  0.00    +0.014 A 
ATOM     25  C   UNL     1       3.350  -1.509   0.589  0.00  0.00    +0.049 A 
ATOM     26  C   UNL     1       1.942  -1.244   0.954  0.00  0.00    +0.254 C 
ATOM     27  O   UNL     1       1.379  -1.652   1.949  0.00  0.00    -0.270 OA
ENDBRANCH  15  17
ENDBRANCH   2  15
TORSDOF 4
