REMARK  Name = ZINC15963593
REMARK  10 active torsions:
REMARK  status: ('A' for Active; 'I' for Inactive)
REMARK    1  A    between atoms: C_1  and  C_2
REMARK    2  A    between atoms: C_3  and  C_34
REMARK    3  A    between atoms: C_11  and  C_13
REMARK    4  A    between atoms: C_13  and  S_14
REMARK    5  A    between atoms: S_14  and  C_15
REMARK    6  A    between atoms: C_15  and  C_17
REMARK    7  A    between atoms: C_15  and  C_18
REMARK    8  A    between atoms: N_20  and  C_21
REMARK    9  A    between atoms: C_26  and  O_27
REMARK   10  A    between atoms: O_27  and  C_28
REMARK                            x       y       z     vdW  Elec       q    Type
REMARK                         _______ _______ _______ _____ _____    ______ ____
ROOT
ATOM      1  C   UNL     1       2.229   0.790   1.543  0.00  0.00    +0.130 C 
ATOM      2  C   UNL     1       1.948  -0.094   2.760  0.00  0.00    +0.029 C 
ENDROOT
BRANCH   1   3
ATOM      3  C   UNL     1       0.984   1.558   1.182  0.00  0.00    +0.230 C 
ATOM      4  O   UNL     1       0.865   2.716   1.525  0.00  0.00    -0.274 OA
ATOM      5  N   UNL     1       0.002   0.960   0.479  0.00  0.00    -0.282 N 
ATOM      6  H   UNL     1       0.130   0.061   0.137  0.00  0.00    +0.155 HD
BRANCH   5   7
ATOM      7  C   UNL     1      -1.200   1.637   0.238  0.00  0.00    +0.076 A 
ATOM      8  C   UNL     1      -1.206   3.019   0.111  0.00  0.00    +0.027 A 
ATOM      9  C   UNL     1      -2.393   3.685  -0.131  0.00  0.00    +0.002 A 
ATOM     10  C   UNL     1      -3.577   2.978  -0.239  0.00  0.00    +0.004 A 
ATOM     11  C   UNL     1      -3.579   1.602  -0.108  0.00  0.00    +0.048 A 
ATOM     12  C   UNL     1      -2.393   0.926   0.130  0.00  0.00    +0.150 A 
BRANCH  12  13
ATOM     13  O   UNL     1      -2.394  -0.427   0.258  0.00  0.00    -0.454 OA
BRANCH  13  14
ATOM     14  C   UNL     1      -2.316  -0.950   1.510  0.00  0.00    +0.129 A 
ATOM     15  C   UNL     1      -2.161  -0.111   2.604  0.00  0.00    +0.046 A 
ATOM     16  C   UNL     1      -2.087  -0.645   3.876  0.00  0.00    +0.004 A 
ATOM     17  C   UNL     1      -2.157  -2.014   4.058  0.00  0.00    +0.000 A 
ATOM     18  C   UNL     1      -2.307  -2.852   2.969  0.00  0.00    +0.004 A 
ATOM     19  C   UNL     1      -2.386  -2.323   1.695  0.00  0.00    +0.046 A 
ENDBRANCH  13  14
ENDBRANCH  12  13
ENDBRANCH   5   7
ENDBRANCH   1   3
BRANCH   1  20
ATOM     20  S   UNL     1       3.565   1.952   1.935  0.00  0.00    -0.141 S 
BRANCH  20  21
ATOM     21  C   UNL     1       5.011   0.888   2.194  0.00  0.00    +0.144 C 
BRANCH  21  32
ATOM     22  C   UNL     1      10.820   3.852   3.751  0.00  0.00    +0.045 C 
ATOM     23  C   UNL     1       9.406   4.281   3.454  0.00  0.00    -0.026 A 
ATOM     24  C   UNL     1       9.074   5.582   3.470  0.00  0.00    -0.008 A 
ATOM     25  S   UNL     1       7.337   5.569   3.067  0.00  0.00    -0.073 S 
ATOM     26  C   UNL     1       7.109   3.819   2.889  0.00  0.00    +0.116 A 
ATOM     27  C   UNL     1       8.388   3.294   3.148  0.00  0.00    +0.075 A 
ATOM     28  C   UNL     1       8.499   1.867   3.071  0.00  0.00    +0.260 A 
ATOM     29  O   UNL     1       9.566   1.317   3.279  0.00  0.00    -0.267 OA
ATOM     30  N   UNL     1       7.404   1.144   2.772  0.00  0.00    -0.310 N 
ATOM     31  H   UNL     1       7.472   0.177   2.723  0.00  0.00    +0.170 HD
ATOM     32  C   UNL     1       6.207   1.740   2.532  0.00  0.00    +0.121 A 
ATOM     33  N   UNL     1       6.074   3.038   2.594  0.00  0.00    -0.226 NA
ATOM     34  C   UNL     1       9.957   6.768   3.760  0.00  0.00    +0.052 C 
ENDBRANCH  21  32
ENDBRANCH  20  21
ENDBRANCH   1  20
TORSDOF 7
