REMARK  Name = ZINC12894745
REMARK  4 active torsions:
REMARK  status: ('A' for Active; 'I' for Inactive)
REMARK    1  A    between atoms: C_1  and  C_2
REMARK    2  A    between atoms: C_2  and  C_33
REMARK    3  A    between atoms: C_7  and  C_32
REMARK    4  A    between atoms: N_28  and  C_31
REMARK                            x       y       z     vdW  Elec       q    Type
REMARK                         _______ _______ _______ _____ _____    ______ ____
ROOT
ATOM      1  C   UNL     1      -2.959   0.167  -4.427  0.00  0.00    +0.011 C 
ATOM      2  C   UNL     1      -2.926   0.696  -2.983  0.00  0.00    -0.033 C 
ATOM      3  C   UNL     1      -4.057   1.681  -2.773  0.00  0.00    +0.029 C 
ATOM      4  C   UNL     1      -3.674   3.140  -2.977  0.00  0.00    +0.076 C 
ATOM      5  C   UNL     1      -2.378   3.201  -3.829  0.00  0.00    +0.031 C 
ATOM      6  C   UNL     1      -1.339   2.710  -2.760  0.00  0.00    -0.010 C 
ATOM      7  C   UNL     1      -1.536   1.204  -2.645  0.00  0.00    +0.015 C 
ATOM      8  C   UNL     1      -1.830   3.481  -1.521  0.00  0.00    +0.105 C 
ATOM      9  N   UNL     1      -3.247   3.739  -1.693  0.00  0.00    -0.308 N 
ATOM     10  C   UNL     1      -4.106   3.532  -0.653  0.00  0.00    +0.103 A 
ATOM     11  C   UNL     1      -3.641   3.496   0.670  0.00  0.00    -0.007 A 
ATOM     12  C   UNL     1      -4.518   3.347   1.703  0.00  0.00    +0.017 A 
ATOM     13  C   UNL     1      -5.893   3.243   1.413  0.00  0.00    -0.001 A 
ATOM     14  C   UNL     1      -6.852   3.123   2.429  0.00  0.00    +0.010 A 
ATOM     15  C   UNL     1      -8.173   3.037   2.105  0.00  0.00    +0.001 A 
ATOM     16  C   UNL     1      -8.581   3.051   0.773  0.00  0.00    +0.002 A 
ATOM     17  C   UNL     1      -7.676   3.157  -0.237  0.00  0.00    +0.026 A 
ATOM     18  C   UNL     1      -6.307   3.267   0.059  0.00  0.00    +0.048 A 
ATOM     19  C   UNL     1      -2.178   3.630   0.964  0.00  0.00    +0.066 C 
ATOM     20  C   UNL     1      -1.311   3.078  -0.176  0.00  0.00    +0.146 C 
ATOM     21  C   UNL     1      -1.190   1.599   0.047  0.00  0.00    +0.238 C 
ATOM     22  O   UNL     1      -2.184   0.956   0.313  0.00  0.00    -0.274 OA
ATOM     23  N   UNL     1      -0.011   0.962   0.007  0.00  0.00    -0.239 N 
ATOM     24  C   UNL     1       1.152   1.632  -0.000  0.00  0.00    +0.315 C 
ATOM     25  O   UNL     1       2.197   1.016  -0.047  0.00  0.00    -0.252 OA
ATOM     26  N   UNL     1       1.178   2.972   0.043  0.00  0.00    -0.228 N 
ATOM     27  C   UNL     1       0.063   3.704   0.005  0.00  0.00    +0.240 C 
ATOM     28  O   UNL     1       0.137   4.907   0.119  0.00  0.00    -0.274 OA
ATOM     29  C   UNL     1       2.473   3.652   0.125  0.00  0.00    +0.143 C 
ATOM     30  C   UNL     1       0.101   3.099  -3.183  0.00  0.00    +0.013 C 
ATOM     31  C   UNL     1      -3.215  -0.531  -2.080  0.00  0.00    +0.011 C 
ATOM     32  H   UNL     1       0.002  -0.004   0.002  0.00  0.00    +0.159 HD
ATOM     33  N   UNL     1      -5.425   3.399  -0.989  0.00  0.00    -0.343 N 
ATOM     34  H   UNL     1      -5.739   3.398  -1.967  0.00  0.00    +0.167 HD
ENDROOT
TORSDOF 0
