REMARK  Name = ZINC40071303
REMARK  6 active torsions:
REMARK  status: ('A' for Active; 'I' for Inactive)
REMARK    1  A    between atoms: C_1  and  C_2
REMARK    2  A    between atoms: C_5  and  N_8
REMARK    3  A    between atoms: N_11  and  C_12
REMARK    4  A    between atoms: C_18  and  C_20
REMARK    5  A    between atoms: C_20  and  C_21
REMARK    6  A    between atoms: C_20  and  C_22
REMARK                            x       y       z     vdW  Elec       q    Type
REMARK                         _______ _______ _______ _____ _____    ______ ____
ROOT
ATOM      1  N   UNL     1      -2.903  -0.338   3.016  0.00  0.00    -0.297 N 
ATOM      2  C   UNL     1      -2.536  -1.273   3.914  0.00  0.00    +0.300 C 
ATOM      3  O   UNL     1      -1.858  -2.219   3.563  0.00  0.00    -0.253 OA
ATOM      4  N   UNL     1      -2.920  -1.159   5.201  0.00  0.00    -0.296 N 
ATOM      5  H   UNL     1      -3.444   0.417   3.296  0.00  0.00    +0.151 HD
ATOM      6  H   UNL     1      -3.461  -0.404   5.481  0.00  0.00    +0.151 HD
ENDROOT
BRANCH   4   7
ATOM      7  C   UNL     1      -2.520  -2.176   6.177  0.00  0.00    +0.077 C 
ATOM      8  C   UNL     1      -3.512  -3.340   6.136  0.00  0.00    +0.041 C 
ATOM      9  C   UNL     1      -3.072  -4.417   7.133  0.00  0.00    +0.109 C 
ATOM     10  N   UNL     1      -2.921  -3.800   8.458  0.00  0.00    -0.301 N 
ATOM     11  C   UNL     1      -2.060  -2.617   8.592  0.00  0.00    +0.109 C 
ATOM     12  C   UNL     1      -2.511  -1.561   7.579  0.00  0.00    +0.041 C 
ATOM     13  C   UNL     1      -3.560  -4.310   9.529  0.00  0.00    +0.218 C 
ATOM     14  O   UNL     1      -3.355  -3.849  10.633  0.00  0.00    -0.275 OA
BRANCH  13  15
ATOM     15  C   UNL     1      -4.528  -5.451   9.357  0.00  0.00    +0.069 C 
ATOM     16  C   UNL     1      -3.762  -6.776   9.363  0.00  0.00    +0.017 C 
ATOM     17  C   UNL     1      -5.538  -5.441  10.506  0.00  0.00    +0.017 C 
ENDBRANCH  13  15
ENDBRANCH   4   7
BRANCH   1  22
ATOM     18  C   UNL     1      -2.125   3.842   1.344  0.00  0.00    +0.007 C 
ATOM     19  C   UNL     1      -2.100   2.365   0.948  0.00  0.00    -0.014 C 
ATOM     20  C   UNL     1      -3.498   1.768   1.118  0.00  0.00    +0.005 C 
ATOM     21  C   UNL     1      -3.473   0.290   0.722  0.00  0.00    +0.022 C 
ATOM     22  C   UNL     1      -2.486  -0.462   1.617  0.00  0.00    +0.074 C 
ATOM     23  C   UNL     1      -1.087   0.136   1.447  0.00  0.00    +0.022 C 
ATOM     24  C   UNL     1      -1.112   1.613   1.843  0.00  0.00    +0.005 C 
ENDBRANCH   1  22
TORSDOF 3
