REMARK  Name = ZINC16137595
REMARK  1 active torsions:
REMARK  status: ('A' for Active; 'I' for Inactive)
REMARK    1  A    between atoms: N_11  and  N_14
REMARK                            x       y       z     vdW  Elec       q    Type
REMARK                         _______ _______ _______ _____ _____    ______ ____
ROOT
ATOM      1  C   UNL     1      -0.018   1.510   0.010  0.00  0.00    +0.040 C 
ATOM      2  C   UNL     1       1.424   1.970  -0.001  0.00  0.00    -0.030 C 
ATOM      3  C   UNL     1       2.435   1.220   0.320  0.00  0.00    -0.030 C 
ATOM      4  C   UNL     1       2.321  -0.218   0.778  0.00  0.00    +0.040 C 
ATOM      5  C   UNL     1       0.886  -0.428   1.215  0.00  0.00    +0.093 C 
ATOM      6  C   UNL     1       0.002  -0.004   0.002  0.00  0.00    +0.093 C 
ATOM      7  C   UNL     1      -1.265  -0.733   0.333  0.00  0.00    +0.240 C 
ATOM      8  O   UNL     1      -2.394  -0.395   0.049  0.00  0.00    -0.274 OA
ATOM      9  N   UNL     1      -0.895  -1.848   1.015  0.00  0.00    -0.175 N 
ATOM     10  C   UNL     1       0.409  -1.832   1.433  0.00  0.00    +0.240 C 
ATOM     11  O   UNL     1       1.052  -2.758   1.879  0.00  0.00    -0.274 OA
ENDROOT
BRANCH   9  12
ATOM     12  N   UNL     1      -1.746  -2.885   1.273  0.00  0.00    -0.245 NA
ATOM     13  H   UNL     1      -1.280  -3.615   1.790  0.00  0.00    +0.141 HD
ATOM     14  H   UNL     1      -2.568  -2.564   1.762  0.00  0.00    +0.141 HD
ENDBRANCH   9  12
TORSDOF 1
