REMARK  Name = ZINC09018787
REMARK  13 active torsions:
REMARK  status: ('A' for Active; 'I' for Inactive)
REMARK    1  A    between atoms: C_1  and  C_2
REMARK    2  A    between atoms: C_2  and  O_3
REMARK    3  A    between atoms: O_3  and  C_4
REMARK    4  A    between atoms: C_4  and  C_6
REMARK    5  A    between atoms: C_10  and  N_11
REMARK    6  A    between atoms: C_12  and  C_14
REMARK    7  A    between atoms: C_14  and  C_16
REMARK    8  A    between atoms: C_14  and  S_17
REMARK    9  A    between atoms: S_17  and  C_18
REMARK   10  A    between atoms: C_23  and  C_29
REMARK   11  A    between atoms: C_29  and  C_30
REMARK   12  A    between atoms: C_29  and  C_31
REMARK   13  A    between atoms: C_29  and  C_32
REMARK                            x       y       z     vdW  Elec       q    Type
REMARK                         _______ _______ _______ _____ _____    ______ ____
ROOT
ATOM      1  N   UNL     1      -0.461   4.574  -4.352  0.00  0.00    -0.278 N 
ATOM      2  C   UNL     1       0.626   4.026  -3.774  0.00  0.00    +0.231 C 
ATOM      3  O   UNL     1       1.727   4.228  -4.239  0.00  0.00    -0.274 OA
ATOM      4  H   UNL     1      -1.342   4.413  -3.980  0.00  0.00    +0.155 HD
ENDROOT
BRANCH   1   9
ATOM      5  C   UNL     1      -1.308   6.010  -6.211  0.00  0.00    +0.091 A 
ATOM      6  C   UNL     1      -0.893   6.800  -7.363  0.00  0.00    -0.021 A 
ATOM      7  C   UNL     1       0.436   6.804  -7.601  0.00  0.00    -0.004 A 
ATOM      8  S   UNL     1       1.132   5.798  -6.319  0.00  0.00    -0.077 S 
ATOM      9  C   UNL     1      -0.320   5.369  -5.479  0.00  0.00    +0.086 A 
ATOM     10  C   UNL     1       1.165   7.494  -8.711  0.00  0.00    +0.043 C 
ATOM     11  C   UNL     1       0.691   8.950  -8.801  0.00  0.00    +0.005 C 
ATOM     12  C   UNL     1      -0.506   9.011  -9.745  0.00  0.00    +0.001 C 
ATOM     13  C   UNL     1      -1.323   7.725  -9.641  0.00  0.00    +0.005 C 
ATOM     14  C   UNL     1      -1.884   7.563  -8.233  0.00  0.00    +0.037 C 
BRANCH   5  15
ATOM     15  C   UNL     1      -2.720   5.899  -5.838  0.00  0.00    +0.342 C 
ATOM     16  O   UNL     1      -3.211   6.704  -5.069  0.00  0.00    -0.245 OA
BRANCH  15  17
ATOM     17  O   UNL     1      -3.476   4.905  -6.347  0.00  0.00    -0.461 OA
BRANCH  17  19
ATOM     18  C   UNL     1      -5.559   3.671  -6.608  0.00  0.00    +0.048 C 
ATOM     19  C   UNL     1      -4.867   4.857  -5.933  0.00  0.00    +0.229 C 
ENDBRANCH  17  19
ENDBRANCH  15  17
ENDBRANCH   5  15
ENDBRANCH   1   9
BRANCH   2  20
ATOM     20  C   UNL     1       0.472   3.162  -2.549  0.00  0.00    +0.137 C 
ATOM     21  C   UNL     1       0.155   1.726  -2.973  0.00  0.00    +0.029 C 
BRANCH  20  22
ATOM     22  S   UNL     1       2.016   3.183  -1.596  0.00  0.00    -0.073 S 
BRANCH  22  23
ATOM     23  C   UNL     1       1.633   2.263  -0.143  0.00  0.00    +0.198 A 
ATOM     24  N   UNL     1       0.478   1.709   0.137  0.00  0.00    -0.120 NA
ATOM     25  N   UNL     1       0.589   1.075   1.380  0.00  0.00    -0.109 NA
ATOM     26  C   UNL     1       1.808   1.260   1.824  0.00  0.00    +0.237 A 
ATOM     27  N   UNL     1       2.491   1.996   0.890  0.00  0.00    -0.260 N 
ATOM     28  C   UNL     1       3.805   2.344   1.108  0.00  0.00    +0.039 A 
ATOM     29  C   UNL     1       4.429   1.952   2.233  0.00  0.00    +0.092 A 
ATOM     30  C   UNL     1       3.732   1.186   3.199  0.00  0.00    +0.253 A 
ATOM     31  O   UNL     1       4.294   0.830   4.220  0.00  0.00    -0.268 OA
ATOM     32  N   UNL     1       2.443   0.852   2.986  0.00  0.00    -0.291 N 
ATOM     33  H   UNL     1       1.961   0.327   3.644  0.00  0.00    +0.172 HD
BRANCH  28  34
ATOM     34  C   UNL     1       4.547   3.158   0.080  0.00  0.00    +0.003 C 
ATOM     35  C   UNL     1       5.979   3.402   0.560  0.00  0.00    +0.017 C 
ATOM     36  C   UNL     1       4.576   2.399  -1.248  0.00  0.00    +0.017 C 
ATOM     37  C   UNL     1       3.839   4.500  -0.115  0.00  0.00    +0.017 C 
ENDBRANCH  28  34
ENDBRANCH  22  23
ENDBRANCH  20  22
ENDBRANCH   2  20
TORSDOF 8
