REMARK  Name = ZINC40070798
REMARK  11 active torsions:
REMARK  status: ('A' for Active; 'I' for Inactive)
REMARK    1  A    between atoms: C_1  and  C_2
REMARK    2  A    between atoms: C_3  and  C_33
REMARK    3  A    between atoms: C_4  and  C_32
REMARK    4  A    between atoms: C_7  and  C_8
REMARK    5  A    between atoms: C_8  and  C_10
REMARK    6  A    between atoms: C_10  and  C_12
REMARK    7  A    between atoms: C_10  and  S_13
REMARK    8  A    between atoms: S_13  and  C_14
REMARK    9  A    between atoms: C_18  and  C_23
REMARK   10  A    between atoms: N_19  and  C_20
REMARK   11  A    between atoms: C_33  and  C_35
REMARK                            x       y       z     vdW  Elec       q    Type
REMARK                         _______ _______ _______ _____ _____    ______ ____
ROOT
ATOM      1  C   UNL     1      -0.720  -2.114   6.201  0.00  0.00    +0.237 C 
ATOM      2  N   UNL     1       0.638  -2.647   6.401  0.00  0.00    -0.237 N 
ATOM      3  N   UNL     1       0.602  -3.988   6.001  0.00  0.00    -0.169 NA
ATOM      4  C   UNL     1      -0.590  -4.329   5.589  0.00  0.00    +0.147 C 
ATOM      5  N   UNL     1      -1.485  -3.255   5.670  0.00  0.00    -0.282 N 
ATOM      6  H   UNL     1       1.406  -2.163   6.743  0.00  0.00    +0.171 HD
ENDROOT
BRANCH   4   7
ATOM      7  C   UNL     1      -0.932  -5.609   5.126  0.00  0.00    +0.022 C 
ATOM      8  C   UNL     1      -0.122  -6.745   5.113  0.00  0.00    +0.006 A 
ATOM      9  C   UNL     1       1.208  -6.972   5.529  0.00  0.00    +0.010 A 
ATOM     10  C   UNL     1       1.753  -8.209   5.395  0.00  0.00    +0.001 A 
ATOM     11  C   UNL     1       1.028  -9.272   4.852  0.00  0.00    +0.002 A 
ATOM     12  C   UNL     1      -0.252  -9.125   4.432  0.00  0.00    +0.026 A 
ATOM     13  C   UNL     1      -0.889  -7.862   4.540  0.00  0.00    +0.043 A 
ATOM     14  N   UNL     1      -2.104  -7.467   4.211  0.00  0.00    -0.380 N 
ATOM     15  C   UNL     1      -2.257  -6.047   4.542  0.00  0.00    +0.152 C 
ATOM     16  H   UNL     1      -2.789  -8.028   3.816  0.00  0.00    +0.160 HD
ENDBRANCH   4   7
BRANCH   5  17
ATOM     17  C   UNL     1      -2.902  -3.261   5.299  0.00  0.00    +0.078 C 
ATOM     18  C   UNL     1      -3.669  -1.942   5.413  0.00  0.00    +0.024 C 
ATOM     19  C   UNL     1      -3.927  -3.067   6.419  0.00  0.00    +0.024 C 
ENDBRANCH   5  17
BRANCH   1  20
ATOM     20  S   UNL     1      -0.697  -0.752   5.003  0.00  0.00    -0.107 S 
BRANCH  20  21
ATOM     21  C   UNL     1       0.047  -1.485   3.520  0.00  0.00    +0.119 C 
ATOM     22  C   UNL     1       1.497  -1.873   3.816  0.00  0.00    +0.027 C 
BRANCH  21  23
ATOM     23  C   UNL     1       0.015  -0.484   2.394  0.00  0.00    +0.192 C 
ATOM     24  O   UNL     1      -0.022   0.705   2.640  0.00  0.00    -0.289 OA
BRANCH  23  31
ATOM     25  C   UNL     1      -0.048   1.382  -0.090  0.00  0.00    +0.047 C 
ATOM     26  C   UNL     1       0.000  -0.124  -0.068  0.00  0.00    -0.012 A 
ATOM     27  C   UNL     1       0.033  -0.984  -1.190  0.00  0.00    +0.041 A 
ATOM     28  C   UNL     1       0.072  -2.284  -0.707  0.00  0.00    +0.024 A 
ATOM     29  N   UNL     1       0.065  -2.244   0.632  0.00  0.00    -0.355 N 
ATOM     30  H   UNL     1       0.086  -3.018   1.217  0.00  0.00    +0.166 HD
ATOM     31  C   UNL     1       0.027  -0.928   1.050  0.00  0.00    +0.087 A 
ATOM     32  C   UNL     1       0.116  -3.533  -1.549  0.00  0.00    +0.064 C 
BRANCH  27  33
ATOM     33  C   UNL     1       0.026  -0.577  -2.599  0.00  0.00    +0.162 C 
ATOM     34  O   UNL     1      -1.020  -0.530  -3.211  0.00  0.00    -0.292 OA
ATOM     35  C   UNL     1       1.318  -0.218  -3.286  0.00  0.00    +0.091 C 
ENDBRANCH  27  33
ENDBRANCH  23  31
ENDBRANCH  21  23
ENDBRANCH  20  21
ENDBRANCH   1  20
TORSDOF 7
