REMARK  Name = ZINC22021508
REMARK  11 active torsions:
REMARK  status: ('A' for Active; 'I' for Inactive)
REMARK    1  A    between atoms: C_1  and  C_2
REMARK    2  A    between atoms: C_2  and  O_3
REMARK    3  A    between atoms: O_3  and  C_4
REMARK    4  A    between atoms: C_7  and  N_18
REMARK    5  A    between atoms: C_9  and  S_10
REMARK    6  A    between atoms: S_10  and  N_13
REMARK    7  A    between atoms: N_18  and  S_19
REMARK    8  A    between atoms: S_19  and  C_22
REMARK    9  A    between atoms: C_26  and  C_27
REMARK   10  A    between atoms: C_27  and  O_29
REMARK   11  A    between atoms: O_29  and  C_30
REMARK                            x       y       z     vdW  Elec       q    Type
REMARK                         _______ _______ _______ _____ _____    ______ ____
ROOT
ATOM      1  C   UNL     1      -3.385  -0.617   2.367  0.00  0.00    +0.147 A 
ATOM      2  C   UNL     1      -3.297  -0.347   1.009  0.00  0.00    +0.049 A 
ATOM      3  C   UNL     1      -2.233   0.381   0.516  0.00  0.00    +0.030 A 
ATOM      4  C   UNL     1      -1.244   0.835   1.379  0.00  0.00    +0.076 A 
ATOM      5  C   UNL     1      -1.332   0.565   2.738  0.00  0.00    +0.059 A 
ATOM      6  C   UNL     1      -2.400  -0.159   3.230  0.00  0.00    +0.149 A 
ENDROOT
BRANCH   6   7
ATOM      7  S   UNL     1      -2.513  -0.502   4.955  0.00  0.00    +0.064 S 
ATOM      8  O   UNL     1      -2.780  -1.892   5.076  0.00  0.00    -0.153 OA
ATOM      9  O   UNL     1      -1.386   0.113   5.565  0.00  0.00    -0.153 OA
BRANCH   7  10
ATOM     10  N   UNL     1      -3.851   0.289   5.525  0.00  0.00    -0.176 NA
ATOM     11  C   UNL     1      -3.874   1.658   6.061  0.00  0.00    +0.109 C 
ATOM     12  C   UNL     1      -5.325   1.958   6.490  0.00  0.00    +0.018 C 
ATOM     13  C   UNL     1      -5.922   0.541   6.704  0.00  0.00    +0.018 C 
ATOM     14  C   UNL     1      -5.216  -0.265   5.586  0.00  0.00    +0.109 C 
ENDBRANCH   7  10
ENDBRANCH   6   7
BRANCH   1  15
ATOM     15  O   UNL     1      -4.436  -1.330   2.852  0.00  0.00    -0.490 OA
BRANCH  15  17
ATOM     16  C   UNL     1      -6.515  -2.542   2.627  0.00  0.00    +0.048 C 
ATOM     17  C   UNL     1      -5.353  -1.865   1.896  0.00  0.00    +0.226 C 
ENDBRANCH  15  17
ENDBRANCH   1  15
BRANCH   4  18
ATOM     18  N   UNL     1      -0.161   1.568   0.880  0.00  0.00    -0.098 NA
BRANCH  18  19
ATOM     19  S   UNL     1       0.631   1.053  -0.480  0.00  0.00    +0.093 S 
ATOM     20  O   UNL     1       1.730   1.934  -0.668  0.00  0.00    -0.148 OA
ATOM     21  O   UNL     1      -0.361   0.850  -1.476  0.00  0.00    -0.148 OA
BRANCH  19  22
ATOM     22  C   UNL     1       1.312  -0.531  -0.117  0.00  0.00    +0.131 A 
ATOM     23  C   UNL     1       0.899  -1.657  -0.783  0.00  0.00    +0.037 A 
ATOM     24  C   UNL     1       1.455  -2.857  -0.467  0.00  0.00    +0.048 A 
ATOM     25  S   UNL     1       2.585  -2.452   0.783  0.00  0.00    -0.088 S 
ATOM     26  C   UNL     1       2.293  -0.694   0.850  0.00  0.00    +0.123 A 
BRANCH  26  27
ATOM     27  C   UNL     1       2.923   0.315   1.704  0.00  0.00    +0.348 C 
ATOM     28  O   UNL     1       2.526   1.464   1.682  0.00  0.00    -0.244 OA
BRANCH  27  29
ATOM     29  O   UNL     1       3.943  -0.031   2.515  0.00  0.00    -0.464 OA
ATOM     30  C   UNL     1       4.595   1.040   3.248  0.00  0.00    +0.280 C 
ENDBRANCH  27  29
ENDBRANCH  26  27
ENDBRANCH  19  22
ENDBRANCH  18  19
ENDBRANCH   4  18
TORSDOF 9
