REMARK  Name = ZINC35415967
REMARK  14 active torsions:
REMARK  status: ('A' for Active; 'I' for Inactive)
REMARK    1  A    between atoms: C_1  and  C_2
REMARK    2  A    between atoms: C_2  and  C_3
REMARK    3  A    between atoms: C_2  and  C_4
REMARK    4  A    between atoms: C_2  and  C_5
REMARK    5  A    between atoms: C_8  and  C_11
REMARK    6  A    between atoms: C_11  and  N_12
REMARK    7  A    between atoms: N_12  and  C_13
REMARK    8  A    between atoms: N_12  and  C_25
REMARK    9  A    between atoms: C_13  and  C_14
REMARK   10  A    between atoms: C_14  and  C_15
REMARK   11  A    between atoms: C_25  and  C_26
REMARK   12  A    between atoms: C_28  and  C_31
REMARK   13  A    between atoms: N_33  and  C_34
REMARK   14  A    between atoms: C_34  and  C_35
REMARK                            x       y       z     vdW  Elec       q    Type
REMARK                         _______ _______ _______ _____ _____    ______ ____
ROOT
ATOM      1  N   UNL     1       2.465  -0.921  -5.720  0.00  0.00    +0.387 N 
ATOM      2  H   UNL     1       2.857  -0.012  -5.521  0.00  0.00    -0.081 HD
ENDROOT
BRANCH   1   3
ATOM      3  C   UNL     1       2.680  -1.809  -4.570  0.00  0.00    -0.042 C 
BRANCH   3   7
ATOM      4  C   UNL     1       6.836  -1.892  -3.588  0.00  0.00    -0.042 A 
ATOM      5  C   UNL     1       6.030  -0.882  -3.098  0.00  0.00    +0.004 A 
ATOM      6  C   UNL     1       4.685  -0.855  -3.416  0.00  0.00    +0.002 A 
ATOM      7  C   UNL     1       4.146  -1.838  -4.224  0.00  0.00    -0.064 A 
ATOM      8  C   UNL     1       4.953  -2.848  -4.715  0.00  0.00    +0.002 A 
ATOM      9  C   UNL     1       6.298  -2.872  -4.401  0.00  0.00    +0.004 A 
BRANCH   4  11
ATOM     10  C   UNL     1       9.132  -1.834  -4.524  0.00  0.00    +0.015 C 
ATOM     11  C   UNL     1       8.303  -1.921  -3.242  0.00  0.00    -0.013 C 
ATOM     12  C   UNL     1       8.628  -3.226  -2.512  0.00  0.00    +0.015 C 
ATOM     13  C   UNL     1       8.636  -0.734  -2.336  0.00  0.00    +0.015 C 
ENDBRANCH   4  11
ENDBRANCH   3   7
ENDBRANCH   1   3
BRANCH   1  14
ATOM     14  C   UNL     1       1.024  -0.787  -5.974  0.00  0.00    -0.073 C 
BRANCH  14  15
ATOM     15  C   UNL     1       0.363  -0.071  -4.795  0.00  0.00    +0.019 C 
BRANCH  15  16
ATOM     16  C   UNL     1      -1.089   0.182  -5.111  0.00  0.00    -0.024 A 
ATOM     17  C   UNL     1      -1.608   1.304  -5.635  0.00  0.00    +0.087 A 
ATOM     18  N   UNL     1      -2.962   1.167  -5.782  0.00  0.00    -0.360 N 
ATOM     19  H   UNL     1      -3.555   1.845  -6.140  0.00  0.00    +0.165 HD
ATOM     20  C   UNL     1      -3.356  -0.078  -5.344  0.00  0.00    +0.047 A 
ATOM     21  C   UNL     1      -2.200  -0.752  -4.911  0.00  0.00    +0.003 A 
ATOM     22  C   UNL     1      -2.296  -2.053  -4.415  0.00  0.00    +0.010 A 
ATOM     23  C   UNL     1      -3.515  -2.668  -4.356  0.00  0.00    +0.001 A 
ATOM     24  C   UNL     1      -4.658  -2.009  -4.786  0.00  0.00    +0.002 A 
ATOM     25  C   UNL     1      -4.587  -0.721  -5.270  0.00  0.00    +0.026 A 
ENDBRANCH  15  16
ENDBRANCH  14  15
ENDBRANCH   1  14
BRANCH   1  26
ATOM     26  C   UNL     1       3.121  -1.488  -6.906  0.00  0.00    -0.014 C 
BRANCH  26  27
ATOM     27  C   UNL     1       3.006  -0.519  -8.055  0.00  0.00    +0.063 A 
ATOM     28  N   UNL     1       3.834   0.433  -8.391  0.00  0.00    -0.241 NA
ATOM     29  C   UNL     1       3.538   1.184  -9.456  0.00  0.00    +0.133 A 
ATOM     30  C   UNL     1       2.373   0.876 -10.105  0.00  0.00    +0.079 A 
ATOM     31  S   UNL     1       1.788  -0.416  -9.205  0.00  0.00    -0.082 S 
BRANCH  29  32
ATOM     32  C   UNL     1       4.415   2.279  -9.905  0.00  0.00    +0.263 C 
ATOM     33  O   UNL     1       4.111   2.940 -10.880  0.00  0.00    -0.269 OA
ATOM     34  N   UNL     1       5.553   2.548  -9.237  0.00  0.00    -0.303 N 
ATOM     35  H   UNL     1       5.796   2.021  -8.459  0.00  0.00    +0.150 HD
BRANCH  34  36
ATOM     36  C   UNL     1       6.425   3.638  -9.683  0.00  0.00    +0.179 C 
BRANCH  36  37
ATOM     37  C   UNL     1       7.622   3.729  -8.772  0.00  0.00    +0.122 A 
ATOM     38  C   UNL     1       8.790   3.084  -8.941  0.00  0.00    +0.046 A 
ATOM     39  C   UNL     1       9.624   3.457  -7.861  0.00  0.00    +0.041 A 
ATOM     40  C   UNL     1       8.915   4.307  -7.097  0.00  0.00    +0.195 A 
ATOM     41  O   UNL     1       7.705   4.473  -7.657  0.00  0.00    -0.466 OA
ENDBRANCH  36  37
ENDBRANCH  34  36
ENDBRANCH  29  32
ENDBRANCH  26  27
ENDBRANCH   1  26
TORSDOF 11
