REMARK  Name = ZINC03234778
REMARK  6 active torsions:
REMARK  status: ('A' for Active; 'I' for Inactive)
REMARK    1  A    between atoms: C_1  and  C_2
REMARK    2  A    between atoms: C_7  and  N_9
REMARK    3  A    between atoms: N_9  and  N_10
REMARK    4  A    between atoms: C_11  and  C_13
REMARK    5  A    between atoms: C_13  and  O_14
REMARK    6  A    between atoms: O_14  and  C_15
REMARK                            x       y       z     vdW  Elec       q    Type
REMARK                         _______ _______ _______ _____ _____    ______ ____
ROOT
ATOM      1  N   UNL     1       3.783   3.296  -0.198  0.00  0.00    -0.234 N 
ATOM      2  C   UNL     1       4.996   3.867  -0.334  0.00  0.00    +0.267 C 
ATOM      3  O   UNL     1       5.996   3.239  -0.056  0.00  0.00    -0.271 OA
ATOM      4  H   UNL     1       2.983   3.798  -0.420  0.00  0.00    +0.173 HD
ENDROOT
BRANCH   1   5
ATOM      5  N   UNL     1       3.676   1.978   0.264  0.00  0.00    -0.269 N 
ATOM      6  H   UNL     1       4.469   1.501   0.555  0.00  0.00    +0.170 HD
BRANCH   5  12
ATOM      7  C   UNL     1      -0.766   2.036  -1.220  0.00  0.00    +0.012 C 
ATOM      8  C   UNL     1      -0.019   1.527   0.014  0.00  0.00    +0.010 C 
ATOM      9  C   UNL     1       0.002  -0.003  -0.002  0.00  0.00    +0.008 C 
ATOM     10  C   UNL     1       0.964  -0.487   1.091  0.00  0.00    +0.006 C 
ATOM     11  C   UNL     1       2.388  -0.096   0.691  0.00  0.00    +0.052 C 
ATOM     12  C   UNL     1       2.436   1.354   0.304  0.00  0.00    +0.018 C 
ATOM     13  C   UNL     1       1.383   2.063   0.004  0.00  0.00    -0.004 C 
ENDBRANCH   5  12
ENDBRANCH   1   5
BRANCH   2  14
ATOM     14  C   UNL     1       5.110   5.285  -0.831  0.00  0.00    +0.326 C 
BRANCH  14  15
ATOM     15  O   UNL     1       6.488   5.660  -0.888  0.00  0.00    -0.481 OA
BRANCH  15  16
ATOM     16  C   UNL     1       6.767   6.919  -1.319  0.00  0.00    +0.139 A 
ATOM     17  C   UNL     1       5.737   7.772  -1.685  0.00  0.00    +0.047 A 
ATOM     18  C   UNL     1       6.023   9.053  -2.118  0.00  0.00    +0.004 A 
ATOM     19  C   UNL     1       7.336   9.480  -2.197  0.00  0.00    +0.002 A 
ATOM     20  C   UNL     1       8.365   8.630  -1.839  0.00  0.00    +0.023 A 
ATOM     21  C   UNL     1       8.084   7.350  -1.400  0.00  0.00    +0.083 A 
ATOM     22 CL   UNL     1       9.377   6.282  -0.950  0.00  0.00    -0.080 Cl
ENDBRANCH  15  16
ENDBRANCH  14  15
ENDBRANCH   2  14
TORSDOF 5
