REMARK  Name = ZINC64940366
REMARK  6 active torsions:
REMARK  status: ('A' for Active; 'I' for Inactive)
REMARK    1  A    between atoms: C_4  and  S_11
REMARK    2  A    between atoms: C_5  and  C_7
REMARK    3  A    between atoms: S_11  and  N_14
REMARK    4  A    between atoms: N_14  and  N_15
REMARK    5  A    between atoms: N_18  and  C_19
REMARK    6  A    between atoms: C_19  and  C_20
REMARK                            x       y       z     vdW  Elec       q    Type
REMARK                         _______ _______ _______ _____ _____    ______ ____
ROOT
ATOM      1  S   UNL     1       3.733  -0.471   0.003  0.00  0.00    +0.074 S 
ATOM      2  O   UNL     1       3.665  -1.409  -1.062  0.00  0.00    -0.152 OA
ATOM      3  O   UNL     1       4.737   0.532   0.072  0.00  0.00    -0.152 OA
ENDROOT
BRANCH   1   7
ATOM      4  C   UNL     1      -0.250   1.679   0.087  0.00  0.00    +0.001 A 
ATOM      5  C   UNL     1      -0.009   0.706  -0.866  0.00  0.00    +0.002 A 
ATOM      6  C   UNL     1       1.207   0.050  -0.892  0.00  0.00    +0.029 A 
ATOM      7  C   UNL     1       2.183   0.367   0.035  0.00  0.00    +0.118 A 
ATOM      8  C   UNL     1       1.942   1.339   0.987  0.00  0.00    +0.081 A 
ATOM      9  C   UNL     1       0.725   1.995   1.014  0.00  0.00    +0.014 A 
BRANCH   8  10
ATOM     10  C   UNL     1       3.006   1.684   1.998  0.00  0.00    +0.419 C 
ATOM     11  F   UNL     1       2.489   2.594   2.926  0.00  0.00    -0.166 F 
ATOM     12  F   UNL     1       3.412   0.521   2.661  0.00  0.00    -0.166 F 
ATOM     13  F   UNL     1       4.102   2.256   1.345  0.00  0.00    -0.166 F 
ENDBRANCH   8  10
ENDBRANCH   1   7
BRANCH   1  14
ATOM     14  N   UNL     1       3.844  -1.349   1.403  0.00  0.00    -0.107 NA
ATOM     15  H   UNL     1       4.574  -1.188   2.020  0.00  0.00    +0.172 HD
BRANCH  14  16
ATOM     16  N   UNL     1       2.882  -2.325   1.695  0.00  0.00    -0.216 N 
ATOM     17  C   UNL     1       3.265  -3.592   1.953  0.00  0.00    +0.315 C 
ATOM     18  O   UNL     1       2.431  -4.439   2.206  0.00  0.00    -0.251 OA
ATOM     19  N   UNL     1       4.572  -3.919   1.929  0.00  0.00    -0.298 N 
ATOM     20  H   UNL     1       1.942  -2.090   1.711  0.00  0.00    +0.172 HD
ATOM     21  H   UNL     1       5.238  -3.243   1.727  0.00  0.00    +0.150 HD
BRANCH  19  22
ATOM     22  C   UNL     1       4.988  -5.295   2.210  0.00  0.00    +0.109 C 
BRANCH  22  23
ATOM     23  C   UNL     1       6.512  -5.396   2.119  0.00  0.00    +0.006 C 
ATOM     24  C   UNL     1       7.097  -6.297   1.030  0.00  0.00    +0.005 C 
ATOM     25  C   UNL     1       7.155  -6.732   2.495  0.00  0.00    +0.005 C 
ENDBRANCH  22  23
ENDBRANCH  19  22
ENDBRANCH  14  16
ENDBRANCH   1  14
TORSDOF 6
