REMARK  Name = ZINC59122590
REMARK  8 active torsions:
REMARK  status: ('A' for Active; 'I' for Inactive)
REMARK    1  A    between atoms: C_1  and  C_2
REMARK    2  A    between atoms: C_7  and  N_8
REMARK    3  A    between atoms: C_12  and  S_13
REMARK    4  A    between atoms: S_13  and  C_14
REMARK    5  A    between atoms: C_14  and  C_15
REMARK    6  A    between atoms: C_15  and  O_16
REMARK    7  A    between atoms: O_16  and  C_17
REMARK    8  A    between atoms: C_23  and  C_25
REMARK                            x       y       z     vdW  Elec       q    Type
REMARK                         _______ _______ _______ _____ _____    ______ ____
ROOT
ATOM      1  N   UNL     1       0.025  -0.013   2.419  0.00  0.00    -0.277 N 
ATOM      2  C   UNL     1       1.026   0.013   3.355  0.00  0.00    +0.230 A 
ATOM      3  N   UNL     1       0.622   0.774   4.333  0.00  0.00    -0.137 NA
ATOM      4  N   UNL     1      -0.555   1.228   4.084  0.00  0.00    -0.122 NA
ATOM      5  C   UNL     1      -0.969   0.783   2.920  0.00  0.00    +0.196 A 
ENDROOT
BRANCH   1  12
ATOM      6  C   UNL     1      -0.018   1.503   0.010  0.00  0.00    +0.046 C 
ATOM      7  C   UNL     1       0.002  -0.004   0.002  0.00  0.00    -0.027 A 
ATOM      8  C   UNL     1       0.006  -0.689  -1.198  0.00  0.00    +0.005 A 
ATOM      9  C   UNL     1       0.024  -2.071  -1.206  0.00  0.00    +0.000 A 
ATOM     10  C   UNL     1       0.039  -2.773  -0.014  0.00  0.00    +0.002 A 
ATOM     11  C   UNL     1       0.035  -2.093   1.188  0.00  0.00    +0.026 A 
ATOM     12  C   UNL     1       0.023  -0.705   1.200  0.00  0.00    +0.053 A 
ENDBRANCH   1  12
BRANCH   5  13
ATOM     13  S   UNL     1      -2.513   1.140   2.151  0.00  0.00    -0.083 S 
BRANCH  13  14
ATOM     14  C   UNL     1      -3.347   2.238   3.329  0.00  0.00    +0.105 C 
BRANCH  14  15
ATOM     15  C   UNL     1      -4.720   2.630   2.778  0.00  0.00    +0.171 C 
BRANCH  15  16
ATOM     16  O   UNL     1      -5.377   3.495   3.707  0.00  0.00    -0.375 OA
BRANCH  16  17
ATOM     17  C   UNL     1      -6.673   3.922   3.285  0.00  0.00    +0.121 C 
ATOM     18  C   UNL     1      -6.548   5.220   2.485  0.00  0.00    +0.032 C 
ATOM     19  C   UNL     1      -5.915   6.301   3.362  0.00  0.00    +0.003 C 
ATOM     20  C   UNL     1      -6.796   6.543   4.589  0.00  0.00    +0.000 C 
ATOM     21  C   UNL     1      -6.921   5.245   5.390  0.00  0.00    +0.006 C 
ATOM     22  C   UNL     1      -7.554   4.164   4.513  0.00  0.00    +0.015 C 
ATOM     23  C   UNL     1      -7.680   2.866   5.314  0.00  0.00    +0.010 C 
ENDBRANCH  16  17
ENDBRANCH  15  16
ENDBRANCH  14  15
ENDBRANCH  13  14
ENDBRANCH   5  13
TORSDOF 6
