REMARK  Name = ZINC22259209
REMARK  7 active torsions:
REMARK  status: ('A' for Active; 'I' for Inactive)
REMARK    1  A    between atoms: C_1  and  C_2
REMARK    2  A    between atoms: C_6  and  C_19
REMARK    3  A    between atoms: N_8  and  C_9
REMARK    4  A    between atoms: C_14  and  C_15
REMARK    5  A    between atoms: N_21  and  N_22
REMARK    6  A    between atoms: C_23  and  C_25
REMARK    7  A    between atoms: C_30  and  O_31
REMARK                            x       y       z     vdW  Elec       q    Type
REMARK                         _______ _______ _______ _____ _____    ______ ____
ROOT
ATOM      1  C   UNL     1       1.431   2.250  10.520  0.00  0.00    +0.066 C 
ATOM      2  C   UNL     1       0.731   1.411   9.482  0.00  0.00    +0.044 A 
ATOM      3  C   UNL     1       0.937   0.073   9.453  0.00  0.00    +0.076 A 
ATOM      4  C   UNL     1       0.254  -0.681   8.464  0.00  0.00    +0.213 A 
ATOM      5  O   UNL     1       0.388  -1.892   8.382  0.00  0.00    -0.285 OA
ATOM      6  C   UNL     1      -0.619   0.058   7.539  0.00  0.00    +0.194 A 
ATOM      7  N   UNL     1      -0.730   1.362   7.679  0.00  0.00    -0.158 NA
ATOM      8  N   UNL     1      -0.099   2.006   8.590  0.00  0.00    -0.236 N 
ENDROOT
BRANCH   8   9
ATOM      9  C   UNL     1      -0.274   3.392   8.667  0.00  0.00    +0.077 A 
ATOM     10  C   UNL     1      -1.186   3.929   9.566  0.00  0.00    +0.028 A 
ATOM     11  C   UNL     1      -1.352   5.298   9.644  0.00  0.00    +0.002 A 
ATOM     12  C   UNL     1      -0.621   6.133   8.819  0.00  0.00    +0.001 A 
ATOM     13  C   UNL     1       0.284   5.601   7.919  0.00  0.00    +0.014 A 
ATOM     14  C   UNL     1       0.459   4.233   7.840  0.00  0.00    +0.080 A 
BRANCH  14  15
ATOM     15  C   UNL     1       1.446   3.654   6.859  0.00  0.00    +0.419 C 
ATOM     16  F   UNL     1       2.057   4.691   6.145  0.00  0.00    -0.166 F 
ATOM     17  F   UNL     1       2.421   2.928   7.551  0.00  0.00    -0.166 F 
ATOM     18  F   UNL     1       0.776   2.807   5.970  0.00  0.00    -0.166 F 
ENDBRANCH  14  15
ENDBRANCH   8   9
BRANCH   6  19
ATOM     19  C   UNL     1      -1.362  -0.651   6.478  0.00  0.00    +0.284 C 
ATOM     20  O   UNL     1      -1.251  -1.855   6.359  0.00  0.00    -0.267 OA
ATOM     21  N   UNL     1      -2.163   0.038   5.640  0.00  0.00    -0.229 N 
ATOM     22  H   UNL     1      -2.263   1.128   5.748  0.00  0.00    +0.173 HD
BRANCH  21  23
ATOM     23  N   UNL     1      -2.867  -0.634   4.633  0.00  0.00    -0.230 N 
ATOM     24  C   UNL     1      -3.668   0.055   3.796  0.00  0.00    +0.264 C 
ATOM     25  O   UNL     1      -3.779   1.260   3.915  0.00  0.00    -0.269 OA
ATOM     26  H   UNL     1      -2.767  -1.724   4.526  0.00  0.00    +0.173 HD
BRANCH  24  27
ATOM     27  C   UNL     1      -4.410  -0.653   2.735  0.00  0.00    +0.079 A 
ATOM     28  C   UNL     1      -4.285  -2.038   2.595  0.00  0.00    +0.017 A 
ATOM     29  C   UNL     1      -4.980  -2.693   1.602  0.00  0.00    +0.001 A 
ATOM     30  C   UNL     1      -5.803  -1.985   0.741  0.00  0.00    +0.004 A 
ATOM     31  C   UNL     1      -5.940  -0.618   0.872  0.00  0.00    +0.046 A 
ATOM     32  C   UNL     1      -5.243   0.059   1.863  0.00  0.00    +0.129 A 
BRANCH  32  33
ATOM     33  O   UNL     1      -5.372   1.403   1.989  0.00  0.00    -0.506 OA
ATOM     34  H   UNL     1      -6.027   1.960   1.303  0.00  0.00    +0.292 HD
ENDBRANCH  32  33
ENDBRANCH  24  27
ENDBRANCH  21  23
ENDBRANCH   6  19
TORSDOF 6
