REMARK  Name = ZINC27220661
REMARK  7 active torsions:
REMARK  status: ('A' for Active; 'I' for Inactive)
REMARK    1  A    between atoms: C_1  and  C_2
REMARK    2  A    between atoms: C_2  and  C_24
REMARK    3  A    between atoms: C_3  and  C_4
REMARK    4  A    between atoms: C_6  and  C_11
REMARK    5  A    between atoms: C_8  and  C_9
REMARK    6  A    between atoms: C_8  and  C_10
REMARK    7  A    between atoms: N_13  and  C_14
REMARK                            x       y       z     vdW  Elec       q    Type
REMARK                         _______ _______ _______ _____ _____    ______ ____
ROOT
ATOM      1  C   UNL     1      -0.425   2.237   1.348  0.00  0.00    +0.221 C 
ATOM      2  O   UNL     1       0.265   2.088   2.334  0.00  0.00    -0.275 OA
ATOM      3  N   UNL     1      -1.538   2.995   1.412  0.00  0.00    -0.284 N 
ATOM      4  H   UNL     1      -2.212   3.056   0.545  0.00  0.00    +0.155 HD
ENDROOT
BRANCH   3   5
ATOM      5  C   UNL     1      -1.835   3.705   2.583  0.00  0.00    +0.056 A 
ATOM      6  C   UNL     1      -0.816   4.064   3.455  0.00  0.00    +0.074 A 
ATOM      7  C   UNL     1      -1.110   4.771   4.609  0.00  0.00    +0.168 A 
ATOM      8  C   UNL     1      -2.429   5.111   4.899  0.00  0.00    +0.168 A 
ATOM      9  C   UNL     1      -3.444   4.747   4.029  0.00  0.00    +0.071 A 
ATOM     10  C   UNL     1      -3.150   4.046   2.874  0.00  0.00    +0.066 A 
ATOM     11 CL   UNL     1      -4.424   3.591   1.787  0.00  0.00    -0.082 Cl
ATOM     12  O   UNL     1      -2.454   5.792   6.083  0.00  0.00    -0.453 OA
ATOM     13  C   UNL     1      -1.098   6.221   6.308  0.00  0.00    +0.466 C 
ATOM     14  O   UNL     1      -0.309   5.239   5.611  0.00  0.00    -0.453 OA
ENDBRANCH   3   5
BRANCH   1  16
ATOM     15  C   UNL     1      -0.023   0.044   0.018  0.00  0.00    +0.030 C 
ATOM     16  C   UNL     1      -0.039   1.573   0.051  0.00  0.00    +0.089 C 
ATOM     17  C   UNL     1       1.294   0.823   0.011  0.00  0.00    -0.016 C 
ATOM     18  C   UNL     1       2.086   0.860  -1.298  0.00  0.00    +0.012 C 
ATOM     19  C   UNL     1       2.133   0.804   1.290  0.00  0.00    +0.012 C 
BRANCH  15  22
ATOM     20  C   UNL     1      -0.381  -2.750  -0.016  0.00  0.00    +0.038 C 
ATOM     21  C   UNL     1      -0.560  -1.983   1.268  0.00  0.00    -0.079 C 
ATOM     22  C   UNL     1      -0.394  -0.684   1.284  0.00  0.00    -0.023 C 
ATOM     23  C   UNL     1      -0.931  -2.711   2.535  0.00  0.00    +0.038 C 
ENDBRANCH  15  22
ENDBRANCH   1  16
TORSDOF 3
