REMARK  Name = ZINC22107823
REMARK  8 active torsions:
REMARK  status: ('A' for Active; 'I' for Inactive)
REMARK    1  A    between atoms: C_1  and  C_2
REMARK    2  A    between atoms: C_2  and  C_4
REMARK    3  A    between atoms: C_2  and  O_23
REMARK    4  A    between atoms: N_6  and  C_7
REMARK    5  A    between atoms: O_23  and  C_24
REMARK    6  A    between atoms: C_24  and  C_26
REMARK    7  A    between atoms: N_31  and  C_32
REMARK    8  A    between atoms: C_32  and  C_33
REMARK                            x       y       z     vdW  Elec       q    Type
REMARK                         _______ _______ _______ _____ _____    ______ ____
ROOT
ATOM      1  C   UNL     1       0.708  -0.490  -1.238  0.00  0.00    +0.258 C 
ATOM      2  O   UNL     1       0.097  -1.121  -2.075  0.00  0.00    -0.271 OA
ATOM      3  N   UNL     1       2.018  -0.231  -1.413  0.00  0.00    -0.282 N 
ATOM      4  H   UNL     1       2.491   0.330  -0.777  0.00  0.00    +0.155 HD
ENDROOT
BRANCH   3   5
ATOM      5  C   UNL     1       2.694  -0.767  -2.504  0.00  0.00    +0.045 A 
ATOM      6  C   UNL     1       2.042  -0.917  -3.728  0.00  0.00    +0.024 A 
ATOM      7  C   UNL     1       2.708  -1.448  -4.812  0.00  0.00    +0.003 A 
ATOM      8  C   UNL     1       4.034  -1.841  -4.703  0.00  0.00    +0.012 A 
ATOM      9  C   UNL     1       4.703  -1.700  -3.494  0.00  0.00    +0.035 A 
ATOM     10  C   UNL     1       4.032  -1.153  -2.383  0.00  0.00    +0.054 A 
ATOM     11  C   UNL     1       4.745  -0.997  -1.101  0.00  0.00    +0.196 C 
ATOM     12  O   UNL     1       4.129  -0.772  -0.078  0.00  0.00    -0.287 OA
ATOM     13  C   UNL     1       6.220  -1.119  -1.075  0.00  0.00    +0.033 A 
ATOM     14  C   UNL     1       6.945  -0.703   0.036  0.00  0.00    +0.012 A 
ATOM     15  C   UNL     1       8.324  -0.825   0.043  0.00  0.00    +0.001 A 
ATOM     16  C   UNL     1       8.986  -1.358  -1.048  0.00  0.00    +0.001 A 
ATOM     17  C   UNL     1       8.280  -1.778  -2.162  0.00  0.00    +0.012 A 
ATOM     18  C   UNL     1       6.894  -1.662  -2.185  0.00  0.00    +0.033 A 
ATOM     19  C   UNL     1       6.117  -2.114  -3.364  0.00  0.00    +0.195 C 
ATOM     20  O   UNL     1       6.638  -2.803  -4.218  0.00  0.00    -0.287 OA
ENDBRANCH   3   5
BRANCH   1  22
ATOM     21  C   UNL     1      -0.022   1.533  -0.004  0.00  0.00    +0.062 C 
ATOM     22  C   UNL     1       0.000   0.003  -0.002  0.00  0.00    +0.259 C 
BRANCH  22  23
ATOM     23  O   UNL     1      -1.340  -0.493   0.010  0.00  0.00    -0.448 OA
BRANCH  23  24
ATOM     24  C   UNL     1      -1.904  -0.704   1.216  0.00  0.00    +0.359 C 
ATOM     25  O   UNL     1      -1.274  -0.473   2.231  0.00  0.00    -0.243 OA
BRANCH  24  26
ATOM     26  C   UNL     1      -3.280  -1.214   1.306  0.00  0.00    +0.157 A 
ATOM     27  C   UNL     1      -3.866  -1.427   2.529  0.00  0.00    +0.083 A 
ATOM     28  S   UNL     1      -5.475  -2.025   2.028  0.00  0.00    -0.060 S 
ATOM     29  C   UNL     1      -5.213  -1.933   0.262  0.00  0.00    +0.159 A 
ATOM     30  N   UNL     1      -3.981  -1.470   0.198  0.00  0.00    -0.218 NA
ATOM     31  N   UNL     1      -6.079  -2.257  -0.768  0.00  0.00    -0.320 N 
ATOM     32  H   UNL     1      -5.796  -2.155  -1.690  0.00  0.00    +0.148 HD
BRANCH  31  33
ATOM     33  C   UNL     1      -7.423  -2.755  -0.465  0.00  0.00    +0.130 C 
BRANCH  33  34
ATOM     34  C   UNL     1      -8.158  -3.031  -1.751  0.00  0.00    -0.016 C 
ATOM     35  C   UNL     1      -8.675  -4.215  -1.969  0.00  0.00    +0.005 C 
ENDBRANCH  33  34
ENDBRANCH  31  33
ENDBRANCH  24  26
ENDBRANCH  23  24
ENDBRANCH  22  23
ENDBRANCH   1  22
TORSDOF 7
