REMARK  Name = ZINC10907694
REMARK  11 active torsions:
REMARK  status: ('A' for Active; 'I' for Inactive)
REMARK    1  A    between atoms: C_1  and  C_2
REMARK    2  A    between atoms: C_5  and  C_7
REMARK    3  A    between atoms: C_7  and  N_58
REMARK    4  A    between atoms: C_8  and  C_9
REMARK    5  A    between atoms: C_8  and  N_58
REMARK    6  A    between atoms: C_9  and  C_10
REMARK    7  A    between atoms: C_16  and  C_17
REMARK    8  A    between atoms: C_16  and  N_58
REMARK    9  A    between atoms: N_19  and  C_20
REMARK   10  A    between atoms: C_23  and  C_29
REMARK   11  A    between atoms: C_30  and  C_32
REMARK                            x       y       z     vdW  Elec       q    Type
REMARK                         _______ _______ _______ _____ _____    ______ ____
ROOT
ATOM      1  C   UNL     1       1.965  -3.810  -1.314  0.00  0.00    +0.019 C 
ENDROOT
BRANCH   1   2
ATOM      2  C   UNL     1       3.437  -3.790  -0.991  0.00  0.00    +0.203 C 
ATOM      3  O   UNL     1       4.022  -2.732  -0.890  0.00  0.00    -0.277 OA
ATOM      4  N   UNL     1       4.104  -4.948  -0.813  0.00  0.00    -0.257 N 
ATOM      5  H   UNL     1       3.636  -5.794  -0.893  0.00  0.00    +0.158 HD
BRANCH   4   6
ATOM      6  C   UNL     1       5.456  -4.930  -0.516  0.00  0.00    +0.206 A 
ATOM      7  C   UNL     1       6.250  -6.032  -0.311  0.00  0.00    +0.110 A 
ATOM      8  C   UNL     1       7.606  -5.498  -0.028  0.00  0.00    +0.053 A 
ATOM      9  C   UNL     1       8.678  -6.463   0.234  0.00  0.00    +0.070 A 
ATOM     10  N   UNL     1       8.417  -7.734   0.212  0.00  0.00    -0.175 NA
ATOM     11  N   UNL     1       7.154  -8.258  -0.051  0.00  0.00    -0.242 N 
ATOM     12  H   UNL     1       7.041  -9.222  -0.049  0.00  0.00    +0.192 HD
ATOM     13  C   UNL     1       6.081  -7.481  -0.308  0.00  0.00    +0.277 A 
ATOM     14  O   UNL     1       4.993  -7.980  -0.534  0.00  0.00    -0.266 OA
ATOM     15  C   UNL     1      10.075  -5.981   0.528  0.00  0.00    +0.068 C 
ATOM     16  C   UNL     1       7.492  -4.155  -0.090  0.00  0.00    +0.114 A 
ATOM     17  O   UNL     1       6.218  -3.833  -0.384  0.00  0.00    -0.445 OA
ATOM     18  C   UNL     1       8.612  -3.171   0.129  0.00  0.00    +0.087 C 
ENDBRANCH   4   6
ENDBRANCH   1   2
BRANCH   1  19
ATOM     19  N   UNL     1       1.494  -2.418  -1.477  0.00  0.00    +0.389 N 
ATOM     20  H   UNL     1       2.108  -1.935  -2.143  0.00  0.00    -0.081 HD
BRANCH  19  21
ATOM     21  C   UNL     1       1.544  -1.713  -0.179  0.00  0.00    -0.035 C 
BRANCH  21  26
ATOM     22  C   UNL     1       1.998   3.826  -1.280  0.00  0.00    +0.051 C 
ATOM     23  C   UNL     1       1.621   2.404  -0.952  0.00  0.00    -0.013 A 
ATOM     24  C   UNL     1       0.405   1.893  -0.642  0.00  0.00    +0.011 A 
ATOM     25  C   UNL     1       0.294   0.541  -0.374  0.00  0.00    +0.009 A 
ATOM     26  C   UNL     1       1.406  -0.233  -0.427  0.00  0.00    -0.026 A 
ATOM     27  S   UNL     1       2.663   0.956  -0.868  0.00  0.00    -0.100 S 
ENDBRANCH  21  26
ENDBRANCH  19  21
BRANCH  19  28
ATOM     28  C   UNL     1       0.113  -2.411  -2.003  0.00  0.00    -0.073 C 
BRANCH  28  29
ATOM     29  C   UNL     1       0.145  -2.824  -3.476  0.00  0.00    +0.016 C 
BRANCH  29  30
ATOM     30  C   UNL     1      -1.242  -2.725  -4.056  0.00  0.00    -0.049 A 
ATOM     31  C   UNL     1      -2.088  -3.817  -4.014  0.00  0.00    +0.003 A 
ATOM     32  C   UNL     1      -3.362  -3.724  -4.542  0.00  0.00    +0.000 A 
ATOM     33  C   UNL     1      -3.787  -2.543  -5.120  0.00  0.00    +0.000 A 
ATOM     34  C   UNL     1      -2.938  -1.453  -5.168  0.00  0.00    +0.000 A 
ATOM     35  C   UNL     1      -1.666  -1.543  -4.635  0.00  0.00    +0.003 A 
ENDBRANCH  29  30
ENDBRANCH  28  29
ENDBRANCH  19  28
ENDBRANCH   1  19
TORSDOF 8
