REMARK  Name = ZINC61881882
REMARK  10 active torsions:
REMARK  status: ('A' for Active; 'I' for Inactive)
REMARK    1  A    between atoms: C_1  and  C_2
REMARK    2  A    between atoms: C_2  and  C_4
REMARK    3  A    between atoms: C_2  and  N_9
REMARK    4  A    between atoms: C_4  and  C_5
REMARK    5  A    between atoms: C_5  and  C_6
REMARK    6  A    between atoms: C_6  and  C_7
REMARK    7  A    between atoms: C_6  and  C_8
REMARK    8  A    between atoms: N_9  and  S_10
REMARK    9  A    between atoms: S_10  and  C_13
REMARK   10  A    between atoms: C_17  and  N_20
REMARK                            x       y       z     vdW  Elec       q    Type
REMARK                         _______ _______ _______ _____ _____    ______ ____
ROOT
ATOM      1  S   UNL     1      -0.192  -0.992  -2.508  0.00  0.00    +0.060 S 
ATOM      2  O   UNL     1       0.642  -1.545  -3.517  0.00  0.00    -0.153 OA
ATOM      3  O   UNL     1      -1.222  -1.740  -1.877  0.00  0.00    -0.153 OA
ENDROOT
BRANCH   1   4
ATOM      4  C   UNL     1      -0.960   0.428  -3.213  0.00  0.00    +0.122 A 
ATOM      5  C   UNL     1      -2.329   0.595  -3.111  0.00  0.00    +0.049 A 
ATOM      6  C   UNL     1      -2.937   1.709  -3.663  0.00  0.00    +0.045 A 
ATOM      7  C   UNL     1      -2.175   2.660  -4.317  0.00  0.00    +0.044 A 
ATOM      8  C   UNL     1      -0.801   2.496  -4.420  0.00  0.00    +0.042 A 
ATOM      9  C   UNL     1      -0.194   1.377  -3.861  0.00  0.00    +0.065 A 
ATOM     10 BR   UNL     1       1.679   1.153  -3.992  0.00  0.00    -0.046 Br
ATOM     11 CL   UNL     1      -4.656   1.913  -3.533  0.00  0.00    -0.083 Cl
BRANCH   8  12
ATOM     12  N   UNL     1      -0.029   3.454  -5.082  0.00  0.00    -0.357 N 
ATOM     13  H   UNL     1      -0.453   4.236  -5.469  0.00  0.00    +0.142 HD
ATOM     14  H   UNL     1       0.932   3.338  -5.153  0.00  0.00    +0.142 HD
ENDBRANCH   8  12
ENDBRANCH   1   4
BRANCH   1  15
ATOM     15  N   UNL     1       0.812  -0.459  -1.304  0.00  0.00    -0.187 NA
ATOM     16  H   UNL     1       1.771  -0.587  -1.380  0.00  0.00    +0.148 HD
BRANCH  15  18
ATOM     17  C   UNL     1       0.709   1.665  -0.096  0.00  0.00    +0.025 C 
ATOM     18  C   UNL     1       0.253   0.205  -0.124  0.00  0.00    +0.073 C 
BRANCH  18  19
ATOM     19  C   UNL     1       0.740  -0.505   1.140  0.00  0.00    +0.020 C 
BRANCH  19  20
ATOM     20  C   UNL     1       0.179  -1.929   1.173  0.00  0.00    +0.004 C 
BRANCH  20  21
ATOM     21  C   UNL     1       0.667  -2.639   2.438  0.00  0.00    -0.017 C 
ATOM     22  C   UNL     1       0.008  -4.017   2.535  0.00  0.00    +0.007 C 
ATOM     23  C   UNL     1       2.187  -2.804   2.377  0.00  0.00    +0.007 C 
ENDBRANCH  20  21
ENDBRANCH  19  20
ENDBRANCH  18  19
ENDBRANCH  15  18
ENDBRANCH   1  15
TORSDOF 7
