REMARK  Name = ZINC09470990
REMARK  16 active torsions:
REMARK  status: ('A' for Active; 'I' for Inactive)
REMARK    1  A    between atoms: C_1  and  C_2
REMARK    2  A    between atoms: C_2  and  N_73
REMARK    3  A    between atoms: C_3  and  C_4
REMARK    4  A    between atoms: C_3  and  N_73
REMARK    5  A    between atoms: C_5  and  C_6
REMARK    6  A    between atoms: C_5  and  N_73
REMARK    7  A    between atoms: C_6  and  C_7
REMARK    8  A    between atoms: C_7  and  N_8
REMARK    9  A    between atoms: C_9  and  C_29
REMARK   10  A    between atoms: C_11  and  C_16
REMARK   11  A    between atoms: C_12  and  O_15
REMARK   12  A    between atoms: C_16  and  C_18
REMARK   13  A    between atoms: C_25  and  C_28
REMARK   14  A    between atoms: C_32  and  N_35
REMARK   15  A    between atoms: N_35  and  C_36
REMARK   16  A    between atoms: N_35  and  C_37
REMARK                            x       y       z     vdW  Elec       q    Type
REMARK                         _______ _______ _______ _____ _____    ______ ____
ROOT
ATOM      1  N   UNL     1      -0.903  -2.376   0.012  0.00  0.00    -0.284 N 
ATOM      2  C   UNL     1      -1.319  -0.969   0.066  0.00  0.00    +0.144 C 
ATOM      3  C   UNL     1      -0.050  -0.152  -0.011  0.00  0.00    +0.071 C 
ATOM      4  C   UNL     1       0.976  -1.030  -0.091  0.00  0.00    +0.188 C 
ATOM      5  C   UNL     1       0.439  -2.407  -0.076  0.00  0.00    +0.282 C 
ATOM      6  O   UNL     1       1.111  -3.418  -0.135  0.00  0.00    -0.267 OA
ENDROOT
BRANCH   2   7
ATOM      7  C   UNL     1      -2.038  -0.688   1.360  0.00  0.00    -0.022 A 
ATOM      8  C   UNL     1      -1.514  -1.146   2.555  0.00  0.00    +0.007 A 
ATOM      9  C   UNL     1      -2.167  -0.886   3.743  0.00  0.00    +0.023 A 
ATOM     10  C   UNL     1      -3.359  -0.172   3.736  0.00  0.00    +0.029 A 
ATOM     11  C   UNL     1      -3.886   0.282   2.534  0.00  0.00    +0.023 A 
ATOM     12  C   UNL     1      -3.224   0.023   1.350  0.00  0.00    +0.007 A 
BRANCH  10  13
ATOM     13  N   UNL     1      -4.026   0.089   4.936  0.00  0.00    -0.336 N 
ATOM     14  C   UNL     1      -5.282   0.842   4.926  0.00  0.00    +0.129 C 
ATOM     15  C   UNL     1      -3.468  -0.391   6.203  0.00  0.00    +0.129 C 
ENDBRANCH  10  13
ENDBRANCH   2   7
BRANCH   4  16
ATOM     16  O   UNL     1       2.286  -0.700  -0.172  0.00  0.00    -0.502 OA
ATOM     17  H   UNL     1       2.837  -1.533  -0.220  0.00  0.00    +0.292 HD
ENDBRANCH   4  16
BRANCH   3  18
ATOM     18  C   UNL     1       0.050   1.311   0.004  0.00  0.00    +0.195 C 
ATOM     19  O   UNL     1       0.573   1.876   0.947  0.00  0.00    -0.287 OA
BRANCH  18  20
ATOM     20  C   UNL     1      -0.479   2.099  -1.127  0.00  0.00    +0.023 A 
ATOM     21  C   UNL     1      -1.153   1.463  -2.175  0.00  0.00    +0.015 A 
ATOM     22  C   UNL     1      -1.647   2.198  -3.225  0.00  0.00    +0.046 A 
ATOM     23  C   UNL     1      -1.480   3.584  -3.260  0.00  0.00    +0.124 A 
ATOM     24  C   UNL     1      -0.804   4.211  -2.216  0.00  0.00    -0.002 A 
ATOM     25  C   UNL     1      -0.314   3.488  -1.157  0.00  0.00    +0.019 A 
ATOM     26  C   UNL     1      -0.770   5.693  -2.537  0.00  0.00    +0.083 C 
ATOM     27  C   UNL     1      -1.144   5.703  -4.038  0.00  0.00    +0.175 C 
ATOM     28  O   UNL     1      -1.895   4.487  -4.188  0.00  0.00    -0.488 OA
ATOM     29  C   UNL     1       0.113   5.674  -4.910  0.00  0.00    +0.052 C 
ENDBRANCH  18  20
ENDBRANCH   3  18
BRANCH   1  30
ATOM     30  C   UNL     1      -1.792  -3.540   0.053  0.00  0.00    +0.107 C 
BRANCH  30  31
ATOM     31  C   UNL     1      -2.006  -3.966   1.506  0.00  0.00    +0.000 C 
BRANCH  31  32
ATOM     32  C   UNL     1      -2.935  -5.182   1.549  0.00  0.00    -0.077 C 
BRANCH  32  33
ATOM     33  N   UNL     1      -3.115  -5.595   2.957  0.00  0.00    +0.379 N 
ATOM     34  H   UNL     1      -2.192  -5.702   3.394  0.00  0.00    -0.082 HD
BRANCH  33  36
ATOM     35  C   UNL     1      -5.286  -4.422   3.111  0.00  0.00    -0.017 C 
ATOM     36  C   UNL     1      -3.877  -4.564   3.692  0.00  0.00    -0.082 C 
ENDBRANCH  33  36
BRANCH  33  37
ATOM     37  C   UNL     1      -3.828  -6.888   3.016  0.00  0.00    -0.082 C 
ATOM     38  C   UNL     1      -3.695  -7.458   4.430  0.00  0.00    -0.017 C 
ENDBRANCH  33  37
ENDBRANCH  32  33
ENDBRANCH  31  32
ENDBRANCH  30  31
ENDBRANCH   1  30
TORSDOF 11
