REMARK  Name = ZINC40321287
REMARK  8 active torsions:
REMARK  status: ('A' for Active; 'I' for Inactive)
REMARK    1  A    between atoms: C_4  and  C_7
REMARK    2  A    between atoms: C_7  and  C_8
REMARK    3  A    between atoms: C_8  and  N_9
REMARK    4  A    between atoms: C_10  and  C_12
REMARK    5  A    between atoms: C_16  and  N_17
REMARK    6  A    between atoms: C_18  and  C_20
REMARK    7  A    between atoms: C_23  and  S_25
REMARK    8  A    between atoms: S_25  and  C_28
REMARK                            x       y       z     vdW  Elec       q    Type
REMARK                         _______ _______ _______ _____ _____    ______ ____
ROOT
ATOM      1  C   UNL     1       7.329  -2.729   2.524  0.00  0.00    +0.069 A 
ATOM      2  C   UNL     1       8.603  -2.011   2.520  0.00  0.00    -0.023 A 
ATOM      3  C   UNL     1       9.684  -2.811   2.502  0.00  0.00    -0.004 A 
ATOM      4  S   UNL     1       9.022  -4.458   2.495  0.00  0.00    -0.077 S 
ATOM      5  C   UNL     1       7.381  -4.111   2.517  0.00  0.00    +0.085 A 
ATOM      6  C   UNL     1      10.966  -2.023   2.494  0.00  0.00    +0.043 C 
ATOM      7  C   UNL     1      10.544  -0.597   2.077  0.00  0.00    +0.010 C 
ATOM      8  C   UNL     1       9.071  -0.557   2.533  0.00  0.00    +0.037 C 
ENDROOT
BRANCH   1  10
ATOM      9  N   UNL     1       5.450  -1.678   1.382  0.00  0.00    -0.311 N 
ATOM     10  C   UNL     1       6.050  -2.013   2.541  0.00  0.00    +0.247 C 
ATOM     11  O   UNL     1       5.530  -1.721   3.602  0.00  0.00    -0.270 OA
ATOM     12  H   UNL     1       5.864  -1.911   0.536  0.00  0.00    +0.149 HD
BRANCH   9  13
ATOM     13  C   UNL     1       4.171  -0.963   1.399  0.00  0.00    +0.109 C 
BRANCH  13  14
ATOM     14  C   UNL     1       3.711  -0.707  -0.038  0.00  0.00    +0.054 C 
BRANCH  14  18
ATOM     15  C   UNL     1      -0.017   1.378   0.010  0.00  0.00    +0.000 A 
ATOM     16  C   UNL     1       1.171   2.086   0.002  0.00  0.00    +0.000 A 
ATOM     17  C   UNL     1       2.377   1.411  -0.013  0.00  0.00    +0.004 A 
ATOM     18  C   UNL     1       2.396   0.029  -0.020  0.00  0.00    -0.046 A 
ATOM     19  C   UNL     1       1.208  -0.679  -0.012  0.00  0.00    +0.004 A 
ATOM     20  C   UNL     1       0.002  -0.004   0.002  0.00  0.00    +0.000 A 
ENDBRANCH  14  18
ENDBRANCH  13  14
ENDBRANCH   9  13
ENDBRANCH   1  10
BRANCH   5  21
ATOM     21  N   UNL     1       6.322  -5.003   2.525  0.00  0.00    -0.273 N 
ATOM     22  C   UNL     1       6.558  -6.330   2.517  0.00  0.00    +0.284 C 
ATOM     23  O   UNL     1       7.702  -6.744   2.502  0.00  0.00    -0.266 OA
ATOM     24  H   UNL     1       5.410  -4.673   2.537  0.00  0.00    +0.156 HD
BRANCH  22  25
ATOM     25  C   UNL     1       5.437  -7.274   2.525  0.00  0.00    +0.192 A 
ATOM     26  C   UNL     1       5.535  -8.636   2.523  0.00  0.00    +0.056 A 
ATOM     27  C   UNL     1       4.223  -9.135   2.534  0.00  0.00    +0.070 A 
ATOM     28  C   UNL     1       3.392  -8.069   2.542  0.00  0.00    +0.246 A 
ATOM     29  O   UNL     1       4.127  -6.950   2.542  0.00  0.00    -0.433 OA
BRANCH  28  30
ATOM     30  S   UNL     1       1.632  -8.141   2.556  0.00  0.00    +0.058 S 
ATOM     31  O   UNL     1       1.171  -6.912   2.010  0.00  0.00    -0.161 OA
ATOM     32  O   UNL     1       1.272  -9.401   2.007  0.00  0.00    -0.161 OA
BRANCH  30  33
ATOM     33  C   UNL     1       1.125  -8.163   4.243  0.00  0.00    +0.097 A 
ATOM     34  C   UNL     1       0.980  -9.368   4.905  0.00  0.00    +0.027 A 
ATOM     35  C   UNL     1       0.583  -9.386   6.229  0.00  0.00    +0.002 A 
ATOM     36  C   UNL     1       0.330  -8.199   6.891  0.00  0.00    +0.000 A 
ATOM     37  C   UNL     1       0.476  -6.994   6.229  0.00  0.00    +0.002 A 
ATOM     38  C   UNL     1       0.878  -6.976   4.907  0.00  0.00    +0.027 A 
ENDBRANCH  30  33
ENDBRANCH  28  30
ENDBRANCH  22  25
ENDBRANCH   5  21
TORSDOF 8
