REMARK  Name = ZINC15957544
REMARK  15 active torsions:
REMARK  status: ('A' for Active; 'I' for Inactive)
REMARK    1  A    between atoms: C_1  and  C_2
REMARK    2  A    between atoms: C_2  and  C_3
REMARK    3  A    between atoms: C_3  and  C_4
REMARK    4  A    between atoms: C_4  and  CA_5
REMARK    5  A    between atoms: CA_5  and  C_7
REMARK    6  A    between atoms: CA_5  and  N_9
REMARK    7  A    between atoms: C_10  and  CA_12
REMARK    8  A    between atoms: CA_12  and  CB_14
REMARK    9  A    between atoms: CA_12  and  N_15
REMARK   10  A    between atoms: C_16  and  C_18
REMARK   11  A    between atoms: C_18  and  O_19
REMARK   12  A    between atoms: O_19  and  N_20
REMARK   13  A    between atoms: C_24  and  C_44
REMARK   14  A    between atoms: C_29  and  C_43
REMARK   15  A    between atoms: C_40  and  O_42
REMARK                            x       y       z     vdW  Elec       q    Type
REMARK                         _______ _______ _______ _____ _____    ______ ____
ROOT
ATOM      1  N   UNK A   0      -0.073   1.130   2.393  0.00  0.00    -0.089 NA
ATOM      2  C   UNK A   0      -0.585   1.483   3.531  0.00  0.00    +0.080 C 
ATOM      3  C   UNK A   0      -1.837   2.321   3.562  0.00  0.00    +0.059 C 
ATOM      4  C   UNK A   0      -2.483   2.260   4.946  0.00  0.00    +0.017 C 
ATOM      5  C   UNK A   0      -1.444   2.559   6.033  0.00  0.00    -0.007 C 
ATOM      6  C   UNK A   0      -2.103   2.507   7.401  0.00  0.00    +0.002 C 
ATOM      7  C   UNK A   0      -1.613   3.572   8.362  0.00  0.00    +0.005 C 
ATOM      8  C   UNK A   0      -2.429   3.554   9.672  0.00  0.00    +0.010 C 
ATOM      9  C   UNK A   0      -2.297   2.182  10.290  0.00  0.00    -0.003 C 
ATOM     10  C   UNK A   0      -2.864   1.131   9.315  0.00  0.00    +0.001 C 
ATOM     11  C   UNK A   0      -2.148   1.105   7.991  0.00  0.00    -0.003 C 
ATOM     12  C   UNK A   0      -0.837   0.352   8.033  0.00  0.00    +0.008 C 
ATOM     13  C   UNK A   0       0.266   1.049   7.240  0.00  0.00    +0.031 C 
ATOM     14  C   UNK A   0      -0.350   1.523   5.947  0.00  0.00    -0.062 C 
ATOM     15  C   UNK A   0       0.050   1.048   4.781  0.00  0.00    +0.026 C 
ATOM     16  C   UNK A   0      -2.828  -0.139  10.175  0.00  0.00    +0.007 C 
ATOM     17  C   UNK A   0      -3.332   0.378  11.554  0.00  0.00    +0.032 C 
ATOM     18  C   UNK A   0      -3.159   1.918  11.537  0.00  0.00    +0.121 C 
ATOM     19  C   UNK A   0      -0.845   1.933  10.685  0.00  0.00    +0.014 C 
ATOM     20  C   UNK A   0      -0.833   3.938   5.769  0.00  0.00    +0.016 C 
ENDROOT
BRANCH  18  21
ATOM     21  O   UNK A   0      -4.422   2.565  11.407  0.00  0.00    -0.391 OA
ATOM     22  H   UNK A   0      -5.010   2.435  12.163  0.00  0.00    +0.210 HD
ENDBRANCH  18  21
BRANCH   1  23
ATOM     23  O   UNK A   0      -0.682   1.547   1.184  0.00  0.00    -0.384 OA
BRANCH  23  24
ATOM     24  C   UNK A   0      -0.013   1.086   0.008  0.00  0.00    +0.358 C 
BRANCH  24  26
ATOM     25  N   ALA A   1      -0.288   1.272  -2.443  0.00  0.00    -0.301 N 
ATOM     26  C   UNK A   0      -0.742   1.585  -1.213  0.00  0.00    +0.254 C 
ATOM     27  O   UNK A   0      -1.736   2.268  -1.088  0.00  0.00    -0.272 OA
ATOM     28  H   ALA A   1       0.507   0.726  -2.543  0.00  0.00    +0.150 HD
BRANCH  25  29
ATOM     29  CA  ALA A   1      -0.997   1.758  -3.630  0.00  0.00    +0.156 C 
ATOM     30  CB  ALA A   1      -0.514   3.169  -3.971  0.00  0.00    +0.038 C 
BRANCH  29  32
ATOM     31  N   ALA A   1      -1.271   1.089  -5.995  0.00  0.00    -0.301 N 
ATOM     32  C   ALA A   1      -0.721   0.838  -4.791  0.00  0.00    +0.234 C 
ATOM     33  O   ALA A   1      -0.002  -0.128  -4.642  0.00  0.00    -0.274 OA
ATOM     34  H   ALA A   1      -1.846   1.861  -6.115  0.00  0.00    +0.150 HD
BRANCH  31  35
ATOM     35  CA  ALA A   1      -1.002   0.194  -7.124  0.00  0.00    +0.186 C 
BRANCH  35  36
ATOM     36  C   ALA A   1      -1.964  -0.965  -7.087  0.00  0.00    +0.376 C 
ATOM     37  O   ALA A   1      -2.790  -1.037  -6.207  0.00  0.00    -0.244 OA
ATOM     38  OXT ALA A   1      -1.904  -1.918  -8.030  0.00  0.00    -0.244 OA
ENDBRANCH  35  36
BRANCH  35  39
ATOM     39  C   ALA A   1      -1.180   0.962  -8.436  0.00  0.00    +0.034 C 
BRANCH  39  40
ATOM     40  C   ALA A   1      -0.121   2.062  -8.530  0.00  0.00    +0.002 C 
BRANCH  40  42
ATOM     41  C   ALA A   1       0.761   3.930  -9.936  0.00  0.00    +0.004 C 
ATOM     42  C   ALA A   1      -0.298   2.829  -9.842  0.00  0.00    -0.003 C 
ENDBRANCH  40  42
ENDBRANCH  39  40
ENDBRANCH  35  39
ENDBRANCH  31  35
ENDBRANCH  29  32
ENDBRANCH  25  29
ENDBRANCH  24  26
ENDBRANCH  23  24
ENDBRANCH   1  23
TORSDOF 11
