REMARK  Name = ZINC39584239
REMARK  6 active torsions:
REMARK  status: ('A' for Active; 'I' for Inactive)
REMARK    1  A    between atoms: C_1  and  C_2
REMARK    2  A    between atoms: C_2  and  N_3
REMARK    3  A    between atoms: C_14  and  C_16
REMARK    4  A    between atoms: N_17  and  N_18
REMARK    5  A    between atoms: C_19  and  C_21
REMARK    6  A    between atoms: C_24  and  C_27
REMARK                            x       y       z     vdW  Elec       q    Type
REMARK                         _______ _______ _______ _____ _____    ______ ____
ROOT
ATOM      1  N   UNL     1       0.711  -0.489   1.189  0.00  0.00    -0.340 N 
ATOM      2  C   UNL     1       2.072  -0.729   1.254  0.00  0.00    +0.050 A 
ATOM      3  C   UNL     1       3.091  -0.600   0.315  0.00  0.00    +0.026 A 
ATOM      4  C   UNL     1       4.388  -0.915   0.658  0.00  0.00    +0.002 A 
ATOM      5  C   UNL     1       4.691  -1.364   1.934  0.00  0.00    +0.001 A 
ATOM      6  C   UNL     1       3.695  -1.499   2.877  0.00  0.00    +0.010 A 
ATOM      7  C   UNL     1       2.381  -1.182   2.545  0.00  0.00    +0.008 A 
ATOM      8  C   UNL     1       1.110  -1.211   3.292  0.00  0.00    +0.008 A 
ATOM      9  C   UNL     1       0.115  -0.767   2.405  0.00  0.00    +0.050 A 
ATOM     10  C   UNL     1      -1.206  -0.683   2.841  0.00  0.00    +0.027 A 
ATOM     11  C   UNL     1      -1.534  -1.025   4.121  0.00  0.00    +0.011 A 
ATOM     12  C   UNL     1      -0.550  -1.465   5.014  0.00  0.00    -0.005 A 
ATOM     13  C   UNL     1       0.776  -1.565   4.594  0.00  0.00    +0.020 A 
ENDROOT
BRANCH   1  15
ATOM     14  C   UNL     1      -0.019   1.526   0.010  0.00  0.00    +0.027 C 
ATOM     15  C   UNL     1       0.002  -0.004   0.002  0.00  0.00    +0.119 C 
ENDBRANCH   1  15
BRANCH  12  16
ATOM     16  C   UNL     1      -0.917  -1.832   6.395  0.00  0.00    +0.138 C 
ATOM     17  N   UNL     1      -2.152  -1.747   6.782  0.00  0.00    -0.188 NA
BRANCH  17  18
ATOM     18  N   UNL     1      -2.501  -2.095   8.093  0.00  0.00    -0.205 N 
ATOM     19  C   UNL     1      -3.784  -2.007   8.496  0.00  0.00    +0.262 C 
ATOM     20  O   UNL     1      -4.637  -1.625   7.722  0.00  0.00    -0.271 OA
ATOM     21  H   UNL     1      -1.819  -2.400   8.712  0.00  0.00    +0.177 HD
BRANCH  19  22
ATOM     22  C   UNL     1      -4.159  -2.381   9.906  0.00  0.00    +0.240 C 
ATOM     23  C   UNL     1      -3.893  -1.228  10.857  0.00  0.00    +0.035 C 
ATOM     24  C   UNL     1      -5.098  -0.935  11.352  0.00  0.00    +0.059 C 
ATOM     25  N   UNL     1      -6.042  -1.749  10.830  0.00  0.00    -0.159 NA
ATOM     26  N   UNL     1      -5.613  -2.583  10.023  0.00  0.00    -0.170 NA
ATOM     27  C   UNL     1      -5.368   0.157  12.355  0.00  0.00    +0.067 C 
ENDBRANCH  19  22
ENDBRANCH  17  18
ENDBRANCH  12  16
TORSDOF 4
