REMARK  Name = ZINC40985144
REMARK  12 active torsions:
REMARK  status: ('A' for Active; 'I' for Inactive)
REMARK    1  A    between atoms: C_1  and  C_2
REMARK    2  A    between atoms: C_3  and  C_17
REMARK    3  A    between atoms: C_5  and  C_7
REMARK    4  A    between atoms: C_10  and  O_13
REMARK    5  A    between atoms: O_13  and  C_14
REMARK    6  A    between atoms: C_14  and  C_15
REMARK    7  A    between atoms: C_14  and  C_16
REMARK    8  A    between atoms: C_17  and  N_18
REMARK    9  A    between atoms: C_21  and  C_24
REMARK   10  A    between atoms: N_26  and  C_27
REMARK   11  A    between atoms: C_27  and  C_28
REMARK   12  A    between atoms: C_28  and  C_29
REMARK                            x       y       z     vdW  Elec       q    Type
REMARK                         _______ _______ _______ _____ _____    ______ ____
ROOT
ATOM      1  N   UNL     1      -2.720  -0.483  -2.976  0.00  0.00    +0.383 N 
ATOM      2  C   UNL     1      -1.892   0.566  -3.583  0.00  0.00    -0.078 C 
ATOM      3  C   UNL     1      -2.080   0.555  -5.101  0.00  0.00    -0.006 C 
ATOM      4  C   UNL     1      -3.554   0.812  -5.430  0.00  0.00    +0.071 C 
ATOM      5  C   UNL     1      -4.414  -0.245  -4.731  0.00  0.00    -0.006 C 
ATOM      6  C   UNL     1      -4.139  -0.204  -3.226  0.00  0.00    -0.078 C 
ATOM      7  H   UNL     1      -2.478  -1.376  -3.380  0.00  0.00    -0.081 HD
ENDROOT
BRANCH   4   8
ATOM      8  C   UNL     1      -3.761   0.725  -6.920  0.00  0.00    +0.216 C 
ATOM      9  O   UNL     1      -2.823   0.482  -7.649  0.00  0.00    -0.276 OA
ATOM     10  N   UNL     1      -4.988   0.918  -7.442  0.00  0.00    -0.315 N 
ATOM     11  H   UNL     1      -5.739   1.113  -6.859  0.00  0.00    +0.149 HD
BRANCH  10  12
ATOM     12  C   UNL     1      -5.190   0.834  -8.890  0.00  0.00    +0.108 C 
BRANCH  12  13
ATOM     13  C   UNL     1      -6.662   1.091  -9.217  0.00  0.00    +0.049 C 
BRANCH  13  14
ATOM     14  C   UNL     1      -6.869   1.004 -10.707  0.00  0.00    -0.072 C 
ATOM     15  C   UNL     1      -7.270  -0.124 -11.199  0.00  0.00    -0.028 C 
ATOM     16  C   UNL     1      -7.509  -0.365 -12.661  0.00  0.00    +0.027 C 
ATOM     17  C   UNL     1      -7.631   0.968 -13.402  0.00  0.00    +0.004 C 
ATOM     18  C   UNL     1      -6.446   1.855 -13.003  0.00  0.00    +0.005 C 
ATOM     19  C   UNL     1      -6.604   2.233 -11.527  0.00  0.00    +0.030 C 
ENDBRANCH  13  14
ENDBRANCH  12  13
ENDBRANCH  10  12
ENDBRANCH   4   8
BRANCH   1  20
ATOM     20  C   UNL     1      -2.477  -0.521  -1.528  0.00  0.00    -0.019 C 
BRANCH  20  23
ATOM     21  C   UNL     1      -0.029   1.405  -1.266  0.00  0.00    +0.088 C 
ATOM     22  C   UNL     1       0.003  -0.097  -1.156  0.00  0.00    +0.124 A 
ATOM     23  C   UNL     1      -1.049  -0.927  -1.268  0.00  0.00    +0.066 A 
ATOM     24  N   UNL     1      -0.602  -2.183  -1.108  0.00  0.00    -0.216 NA
ATOM     25  C   UNL     1       0.694  -2.143  -0.901  0.00  0.00    +0.228 A 
ATOM     26  O   UNL     1       1.092  -0.859  -0.932  0.00  0.00    -0.440 OA
BRANCH  25  27
ATOM     27  C   UNL     1       1.568  -3.312  -0.676  0.00  0.00    +0.037 A 
ATOM     28  C   UNL     1       1.028  -4.600  -0.679  0.00  0.00    +0.017 A 
ATOM     29  C   UNL     1       1.847  -5.689  -0.470  0.00  0.00    +0.046 A 
ATOM     30  C   UNL     1       3.207  -5.506  -0.256  0.00  0.00    +0.121 A 
ATOM     31  C   UNL     1       3.748  -4.227  -0.253  0.00  0.00    +0.046 A 
ATOM     32  C   UNL     1       2.937  -3.133  -0.467  0.00  0.00    +0.017 A 
BRANCH  30  33
ATOM     33  O   UNL     1       4.011  -6.582  -0.050  0.00  0.00    -0.489 OA
BRANCH  33  34
ATOM     34  C   UNL     1       3.375  -7.857   0.052  0.00  0.00    +0.167 C 
ATOM     35  C   UNL     1       3.158  -8.432  -1.349  0.00  0.00    +0.051 C 
ATOM     36  C   UNL     1       4.261  -8.806   0.862  0.00  0.00    +0.051 C 
ENDBRANCH  33  34
ENDBRANCH  30  33
ENDBRANCH  25  27
ENDBRANCH  20  23
ENDBRANCH   1  20
TORSDOF 9
