REMARK  Name = ZINC39352587
REMARK  10 active torsions:
REMARK  status: ('A' for Active; 'I' for Inactive)
REMARK    1  A    between atoms: C_1  and  C_2
REMARK    2  A    between atoms: C_2  and  O_3
REMARK    3  A    between atoms: O_3  and  C_4
REMARK    4  A    between atoms: C_4  and  C_6
REMARK    5  A    between atoms: N_9  and  C_11
REMARK    6  A    between atoms: C_11  and  C_12
REMARK    7  A    between atoms: C_12  and  C_13
REMARK    8  A    between atoms: C_14  and  C_18
REMARK    9  A    between atoms: N_21  and  C_23
REMARK   10  A    between atoms: C_23  and  C_24
REMARK                            x       y       z     vdW  Elec       q    Type
REMARK                         _______ _______ _______ _____ _____    ______ ____
ROOT
ATOM      1  C   UNL     1       1.511  -2.379  -2.844  0.00  0.00    +0.171 A 
ATOM      2  C   UNL     1       1.645  -3.754  -3.090  0.00  0.00    -0.009 A 
ATOM      3  C   UNL     1       2.213  -3.857  -4.320  0.00  0.00    +0.040 A 
ATOM      4  N   UNL     1       2.401  -2.613  -4.779  0.00  0.00    -0.267 N 
ATOM      5  N   UNL     1       1.985  -1.755  -3.911  0.00  0.00    -0.164 NA
ATOM      6  C   UNL     1       2.536  -5.185  -4.957  0.00  0.00    +0.037 C 
ATOM      7  C   UNL     1       2.481  -6.254  -3.856  0.00  0.00    -0.072 C 
ATOM      8  N   UNL     1       1.227  -6.130  -3.102  0.00  0.00    +0.383 N 
ATOM      9  C   UNL     1       1.266  -4.935  -2.241  0.00  0.00    -0.039 C 
ATOM     10  H   UNL     1       0.456  -6.053  -3.747  0.00  0.00    -0.081 HD
ENDROOT
BRANCH   1  11
ATOM     11  C   UNL     1       0.947  -1.751  -1.633  0.00  0.00    +0.360 C 
ATOM     12  O   UNL     1       0.545  -2.444  -0.720  0.00  0.00    -0.243 OA
BRANCH  11  13
ATOM     13  O   UNL     1       0.878  -0.408  -1.540  0.00  0.00    -0.460 OA
BRANCH  13  15
ATOM     14  C   UNL     1       0.326   1.659  -0.417  0.00  0.00    +0.048 C 
ATOM     15  C   UNL     1       0.321   0.131  -0.340  0.00  0.00    +0.229 C 
ENDBRANCH  13  15
ENDBRANCH  11  13
ENDBRANCH   1  11
BRANCH   4  16
ATOM     16  C   UNL     1       2.988  -2.276  -6.078  0.00  0.00    +0.149 C 
BRANCH  16  17
ATOM     17  C   UNL     1       1.880  -2.181  -7.129  0.00  0.00    +0.067 C 
BRANCH  17  18
ATOM     18  C   UNL     1       2.484  -1.835  -8.466  0.00  0.00    +0.014 A 
ATOM     19  C   UNL     1       2.940  -2.652  -9.449  0.00  0.00    +0.049 A 
ATOM     20  N   UNL     1       3.425  -2.074 -10.530  0.00  0.00    -0.252 NA
ATOM     21  C   UNL     1       3.463  -0.770 -10.646  0.00  0.00    +0.156 A 
ATOM     22  S   UNL     1       2.790  -0.235  -9.198  0.00  0.00    -0.080 S 
ATOM     23  C   UNL     1       2.895  -4.152  -9.311  0.00  0.00    +0.066 C 
ENDBRANCH  17  18
ENDBRANCH  16  17
ENDBRANCH   4  16
BRANCH   8  24
ATOM     24  C   UNL     1       1.042  -7.325  -2.267  0.00  0.00    -0.065 C 
BRANCH  24  25
ATOM     25  C   UNL     1      -0.329  -7.265  -1.589  0.00  0.00    +0.063 C 
ATOM     26  C   UNL     1      -0.465  -8.435  -0.614  0.00  0.00    +0.048 C 
ATOM     27  C   UNL     1      -0.626  -9.720  -1.384  0.00  0.00    -0.026 A 
ATOM     28  C   UNL     1      -0.103 -10.896  -0.881  0.00  0.00    +0.005 A 
ATOM     29  C   UNL     1      -0.261 -12.079  -1.579  0.00  0.00    +0.000 A 
ATOM     30  C   UNL     1      -0.944 -12.089  -2.781  0.00  0.00    +0.002 A 
ATOM     31  C   UNL     1      -1.466 -10.916  -3.291  0.00  0.00    +0.023 A 
ATOM     32  C   UNL     1      -1.302  -9.725  -2.595  0.00  0.00    +0.037 A 
ATOM     33  N   UNL     1      -1.800  -8.532  -3.128  0.00  0.00    -0.285 N 
ATOM     34  C   UNL     1      -1.409  -7.346  -2.635  0.00  0.00    +0.219 C 
ATOM     35  O   UNL     1      -1.931  -6.329  -3.039  0.00  0.00    -0.275 OA
ATOM     36  H   UNL     1      -2.435  -8.562  -3.861  0.00  0.00    +0.155 HD
ENDBRANCH  24  25
ENDBRANCH   8  24
TORSDOF 8
