REMARK  Name = ZINC48448630
REMARK  6 active torsions:
REMARK  status: ('A' for Active; 'I' for Inactive)
REMARK    1  A    between atoms: C_1  and  C_2
REMARK    2  A    between atoms: C_2  and  C_3
REMARK    3  A    between atoms: C_2  and  C_4
REMARK    4  A    between atoms: C_6  and  C_10
REMARK    5  A    between atoms: N_12  and  S_13
REMARK    6  A    between atoms: S_13  and  C_16
REMARK                            x       y       z     vdW  Elec       q    Type
REMARK                         _______ _______ _______ _____ _____    ______ ____
ROOT
ATOM      1  C   UNL     1      -4.560  -1.556   1.597  0.00  0.00    +0.313 C 
ATOM      2  O   UNL     1      -5.705  -2.025   1.049  0.00  0.00    -0.262 OA
ATOM      3  N   UNL     1      -4.468  -1.414   2.888  0.00  0.00    -0.084 NA
ENDROOT
BRANCH   1   6
ATOM      4  C   UNL     1      -1.412  -0.526   0.013  0.00  0.00    +0.066 A 
ATOM      5  C   UNL     1      -2.197  -0.720   1.147  0.00  0.00    +0.058 A 
ATOM      6  C   UNL     1      -3.418  -1.206   0.733  0.00  0.00    +0.126 A 
ATOM      7  N   UNL     1      -3.371  -1.304  -0.628  0.00  0.00    -0.272 N 
ATOM      8  N   UNL     1      -2.107  -0.866  -1.043  0.00  0.00    -0.178 NA
ATOM      9  H   UNL     1      -4.086  -1.617  -1.204  0.00  0.00    +0.189 HD
BRANCH   4  11
ATOM     10  C   UNL     1      -0.019   1.526   0.010  0.00  0.00    +0.014 C 
ATOM     11  C   UNL     1       0.002  -0.004   0.002  0.00  0.00    +0.033 C 
ATOM     12  C   UNL     1       0.742  -0.511   1.242  0.00  0.00    +0.014 C 
ENDBRANCH   4  11
ENDBRANCH   1   6
BRANCH   3  13
ATOM     13  S   UNL     1      -5.751  -1.806   3.859  0.00  0.00    +0.108 S 
ATOM     14  O   UNL     1      -6.787  -0.883   3.555  0.00  0.00    -0.146 OA
ATOM     15  O   UNL     1      -5.926  -3.212   3.751  0.00  0.00    -0.146 OA
BRANCH  13  16
ATOM     16  C   UNL     1      -5.263  -1.487   5.522  0.00  0.00    +0.150 A 
ATOM     17  C   UNL     1      -5.396  -0.349   6.246  0.00  0.00    +0.037 A 
ATOM     18  C   UNL     1      -4.936  -0.327   7.550  0.00  0.00    +0.010 A 
ATOM     19  C   UNL     1      -4.365  -1.443   8.064  0.00  0.00    +0.047 A 
ATOM     20  S   UNL     1      -4.473  -2.579   6.692  0.00  0.00    -0.076 S 
ENDBRANCH  13  16
ENDBRANCH   3  13
TORSDOF 4
