REMARK  Name = ZINC13039487
REMARK  10 active torsions:
REMARK  status: ('A' for Active; 'I' for Inactive)
REMARK    1  A    between atoms: C_1  and  C_2
REMARK    2  A    between atoms: C_2  and  C_3
REMARK    3  A    between atoms: C_5  and  C_30
REMARK    4  A    between atoms: C_6  and  C_11
REMARK    5  A    between atoms: C_11  and  O_12
REMARK    6  A    between atoms: O_12  and  C_13
REMARK    7  A    between atoms: C_13  and  C_15
REMARK    8  A    between atoms: C_30  and  O_32
REMARK    9  A    between atoms: O_32  and  C_33
REMARK   10  A    between atoms: C_33  and  C_34
REMARK                            x       y       z     vdW  Elec       q    Type
REMARK                         _______ _______ _______ _____ _____    ______ ____
ROOT
ATOM      1  O   UNL     1       0.073   1.421  -0.810  0.00  0.00    -0.455 OA
ENDROOT
BRANCH   1   2
ATOM      2  C   UNL     1       0.117   0.096  -1.049  0.00  0.00    +0.340 C 
ATOM      3  O   UNL     1       1.159  -0.512  -0.911  0.00  0.00    -0.245 OA
BRANCH   2   4
ATOM      4  C   UNL     1      -1.104  -0.617  -1.479  0.00  0.00    +0.073 A 
ATOM      5  C   UNL     1      -1.425  -0.744  -2.852  0.00  0.00    +0.015 A 
ATOM      6  C   UNL     1      -0.601  -0.213  -3.852  0.00  0.00    +0.011 A 
ATOM      7  C   UNL     1      -0.951  -0.358  -5.161  0.00  0.00    +0.001 A 
ATOM      8  C   UNL     1      -2.117  -1.034  -5.517  0.00  0.00    +0.002 A 
ATOM      9  C   UNL     1      -2.936  -1.568  -4.571  0.00  0.00    +0.028 A 
ATOM     10  C   UNL     1      -2.606  -1.440  -3.209  0.00  0.00    +0.072 A 
ATOM     11  N   UNL     1      -3.383  -1.956  -2.259  0.00  0.00    -0.251 NA
ATOM     12  C   UNL     1      -3.101  -1.854  -0.973  0.00  0.00    +0.046 A 
ATOM     13  C   UNL     1      -1.973  -1.179  -0.540  0.00  0.00    -0.012 A 
ATOM     14  C   UNL     1      -1.621  -0.985   0.914  0.00  0.00    +0.038 C 
ATOM     15  C   UNL     1      -2.140  -2.138   1.771  0.00  0.00    +0.005 C 
ATOM     16  C   UNL     1      -3.536  -1.775   2.280  0.00  0.00    +0.001 C 
ATOM     17  C   UNL     1      -4.479  -1.571   1.098  0.00  0.00    +0.006 C 
ATOM     18  C   UNL     1      -4.054  -2.529  -0.018  0.00  0.00    +0.056 C 
ENDBRANCH   2   4
ENDBRANCH   1   2
BRANCH   1  19
ATOM     19  C   UNL     1       1.310   2.057  -0.392  0.00  0.00    +0.283 C 
BRANCH  19  22
ATOM     20  C   UNL     1       1.829   5.810   0.320  0.00  0.00    +0.113 C 
ATOM     21  C   UNL     1       2.115   4.337   0.108  0.00  0.00    +0.077 C 
ATOM     22  C   UNL     1       1.070   3.528  -0.173  0.00  0.00    +0.061 C 
ATOM     23  N   UNL     1      -0.199   4.023  -0.267  0.00  0.00    -0.269 N 
ATOM     24  C   UNL     1      -0.508   5.313  -0.084  0.00  0.00    +0.304 C 
ATOM     25  O   UNL     1      -1.669   5.659  -0.183  0.00  0.00    -0.252 OA
ATOM     26  N   UNL     1       0.426   6.241   0.202  0.00  0.00    -0.292 N 
ATOM     27  H   UNL     1      -0.917   3.405  -0.474  0.00  0.00    +0.156 HD
ATOM     28  H   UNL     1       0.180   7.171   0.327  0.00  0.00    +0.151 HD
BRANCH  20  30
ATOM     29  C   UNL     1       2.165   7.697   1.922  0.00  0.00    +0.006 C 
ATOM     30  C   UNL     1       2.322   6.189   1.718  0.00  0.00    +0.024 C 
ENDBRANCH  20  30
BRANCH  21  31
ATOM     31  C   UNL     1       3.431   3.826   0.200  0.00  0.00    +0.339 C 
ATOM     32  O   UNL     1       3.627   2.630   0.101  0.00  0.00    -0.245 OA
BRANCH  31  33
ATOM     33  O   UNL     1       4.468   4.667   0.397  0.00  0.00    -0.462 OA
BRANCH  33  34
ATOM     34  C   UNL     1       5.770   4.082   0.480  0.00  0.00    +0.229 C 
ATOM     35  C   UNL     1       6.809   5.183   0.703  0.00  0.00    +0.048 C 
ENDBRANCH  33  34
ENDBRANCH  31  33
ENDBRANCH  21  31
ENDBRANCH  19  22
ENDBRANCH   1  19
TORSDOF 8
