REMARK  Name = ZINC09560154
REMARK  7 active torsions:
REMARK  status: ('A' for Active; 'I' for Inactive)
REMARK    1  A    between atoms: C_1  and  C_2
REMARK    2  A    between atoms: C_5  and  N_8
REMARK    3  A    between atoms: C_14  and  S_15
REMARK    4  A    between atoms: S_15  and  C_16
REMARK    5  A    between atoms: C_16  and  C_17
REMARK    6  A    between atoms: N_19  and  C_20
REMARK    7  A    between atoms: C_31  and  C_34
REMARK                            x       y       z     vdW  Elec       q    Type
REMARK                         _______ _______ _______ _____ _____    ______ ____
ROOT
ATOM      1  N   UNL     1       6.519  -6.454   0.450  0.00  0.00    -0.255 N 
ATOM      2  C   UNL     1       7.626  -6.675   1.195  0.00  0.00    +0.273 A 
ATOM      3  O   UNL     1       7.707  -7.657   1.915  0.00  0.00    -0.266 OA
ATOM      4  C   UNL     1       8.675  -5.748   1.127  0.00  0.00    +0.094 A 
ATOM      5  C   UNL     1       8.587  -4.628   0.326  0.00  0.00    +0.064 A 
ATOM      6  N   UNL     1       7.456  -4.483  -0.398  0.00  0.00    -0.227 NA
ATOM      7  C   UNL     1       6.472  -5.347  -0.346  0.00  0.00    +0.177 A 
ATOM      8  C   UNL     1       9.758  -3.677   0.366  0.00  0.00    +0.071 C 
ATOM      9  C   UNL     1      11.036  -4.367   0.896  0.00  0.00    +0.054 C 
ATOM     10  S   UNL     1      10.264  -5.686   1.922  0.00  0.00    -0.115 S 
ATOM     11  C   UNL     1      11.873  -3.413   1.751  0.00  0.00    +0.020 C 
ENDROOT
BRANCH   1  16
ATOM     12  C   UNL     1       2.155 -10.079   0.617  0.00  0.00    +0.044 C 
ATOM     13  C   UNL     1       3.314  -9.116   0.573  0.00  0.00    -0.050 A 
ATOM     14  C   UNL     1       4.306  -9.274  -0.377  0.00  0.00    +0.005 A 
ATOM     15  C   UNL     1       5.370  -8.394  -0.420  0.00  0.00    +0.026 A 
ATOM     16  C   UNL     1       5.441  -7.349   0.491  0.00  0.00    +0.052 A 
ATOM     17  C   UNL     1       4.446  -7.196   1.448  0.00  0.00    +0.026 A 
ATOM     18  C   UNL     1       3.383  -8.076   1.482  0.00  0.00    +0.005 A 
ENDBRANCH   1  16
BRANCH   7  19
ATOM     19  S   UNL     1       5.038  -5.065  -1.330  0.00  0.00    -0.078 S 
BRANCH  19  20
ATOM     20  C   UNL     1       5.511  -3.516  -2.137  0.00  0.00    +0.173 C 
BRANCH  20  21
ATOM     21  C   UNL     1       4.402  -3.070  -3.056  0.00  0.00    +0.227 C 
ATOM     22  O   UNL     1       3.393  -3.734  -3.155  0.00  0.00    -0.275 OA
ATOM     23  N   UNL     1       4.533  -1.932  -3.767  0.00  0.00    -0.285 N 
ATOM     24  H   UNL     1       5.369  -1.440  -3.745  0.00  0.00    +0.155 HD
BRANCH  23  25
ATOM     25  C   UNL     1       3.462  -1.461  -4.538  0.00  0.00    +0.037 A 
ATOM     26  C   UNL     1       2.157  -1.656  -4.107  0.00  0.00    +0.027 A 
ATOM     27  C   UNL     1       1.101  -1.193  -4.867  0.00  0.00    +0.051 A 
ATOM     28  C   UNL     1       1.341  -0.532  -6.063  0.00  0.00    +0.162 A 
ATOM     29  C   UNL     1       2.646  -0.333  -6.496  0.00  0.00    +0.164 A 
ATOM     30  C   UNL     1       3.706  -0.799  -5.733  0.00  0.00    +0.072 A 
ATOM     31  O   UNL     1       2.901   0.322  -7.662  0.00  0.00    -0.485 OA
ATOM     32  C   UNL     1       1.812   0.445  -8.583  0.00  0.00    +0.270 C 
ATOM     33  C   UNL     1       0.571   0.897  -7.801  0.00  0.00    +0.270 C 
ATOM     34  O   UNL     1       0.286  -0.090  -6.803  0.00  0.00    -0.485 OA
ENDBRANCH  23  25
ENDBRANCH  20  21
ENDBRANCH  19  20
ENDBRANCH   7  19
TORSDOF 5
