REMARK  Name = ZINC39964528
REMARK  9 active torsions:
REMARK  status: ('A' for Active; 'I' for Inactive)
REMARK    1  A    between atoms: C_1  and  O_2
REMARK    2  A    between atoms: O_2  and  C_3
REMARK    3  A    between atoms: C_6  and  C_9
REMARK    4  A    between atoms: C_9  and  C_10
REMARK    5  A    between atoms: C_12  and  S_15
REMARK    6  A    between atoms: S_15  and  C_16
REMARK    7  A    between atoms: C_16  and  C_17
REMARK    8  A    between atoms: N_19  and  C_20
REMARK    9  A    between atoms: C_22  and  C_33
REMARK                            x       y       z     vdW  Elec       q    Type
REMARK                         _______ _______ _______ _____ _____    ______ ____
ROOT
ATOM      1  C   UNL     1       8.628  -3.491  -2.662  0.00  0.00    +0.173 C 
ENDROOT
BRANCH   1   2
ATOM      2  C   UNL     1       9.751  -4.322  -2.097  0.00  0.00    +0.224 C 
ATOM      3  O   UNL     1       9.506  -5.237  -1.339  0.00  0.00    -0.275 OA
ATOM      4  N   UNL     1      11.027  -4.049  -2.435  0.00  0.00    -0.302 N 
ATOM      5  H   UNL     1      11.219  -3.363  -3.093  0.00  0.00    +0.150 HD
BRANCH   4   6
ATOM      6  C   UNL     1      12.125  -4.790  -1.807  0.00  0.00    +0.148 C 
ATOM      7  C   UNL     1      13.378  -4.791  -2.719  0.00  0.00    +0.126 C 
ATOM      8  C   UNL     1      14.123  -6.118  -2.567  0.00  0.00    +0.021 C 
ATOM      9  C   UNL     1      15.235  -6.273  -3.585  0.00  0.00    +0.006 C 
ATOM     10  C   UNL     1      14.666  -6.421  -4.997  0.00  0.00    +0.000 C 
ATOM     11  C   UNL     1      13.763  -7.657  -5.033  0.00  0.00    +0.001 C 
ATOM     12  C   UNL     1      12.597  -7.446  -4.070  0.00  0.00    +0.014 C 
ATOM     13  C   UNL     1      13.111  -7.283  -2.660  0.00  0.00    +0.053 C 
ATOM     14  S   UNL     1      11.712  -6.577  -1.673  0.00  0.00    -0.134 S 
BRANCH   7  15
ATOM     15  C   UNL     1      12.964  -4.620  -4.121  0.00  0.00    +0.069 C 
ATOM     16  N   UNL     1      12.645  -4.488  -5.204  0.00  0.00    -0.196 NA
ENDBRANCH   7  15
ENDBRANCH   4   6
ENDBRANCH   1   2
BRANCH   1  17
ATOM     17  S   UNL     1       7.044  -4.101  -2.025  0.00  0.00    -0.075 S 
BRANCH  17  20
ATOM     18  C   UNL     1       3.982  -2.087  -3.361  0.00  0.00    +0.158 A 
ATOM     19  N   UNL     1       4.495  -3.098  -2.596  0.00  0.00    -0.203 NA
ATOM     20  C   UNL     1       5.848  -3.041  -2.767  0.00  0.00    +0.211 A 
ATOM     21  N   UNL     1       6.090  -2.046  -3.589  0.00  0.00    -0.121 NA
ATOM     22  N   UNL     1       4.986  -1.491  -3.940  0.00  0.00    -0.131 NA
BRANCH  18  23
ATOM     23  C   UNL     1       2.525  -1.732  -3.512  0.00  0.00    +0.113 C 
BRANCH  23  27
ATOM     24  C   UNL     1       1.437   1.121  -0.522  0.00  0.00    +0.120 A 
ATOM     25  C   UNL     1       1.909   1.551  -1.754  0.00  0.00    +0.046 A 
ATOM     26  C   UNL     1       2.260   0.626  -2.719  0.00  0.00    +0.007 A 
ATOM     27  C   UNL     1       2.142  -0.726  -2.458  0.00  0.00    -0.040 A 
ATOM     28  C   UNL     1       1.671  -1.157  -1.231  0.00  0.00    +0.007 A 
ATOM     29  C   UNL     1       1.325  -0.237  -0.261  0.00  0.00    +0.046 A 
BRANCH  24  31
ATOM     30  C   UNL     1       1.233   3.409   0.090  0.00  0.00    +0.277 C 
ATOM     31  O   UNL     1       1.091   2.028   0.429  0.00  0.00    -0.495 OA
ENDBRANCH  24  31
ENDBRANCH  23  27
ENDBRANCH  18  23
ENDBRANCH  17  20
ENDBRANCH   1  17
TORSDOF 8
