REMARK  Name = ZINC04370718
REMARK  7 active torsions:
REMARK  status: ('A' for Active; 'I' for Inactive)
REMARK    1  A    between atoms: C_1  and  C_2
REMARK    2  A    between atoms: C_2  and  C_3
REMARK    3  A    between atoms: C_6  and  N_9
REMARK    4  A    between atoms: C_10  and  C_14
REMARK    5  A    between atoms: C_14  and  C_15
REMARK    6  A    between atoms: N_16  and  N_17
REMARK    7  A    between atoms: N_17  and  C_18
REMARK                            x       y       z     vdW  Elec       q    Type
REMARK                         _______ _______ _______ _____ _____    ______ ____
ROOT
ATOM      1  N   UNL     1       0.034  -0.232  -0.005  0.00  0.00    -0.197 N 
ATOM      2  C   UNL     1      -0.821  -0.968   0.738  0.00  0.00    +0.162 A 
ATOM      3  N   UNL     1      -0.542  -2.226   0.518  0.00  0.00    -0.113 NA
ATOM      4  N   UNL     1       0.437  -2.336  -0.305  0.00  0.00    -0.023 NA
ATOM      5  N   UNL     1       0.845  -1.168  -0.671  0.00  0.00    -0.039 NA
ENDROOT
BRANCH   1   9
ATOM      6  C   UNL     1       0.239   3.925  -0.255  0.00  0.00    -0.047 A 
ATOM      7  C   UNL     1       1.401   3.181  -0.169  0.00  0.00    +0.006 A 
ATOM      8  C   UNL     1       1.336   1.803  -0.086  0.00  0.00    +0.028 A 
ATOM      9  C   UNL     1       0.103   1.166  -0.089  0.00  0.00    +0.069 A 
ATOM     10  C   UNL     1      -1.062   1.916  -0.181  0.00  0.00    +0.028 A 
ATOM     11  C   UNL     1      -0.991   3.293  -0.258  0.00  0.00    +0.006 A 
BRANCH   6  13
ATOM     12  C   UNL     1       0.387   5.847  -1.814  0.00  0.00    +0.009 C 
ATOM     13  C   UNL     1       0.312   5.427  -0.345  0.00  0.00    +0.032 C 
ENDBRANCH   6  13
ENDBRANCH   1   9
BRANCH   2  14
ATOM     14  C   UNL     1      -1.899  -0.437   1.647  0.00  0.00    +0.127 C 
BRANCH  14  15
ATOM     15  C   UNL     1      -3.216  -0.430   0.915  0.00  0.00    +0.111 C 
ATOM     16  N   UNL     1      -4.226  -1.041   1.408  0.00  0.00    -0.194 NA
BRANCH  16  17
ATOM     17  N   UNL     1      -5.450  -1.034   0.727  0.00  0.00    -0.237 N 
ATOM     18  H   UNL     1      -5.532  -0.566  -0.119  0.00  0.00    +0.174 HD
BRANCH  17  19
ATOM     19  C   UNL     1      -6.554  -1.702   1.265  0.00  0.00    +0.067 A 
ATOM     20  C   UNL     1      -6.438  -2.373   2.476  0.00  0.00    +0.027 A 
ATOM     21  C   UNL     1      -7.530  -3.032   3.006  0.00  0.00    +0.022 A 
ATOM     22  C   UNL     1      -8.739  -3.024   2.332  0.00  0.00    +0.042 A 
ATOM     23  C   UNL     1      -8.858  -2.356   1.126  0.00  0.00    +0.042 A 
ATOM     24  C   UNL     1      -7.771  -1.690   0.593  0.00  0.00    +0.065 A 
ATOM     25 CL   UNL     1      -7.922  -0.847  -0.917  0.00  0.00    -0.082 Cl
ATOM     26 CL   UNL     1     -10.109  -3.853   3.002  0.00  0.00    -0.083 Cl
ENDBRANCH  17  19
ENDBRANCH  16  17
ENDBRANCH  14  15
ENDBRANCH   2  14
TORSDOF 6
