REMARK  Name = ZINC01840266
REMARK  4 active torsions:
REMARK  status: ('A' for Active; 'I' for Inactive)
REMARK    1  A    between atoms: C_3  and  C_6
REMARK    2  A    between atoms: C_8  and  C_25
REMARK    3  A    between atoms: C_8  and  C_29
REMARK    4  A    between atoms: N_14  and  C_17
REMARK                            x       y       z     vdW  Elec       q    Type
REMARK                         _______ _______ _______ _____ _____    ______ ____
ROOT
ATOM      1  C   UNL     1       3.698   0.223  -1.534  0.00  0.00    +0.142 C 
ATOM      2  N   UNL     1       4.342  -0.874  -1.004  0.00  0.00    -0.303 N 
ATOM      3  C   UNL     1       5.814  -0.888  -1.010  0.00  0.00    +0.258 C 
ATOM      4  C   UNL     1       6.290   0.501  -0.669  0.00  0.00    +0.099 A 
ATOM      5  C   UNL     1       7.539   0.708  -0.079  0.00  0.00    +0.262 A 
ATOM      6  N   UNL     1       7.936   1.965   0.205  0.00  0.00    -0.274 N 
ATOM      7  C   UNL     1       7.152   3.019  -0.081  0.00  0.00    +0.335 A 
ATOM      8  O   UNL     1       7.543   4.140   0.178  0.00  0.00    -0.246 OA
ATOM      9  N   UNL     1       5.941   2.860  -0.649  0.00  0.00    -0.248 N 
ATOM     10  C   UNL     1       5.479   1.591  -0.948  0.00  0.00    +0.132 A 
ATOM     11  N   UNL     1       4.265   1.416  -1.482  0.00  0.00    -0.326 N 
ATOM     12  O   UNL     1       8.263  -0.239   0.179  0.00  0.00    -0.267 OA
ATOM     13  H   UNL     1       3.788   2.183  -1.835  0.00  0.00    +0.169 HD
ATOM     14  H   UNL     1       8.800   2.111   0.622  0.00  0.00    +0.173 HD
ATOM     15  H   UNL     1       3.838  -1.617  -0.637  0.00  0.00    +0.149 HD
ENDROOT
BRANCH   9  16
ATOM     16  C   UNL     1       5.150   3.979  -0.937  0.00  0.00    +0.053 A 
ATOM     17  C   UNL     1       5.264   4.613  -2.167  0.00  0.00    +0.028 A 
ATOM     18  C   UNL     1       4.483   5.717  -2.449  0.00  0.00    +0.022 A 
ATOM     19  C   UNL     1       3.587   6.191  -1.507  0.00  0.00    +0.041 A 
ATOM     20  C   UNL     1       3.472   5.561  -0.280  0.00  0.00    +0.022 A 
ATOM     21  C   UNL     1       4.246   4.453   0.004  0.00  0.00    +0.028 A 
ATOM     22 CL   UNL     1       2.608   7.579  -1.863  0.00  0.00    -0.084 Cl
ENDBRANCH   9  16
BRANCH   1  25
ATOM     23  C   UNL     1       0.321   0.436  -2.901  0.00  0.00    +0.042 A 
ATOM     24  C   UNL     1       1.398   1.011  -2.210  0.00  0.00    +0.053 A 
ATOM     25  C   UNL     1       2.384   0.065  -2.161  0.00  0.00    +0.165 A 
ATOM     26  O   UNL     1       1.933  -1.039  -2.792  0.00  0.00    -0.460 OA
ATOM     27  C   UNL     1       0.690  -0.819  -3.240  0.00  0.00    +0.196 A 
ENDBRANCH   1  25
BRANCH   3  28
ATOM     28  C   UNL     1       6.322  -1.285  -2.397  0.00  0.00    +0.424 C 
ATOM     29  F   UNL     1       5.865  -0.361  -3.344  0.00  0.00    -0.168 F 
ATOM     30  F   UNL     1       7.721  -1.297  -2.395  0.00  0.00    -0.168 F 
ATOM     31  F   UNL     1       5.846  -2.560  -2.722  0.00  0.00    -0.168 F 
ENDBRANCH   3  28
BRANCH   3  32
ATOM     32  C   UNL     1       6.326  -1.882   0.034  0.00  0.00    +0.424 C 
ATOM     33  F   UNL     1       5.601  -3.075  -0.062  0.00  0.00    -0.168 F 
ATOM     34  F   UNL     1       7.682  -2.140  -0.194  0.00  0.00    -0.168 F 
ATOM     35  F   UNL     1       6.163  -1.340   1.313  0.00  0.00    -0.168 F 
ENDBRANCH   3  32
TORSDOF 4
