REMARK  Name = ZINC39944310
REMARK  6 active torsions:
REMARK  status: ('A' for Active; 'I' for Inactive)
REMARK    1  A    between atoms: N_7  and  N_8
REMARK    2  A    between atoms: N_8  and  C_9
REMARK    3  A    between atoms: C_9  and  N_11
REMARK    4  A    between atoms: N_22  and  N_23
REMARK    5  A    between atoms: N_23  and  C_24
REMARK    6  A    between atoms: C_24  and  N_26
REMARK                            x       y       z     vdW  Elec       q    Type
REMARK                         _______ _______ _______ _____ _____    ______ ____
ROOT
ATOM      1  C   UNL     1      -0.019   1.557   0.011  0.00  0.00    +0.009 C 
ATOM      2  C   UNL     1       1.530   1.756  -0.003  0.00  0.00    +0.002 C 
ATOM      3  C   UNL     1       1.944   0.880  -1.231  0.00  0.00    +0.047 C 
ATOM      4  C   UNL     1       3.305   0.327  -0.837  0.00  0.00    +0.041 C 
ATOM      5  N   UNL     1       4.250  -0.011  -1.632  0.00  0.00    -0.190 NA
ATOM      6  C   UNL     1       3.329   0.253   0.675  0.00  0.00    +0.057 C 
ATOM      7  C   UNL     1       1.988   0.846   1.185  0.00  0.00    +0.002 C 
ATOM      8  C   UNL     1       0.945  -0.297   1.239  0.00  0.00    +0.002 C 
ATOM      9  C   UNL     1       0.002  -0.004   0.002  0.00  0.00    +0.002 C 
ATOM     10  C   UNL     1       0.938  -0.312  -1.206  0.00  0.00    +0.047 C 
ATOM     11  C   UNL     1       1.761  -1.508  -0.744  0.00  0.00    +0.041 C 
ATOM     12  N   UNL     1       2.474  -2.270  -1.486  0.00  0.00    -0.190 NA
ATOM     13  C   UNL     1       1.632  -1.618   0.834  0.00  0.00    +0.057 C 
ENDROOT
BRANCH   5  14
ATOM     14  N   UNL     1       4.080   0.116  -3.017  0.00  0.00    -0.219 N 
ATOM     15  H   UNL     1       3.246   0.460  -3.373  0.00  0.00    +0.176 HD
BRANCH  14  16
ATOM     16  C   UNL     1       5.075  -0.240  -3.854  0.00  0.00    +0.147 C 
ATOM     17  S   UNL     1       4.866  -0.085  -5.546  0.00  0.00    -0.017 S 
BRANCH  16  18
ATOM     18  N   UNL     1       6.233  -0.718  -3.359  0.00  0.00    -0.339 N 
ATOM     19  H   UNL     1       6.351  -0.806  -2.400  0.00  0.00    +0.144 HD
ATOM     20  H   UNL     1       6.949  -0.974  -3.961  0.00  0.00    +0.144 HD
ENDBRANCH  16  18
ENDBRANCH  14  16
ENDBRANCH   5  14
BRANCH  12  21
ATOM     21  N   UNL     1       2.548  -2.035  -2.865  0.00  0.00    -0.219 N 
ATOM     22  H   UNL     1       2.058  -1.296  -3.258  0.00  0.00    +0.176 HD
BRANCH  21  23
ATOM     23  C   UNL     1       3.299  -2.837  -3.645  0.00  0.00    +0.147 C 
ATOM     24  S   UNL     1       3.389  -2.551  -5.331  0.00  0.00    -0.017 S 
BRANCH  23  25
ATOM     25  N   UNL     1       3.978  -3.865  -3.099  0.00  0.00    -0.339 N 
ATOM     26  H   UNL     1       3.927  -4.027  -2.144  0.00  0.00    +0.144 HD
ATOM     27  H   UNL     1       4.519  -4.442  -3.661  0.00  0.00    +0.144 HD
ENDBRANCH  23  25
ENDBRANCH  21  23
ENDBRANCH  12  21
TORSDOF 6
