REMARK  Name = ZINC32100644
REMARK  8 active torsions:
REMARK  status: ('A' for Active; 'I' for Inactive)
REMARK    1  A    between atoms: C_1  and  C_2
REMARK    2  A    between atoms: C_2  and  CA_3
REMARK    3  A    between atoms: CA_3  and  C_5
REMARK    4  A    between atoms: CA_3  and  N_7
REMARK    5  A    between atoms: C_5  and  O_6
REMARK    6  A    between atoms: C_12  and  C_16
REMARK    7  A    between atoms: C_13  and  C_15
REMARK    8  A    between atoms: C_20  and  C_22
REMARK                            x       y       z     vdW  Elec       q    Type
REMARK                         _______ _______ _______ _____ _____    ______ ____
ROOT
ATOM      1  N   UNL     1       7.869   1.565  -0.063  0.00  0.00    -0.308 N 
ATOM      2  C   UNL     1       7.149   2.739  -0.051  0.00  0.00    +0.220 A 
ATOM      3  N   UNL     1       7.790   3.885  -0.051  0.00  0.00    -0.207 NA
ATOM      4  C   UNL     1       7.151   5.050  -0.039  0.00  0.00    +0.116 A 
ATOM      5  C   UNL     1       5.747   5.131  -0.025  0.00  0.00    +0.055 A 
ATOM      6  C   UNL     1       5.210   6.478  -0.013  0.00  0.00    -0.028 A 
ATOM      7  C   UNL     1       6.056   7.521  -0.017  0.00  0.00    -0.008 A 
ATOM      8  S   UNL     1       7.663   6.749  -0.036  0.00  0.00    -0.073 S 
ATOM      9  C   UNL     1       5.726   8.992  -0.006  0.00  0.00    +0.052 C 
ATOM     10  C   UNL     1       3.721   6.705   0.002  0.00  0.00    +0.045 C 
ATOM     11  C   UNL     1       5.044   3.833  -0.025  0.00  0.00    +0.170 A 
ATOM     12  N   UNL     1       5.785   2.686  -0.038  0.00  0.00    -0.181 N 
ATOM     13  N   UNL     1       4.864   1.628  -0.029  0.00  0.00    -0.142 NA
ATOM     14  C   UNL     1       3.660   2.164  -0.021  0.00  0.00    +0.182 A 
ATOM     15  N   UNL     1       3.769   3.497  -0.015  0.00  0.00    -0.206 NA
ATOM     16  H   UNL     1       7.345   0.599  -0.063  0.00  0.00    +0.149 HD
ENDROOT
BRANCH  14  17
ATOM     17  C   UNL     1       2.384   1.408  -0.013  0.00  0.00    +0.021 A 
ATOM     18  C   UNL     1       1.168   2.088   0.002  0.00  0.00    +0.011 A 
ATOM     19  C   UNL     1      -0.017   1.379   0.010  0.00  0.00    +0.001 A 
ATOM     20  C   UNL     1       0.002  -0.004   0.002  0.00  0.00    +0.000 A 
ATOM     21  C   UNL     1       1.206  -0.684  -0.013  0.00  0.00    +0.001 A 
ATOM     22  C   UNL     1       2.397   0.014  -0.021  0.00  0.00    +0.011 A 
ENDBRANCH  14  17
BRANCH   1  23
ATOM     23  CA  UNL     1       9.334   1.604  -0.077  0.00  0.00    +0.098 C 
BRANCH  23  25
ATOM     24  C   UNL     1       9.495   0.223   1.999  0.00  0.00    +0.006 C 
ATOM     25  C   UNL     1       9.884   0.308   0.522  0.00  0.00    +0.021 C 
ENDBRANCH  23  25
BRANCH  23  26
ATOM     26  C   UNL     1       9.827   1.750  -1.518  0.00  0.00    +0.178 C 
BRANCH  26  27
ATOM     27  O   UNL     1       9.473   0.584  -2.263  0.00  0.00    -0.393 OA
ATOM     28  H   UNL     1       9.745   0.506  -3.326  0.00  0.00    +0.209 HD
ENDBRANCH  26  27
ENDBRANCH  23  26
ENDBRANCH   1  23
TORSDOF 5
