REMARK  Name = ZINC67615178
REMARK  7 active torsions:
REMARK  status: ('A' for Active; 'I' for Inactive)
REMARK    1  A    between atoms: C_4  and  N_7
REMARK    2  A    between atoms: N_7  and  C_8
REMARK    3  A    between atoms: N_16  and  C_17
REMARK    4  A    between atoms: C_17  and  C_18
REMARK    5  A    between atoms: C_18  and  N_19
REMARK    6  A    between atoms: N_19  and  S_20
REMARK    7  A    between atoms: S_20  and  C_23
REMARK                            x       y       z     vdW  Elec       q    Type
REMARK                         _______ _______ _______ _____ _____    ______ ____
ROOT
ATOM      1  C   UNL     1       3.641  -2.114  -0.044  0.00  0.00    +0.089 C 
ATOM      2  C   UNL     1       4.984  -2.640  -0.617  0.00  0.00    +0.043 C 
ATOM      3  C   UNL     1       5.091  -4.027   0.065  0.00  0.00    +0.111 C 
ATOM      4  N   UNL     1       4.549  -3.823   1.421  0.00  0.00    -0.284 N 
ATOM      5  C   UNL     1       3.635  -2.668   1.396  0.00  0.00    +0.131 C 
ATOM      6  C   UNL     1       4.837  -4.573   2.503  0.00  0.00    +0.302 C 
ATOM      7  O   UNL     1       4.328  -4.312   3.576  0.00  0.00    -0.253 OA
ATOM      8  N   UNL     1       5.690  -5.611   2.396  0.00  0.00    -0.298 N 
ATOM      9  H   UNL     1       6.096  -5.819   1.540  0.00  0.00    +0.150 HD
ENDROOT
BRANCH   1  10
ATOM     10  N   UNL     1       3.620  -0.649  -0.036  0.00  0.00    -0.339 N 
ATOM     11  H   UNL     1       4.452  -0.152  -0.042  0.00  0.00    +0.146 HD
BRANCH  10  15
ATOM     12  C   UNL     1      -0.017   1.379   0.010  0.00  0.00    +0.000 A 
ATOM     13  C   UNL     1       1.169   2.089   0.002  0.00  0.00    +0.002 A 
ATOM     14  C   UNL     1       2.377   1.420  -0.013  0.00  0.00    +0.023 A 
ATOM     15  C   UNL     1       2.400   0.031  -0.021  0.00  0.00    +0.027 A 
ATOM     16  C   UNL     1       1.206  -0.680  -0.013  0.00  0.00    +0.023 A 
ATOM     17  C   UNL     1       0.002  -0.004   0.002  0.00  0.00    +0.002 A 
ENDBRANCH  10  15
ENDBRANCH   1  10
BRANCH   8  18
ATOM     18  C   UNL     1       6.004  -6.426   3.572  0.00  0.00    +0.122 C 
BRANCH  18  19
ATOM     19  C   UNL     1       6.989  -7.529   3.180  0.00  0.00    +0.124 C 
BRANCH  19  20
ATOM     20  N   UNL     1       7.303  -8.344   4.357  0.00  0.00    -0.188 NA
ATOM     21  H   UNL     1       7.080  -8.021   5.244  0.00  0.00    +0.148 HD
BRANCH  20  22
ATOM     22  S   UNL     1       8.037  -9.817   4.172  0.00  0.00    +0.058 S 
ATOM     23  O   UNL     1       8.229 -10.341   5.479  0.00  0.00    -0.153 OA
ATOM     24  O   UNL     1       7.305 -10.512   3.172  0.00  0.00    -0.153 OA
BRANCH  22  25
ATOM     25  C   UNL     1       9.641  -9.519   3.507  0.00  0.00    +0.105 A 
ATOM     26  C   UNL     1       9.825  -9.479   2.138  0.00  0.00    +0.028 A 
ATOM     27  C   UNL     1      11.084  -9.246   1.616  0.00  0.00    +0.002 A 
ATOM     28  C   UNL     1      12.159  -9.052   2.464  0.00  0.00    +0.000 A 
ATOM     29  C   UNL     1      11.974  -9.091   3.833  0.00  0.00    +0.002 A 
ATOM     30  C   UNL     1      10.715  -9.320   4.355  0.00  0.00    +0.028 A 
ENDBRANCH  22  25
ENDBRANCH  20  22
ENDBRANCH  19  20
ENDBRANCH  18  19
ENDBRANCH   8  18
TORSDOF 7
