REMARK  Name = ZINC63783285
REMARK  5 active torsions:
REMARK  status: ('A' for Active; 'I' for Inactive)
REMARK    1  A    between atoms: C_2  and  C_19
REMARK    2  A    between atoms: C_6  and  N_7
REMARK    3  A    between atoms: C_8  and  C_10
REMARK    4  A    between atoms: C_10  and  N_11
REMARK    5  A    between atoms: C_19  and  C_20
REMARK                            x       y       z     vdW  Elec       q    Type
REMARK                         _______ _______ _______ _____ _____    ______ ____
ROOT
ATOM      1  C   UNL     1      -0.016   1.357   0.009  0.00  0.00    +0.068 A 
ATOM      2  C   UNL     1       1.308   1.803  -0.001  0.00  0.00    +0.065 A 
ATOM      3  N   UNL     1       2.094   0.757  -0.014  0.00  0.00    -0.177 NA
ATOM      4  N   UNL     1       1.297  -0.395  -0.012  0.00  0.00    -0.264 N 
ATOM      5  H   UNL     1       1.617  -1.310  -0.020  0.00  0.00    +0.190 HD
ATOM      6  C   UNL     1       0.002  -0.004   0.002  0.00  0.00    +0.121 A 
ENDROOT
BRANCH   6   7
ATOM      7  N   UNL     1      -1.112  -0.843   0.009  0.00  0.00    -0.269 N 
ATOM      8  C   UNL     1      -2.352  -0.317   0.024  0.00  0.00    +0.236 C 
ATOM      9  O   UNL     1      -2.500   0.887   0.032  0.00  0.00    -0.274 OA
ATOM     10  H   UNL     1      -0.994  -1.806   0.002  0.00  0.00    +0.156 HD
BRANCH   8  11
ATOM     11  C   UNL     1      -3.556  -1.224   0.031  0.00  0.00    +0.203 C 
BRANCH  11  12
ATOM     12  N   UNL     1      -4.777  -0.414   0.047  0.00  0.00    -0.293 N 
ATOM     13  C   UNL     1      -5.370  -0.012   1.333  0.00  0.00    +0.108 C 
ATOM     14  C   UNL     1      -5.134   1.486   1.534  0.00  0.00    +0.019 C 
ATOM     15  C   UNL     1      -6.232   2.300   0.876  0.00  0.00    +0.002 C 
ATOM     16  C   UNL     1      -6.238   2.210  -0.640  0.00  0.00    +0.009 C 
ATOM     17  C   UNL     1      -6.602   0.795  -1.097  0.00  0.00    +0.096 C 
ATOM     18  C   UNL     1      -5.341  -0.042  -1.103  0.00  0.00    +0.216 C 
ATOM     19  O   UNL     1      -4.844  -0.379  -2.156  0.00  0.00    -0.276 OA
ENDBRANCH  11  12
ENDBRANCH   8  11
ENDBRANCH   6   7
BRANCH   2  20
ATOM     20  C   UNL     1       1.754   3.242   0.002  0.00  0.00    +0.061 C 
BRANCH  20  21
ATOM     21  C   UNL     1       2.707   3.478   1.176  0.00  0.00    -0.005 C 
ATOM     22  C   UNL     1       1.951   3.286   2.493  0.00  0.00    +0.004 C 
ATOM     23  C   UNL     1       2.904   3.522   3.667  0.00  0.00    +0.000 C 
ATOM     24  C   UNL     1       3.454   4.948   3.598  0.00  0.00    +0.000 C 
ATOM     25  C   UNL     1       4.210   5.140   2.281  0.00  0.00    +0.000 C 
ATOM     26  C   UNL     1       3.257   4.904   1.107  0.00  0.00    +0.004 C 
ENDBRANCH  20  21
ENDBRANCH   2  20
TORSDOF 5
