REMARK  Name = ZINC63383509
REMARK  8 active torsions:
REMARK  status: ('A' for Active; 'I' for Inactive)
REMARK    1  A    between atoms: C_1  and  C_2
REMARK    2  A    between atoms: C_2  and  C_3
REMARK    3  A    between atoms: C_2  and  C_4
REMARK    4  A    between atoms: C_4  and  C_5
REMARK    5  A    between atoms: C_5  and  C_7
REMARK    6  A    between atoms: C_5  and  N_16
REMARK    7  A    between atoms: N_9  and  C_10
REMARK    8  A    between atoms: C_17  and  C_19
REMARK                            x       y       z     vdW  Elec       q    Type
REMARK                         _______ _______ _______ _____ _____    ______ ____
ROOT
ATOM      1  C   UNL     1       2.843   3.284   0.070  0.00  0.00    +0.167 C 
ATOM      2  C   UNL     1       4.215   3.526   0.729  0.00  0.00    +0.065 C 
ATOM      3  C   UNL     1       4.231   4.957   1.204  0.00  0.00    -0.034 C 
ATOM      4  C   UNL     1       5.102   5.936   0.979  0.00  0.00    -0.001 A 
ATOM      5  C   UNL     1       6.396   5.951   0.279  0.00  0.00    +0.010 A 
ATOM      6  C   UNL     1       7.030   7.152   0.217  0.00  0.00    +0.001 A 
ATOM      7  C   UNL     1       6.512   8.325   0.775  0.00  0.00    +0.002 A 
ATOM      8  C   UNL     1       5.334   8.401   1.444  0.00  0.00    +0.026 A 
ATOM      9  C   UNL     1       4.579   7.199   1.583  0.00  0.00    +0.043 A 
ATOM     10  N   UNL     1       3.448   6.981   2.183  0.00  0.00    -0.375 N 
ATOM     11  C   UNL     1       3.138   5.553   2.084  0.00  0.00    +0.131 C 
ATOM     12  C   UNL     1       1.812   5.312   1.353  0.00  0.00    +0.134 C 
ATOM     13  N   UNL     1       1.808   3.900   0.911  0.00  0.00    -0.276 N 
ATOM     14  C   UNL     1       0.718   3.293   1.414  0.00  0.00    +0.248 C 
ATOM     15  O   UNL     1       0.380   2.152   1.167  0.00  0.00    -0.270 OA
ATOM     16  C   UNL     1      -0.002   4.207   2.303  0.00  0.00    +0.042 A 
ATOM     17  C   UNL     1       0.653   5.478   2.282  0.00  0.00    -0.013 A 
ATOM     18  C   UNL     1       0.213   6.557   3.016  0.00  0.00    +0.006 A 
ATOM     19  C   UNL     1      -0.928   6.370   3.791  0.00  0.00    +0.000 A 
ATOM     20  C   UNL     1      -1.593   5.161   3.828  0.00  0.00    +0.001 A 
ATOM     21  C   UNL     1      -1.145   4.010   3.082  0.00  0.00    +0.013 A 
ATOM     22  H   UNL     1       2.901   7.650   2.624  0.00  0.00    +0.160 HD
ENDROOT
BRANCH   1  24
ATOM     23  N   UNL     1       2.563   1.214  -1.256  0.00  0.00    -0.302 N 
ATOM     24  C   UNL     1       2.588   1.803  -0.043  0.00  0.00    +0.235 C 
ATOM     25  O   UNL     1       2.407   1.140   0.956  0.00  0.00    -0.274 OA
ATOM     26  H   UNL     1       2.780   1.728  -2.049  0.00  0.00    +0.150 HD
BRANCH  23  27
ATOM     27  C   UNL     1       2.208  -0.202  -1.375  0.00  0.00    +0.159 C 
BRANCH  27  28
ATOM     28  C   UNL     1       2.890  -0.791  -2.583  0.00  0.00    +0.234 C 
ATOM     29  O   UNL     1       3.302  -0.063  -3.461  0.00  0.00    -0.274 OA
ATOM     30  N   UNL     1       3.042  -2.126  -2.688  0.00  0.00    -0.311 N 
ATOM     31  H   UNL     1       2.650  -2.712  -2.021  0.00  0.00    +0.149 HD
BRANCH  30  32
ATOM     32  C   UNL     1       3.798  -2.692  -3.807  0.00  0.00    +0.073 C 
ATOM     33  C   UNL     1       2.876  -2.849  -5.018  0.00  0.00    +0.022 C 
ATOM     34  C   UNL     1       3.666  -3.441  -6.187  0.00  0.00    +0.002 C 
ATOM     35  C   UNL     1       4.221  -4.809  -5.788  0.00  0.00    +0.000 C 
ATOM     36  C   UNL     1       5.144  -4.652  -4.577  0.00  0.00    +0.002 C 
ATOM     37  C   UNL     1       4.354  -4.061  -3.408  0.00  0.00    +0.022 C 
ENDBRANCH  30  32
ENDBRANCH  27  28
BRANCH  27  38
ATOM     38  C   UNL     1       0.692  -0.337  -1.529  0.00  0.00    +0.034 C 
BRANCH  38  40
ATOM     39  C   UNL     1       0.590  -2.409  -0.137  0.00  0.00    +0.007 C 
ATOM     40  C   UNL     1       0.308  -1.818  -1.520  0.00  0.00    -0.015 C 
ATOM     41  C   UNL     1      -1.181  -1.960  -1.841  0.00  0.00    +0.007 C 
ENDBRANCH  38  40
ENDBRANCH  27  38
ENDBRANCH  23  27
ENDBRANCH   1  24
TORSDOF 6
