REMARK  Name = ZINC20748516
REMARK  7 active torsions:
REMARK  status: ('A' for Active; 'I' for Inactive)
REMARK    1  A    between atoms: C_1  and  C_2
REMARK    2  A    between atoms: C_2  and  O_3
REMARK    3  A    between atoms: O_3  and  C_4
REMARK    4  A    between atoms: C_9  and  C_10
REMARK    5  A    between atoms: C_21  and  S_26
REMARK    6  A    between atoms: S_26  and  N_29
REMARK    7  A    between atoms: C_32  and  C_35
REMARK                            x       y       z     vdW  Elec       q    Type
REMARK                         _______ _______ _______ _____ _____    ______ ____
ROOT
ATOM      1  C   UNL     1       0.002  -0.004   0.002  0.00  0.00    +0.108 C 
ATOM      2  C   UNL     1       1.214  -0.391  -0.826  0.00  0.00    +0.029 C 
ATOM      3  C   UNL     1       1.575  -1.882  -0.883  0.00  0.00    +0.033 C 
ATOM      4  C   UNL     1       3.091  -1.824  -1.084  0.00  0.00    -0.030 C 
ATOM      5  C   UNL     1       3.571  -0.688  -0.594  0.00  0.00    -0.023 C 
ATOM      6  C   UNL     1       2.447   0.113  -0.018  0.00  0.00    +0.049 C 
ATOM      7  C   UNL     1       2.422   1.591  -0.024  0.00  0.00    -0.018 A 
ATOM      8  C   UNL     1       3.571   2.351  -0.051  0.00  0.00    +0.034 A 
ATOM      9  C   UNL     1       3.496   3.732  -0.041  0.00  0.00    +0.106 A 
ATOM     10  C   UNL     1       2.262   4.356  -0.003  0.00  0.00    +0.030 A 
ATOM     11  C   UNL     1       1.105   3.604   0.018  0.00  0.00    +0.025 A 
ATOM     12  C   UNL     1       1.170   2.216   0.003  0.00  0.00    +0.031 A 
ATOM     13  N   UNL     1      -0.018   1.475   0.010  0.00  0.00    -0.336 N 
ATOM     14  H   UNL     1      -0.978   2.012   0.022  0.00  0.00    +0.147 HD
ENDROOT
BRANCH   1  20
ATOM     15  C   UNL     1      -0.234  -1.835   1.699  0.00  0.00    +0.125 A 
ATOM     16  C   UNL     1      -0.104  -2.318   2.993  0.00  0.00    +0.046 A 
ATOM     17  C   UNL     1       0.389  -1.497   3.989  0.00  0.00    +0.004 A 
ATOM     18  C   UNL     1       0.755  -0.196   3.697  0.00  0.00    +0.001 A 
ATOM     19  C   UNL     1       0.629   0.286   2.407  0.00  0.00    +0.009 A 
ATOM     20  C   UNL     1       0.138  -0.531   1.407  0.00  0.00    +0.015 A 
BRANCH  15  21
ATOM     21  O   UNL     1      -0.723  -2.639   0.719  0.00  0.00    -0.492 OA
BRANCH  21  23
ATOM     22  C   UNL     1      -1.612  -4.717  -0.135  0.00  0.00    +0.048 C 
ATOM     23  C   UNL     1      -1.087  -3.969   1.092  0.00  0.00    +0.225 C 
ENDBRANCH  21  23
ENDBRANCH  15  21
ENDBRANCH   1  20
BRANCH   9  24
ATOM     24  S   UNL     1       4.970   4.695  -0.076  0.00  0.00    +0.061 S 
ATOM     25  O   UNL     1       4.645   5.957   0.492  0.00  0.00    -0.153 OA
ATOM     26  O   UNL     1       6.006   3.871   0.442  0.00  0.00    -0.153 OA
BRANCH  24  27
ATOM     27  N   UNL     1       5.337   4.972  -1.667  0.00  0.00    -0.177 NA
ATOM     28  C   UNL     1       6.199   4.042  -2.409  0.00  0.00    +0.110 C 
ATOM     29  C   UNL     1       5.463   3.609  -3.687  0.00  0.00    +0.020 C 
ATOM     30  C   UNL     1       5.053   4.852  -4.478  0.00  0.00    -0.012 C 
ATOM     31  C   UNL     1       4.097   5.701  -3.637  0.00  0.00    +0.020 C 
ATOM     32  C   UNL     1       4.812   6.155  -2.361  0.00  0.00    +0.110 C 
ATOM     33  C   UNL     1       4.353   4.425  -5.770  0.00  0.00    +0.007 C 
ENDBRANCH  24  27
ENDBRANCH   9  24
TORSDOF 5
