REMARK  Name = ZINC24719161
REMARK  9 active torsions:
REMARK  status: ('A' for Active; 'I' for Inactive)
REMARK    1  A    between atoms: C_1  and  C_2
REMARK    2  A    between atoms: C_2  and  C_3
REMARK    3  A    between atoms: C_6  and  C_9
REMARK    4  A    between atoms: C_9  and  C_11
REMARK    5  A    between atoms: C_9  and  N_12
REMARK    6  A    between atoms: C_13  and  C_15
REMARK    7  A    between atoms: C_15  and  N_16
REMARK    8  A    between atoms: C_19  and  C_23
REMARK    9  A    between atoms: C_19  and  C_24
REMARK                            x       y       z     vdW  Elec       q    Type
REMARK                         _______ _______ _______ _____ _____    ______ ____
ROOT
ATOM      1  N   UNL     1      -5.338   6.821   6.075  0.00  0.00    -0.215 N 
ATOM      2  C   UNL     1      -6.615   6.847   5.643  0.00  0.00    +0.251 C 
ATOM      3  O   UNL     1      -7.017   6.577   4.532  0.00  0.00    -0.272 OA
ATOM      4  C   UNL     1      -7.443   7.282   6.835  0.00  0.00    +0.135 C 
ATOM      5  N   UNL     1      -6.442   7.476   7.899  0.00  0.00    -0.281 N 
ATOM      6  C   UNL     1      -5.245   7.183   7.360  0.00  0.00    +0.310 C 
ATOM      7  O   UNL     1      -4.196   7.240   7.971  0.00  0.00    -0.252 OA
ATOM      8  C   UNL     1      -8.170   8.595   6.535  0.00  0.00    +0.047 C 
ATOM      9  H   UNL     1      -6.760   7.803   8.900  0.00  0.00    +0.152 HD
ENDROOT
BRANCH   4  10
ATOM     10  C   UNL     1      -8.427   6.209   7.223  0.00  0.00    -0.012 A 
ATOM     11  C   UNL     1      -9.003   5.416   6.247  0.00  0.00    +0.010 A 
ATOM     12  C   UNL     1      -9.906   4.431   6.599  0.00  0.00    +0.050 A 
ATOM     13  C   UNL     1     -10.239   4.237   7.931  0.00  0.00    +0.162 A 
ATOM     14  C   UNL     1      -9.659   5.033   8.912  0.00  0.00    +0.162 A 
ATOM     15  C   UNL     1      -8.749   6.016   8.553  0.00  0.00    +0.055 A 
ATOM     16  O   UNL     1      -9.969   4.856  10.225  0.00  0.00    -0.485 OA
ATOM     17  C   UNL     1     -11.159   4.115  10.511  0.00  0.00    +0.270 C 
ATOM     18  C   UNL     1     -11.165   2.857   9.632  0.00  0.00    +0.270 C 
ATOM     19  O   UNL     1     -11.137   3.268   8.261  0.00  0.00    -0.485 OA
ENDBRANCH   4  10
BRANCH   1  20
ATOM     20  C   UNL     1      -4.194   6.448   5.240  0.00  0.00    +0.213 C 
BRANCH  20  22
ATOM     21  N   UNL     1      -2.948   4.392   4.659  0.00  0.00    -0.307 N 
ATOM     22  C   UNL     1      -3.956   4.964   5.347  0.00  0.00    +0.231 C 
ATOM     23  O   UNL     1      -4.673   4.284   6.051  0.00  0.00    -0.274 OA
ATOM     24  H   UNL     1      -2.298   5.008   4.021  0.00  0.00    +0.149 HD
BRANCH  21  25
ATOM     25  C   UNL     1      -2.717   2.949   4.763  0.00  0.00    +0.100 C 
ATOM     26  C   UNL     1      -1.851   2.658   5.990  0.00  0.00    +0.033 C 
BRANCH  25  30
ATOM     27  C   UNL     1      -0.718   1.572   1.248  0.00  0.00    -0.048 A 
ATOM     28  C   UNL     1      -0.360   2.779   1.819  0.00  0.00    +0.004 A 
ATOM     29  C   UNL     1      -1.010   3.227   2.953  0.00  0.00    +0.006 A 
ATOM     30  C   UNL     1      -2.012   2.463   3.523  0.00  0.00    -0.027 A 
ATOM     31  C   UNL     1      -2.366   1.254   2.955  0.00  0.00    +0.006 A 
ATOM     32  C   UNL     1      -1.719   0.808   1.818  0.00  0.00    +0.004 A 
BRANCH  27  34
ATOM     33  C   UNL     1      -0.753   1.593  -1.232  0.00  0.00    +0.009 C 
ATOM     34  C   UNL     1      -0.013   1.086   0.008  0.00  0.00    +0.032 C 
ENDBRANCH  27  34
ENDBRANCH  25  30
ENDBRANCH  21  25
ENDBRANCH  20  22
ENDBRANCH   1  20
TORSDOF 6
