REMARK  Name = ZINC08713343
REMARK  7 active torsions:
REMARK  status: ('A' for Active; 'I' for Inactive)
REMARK    1  A    between atoms: C_1  and  C_2
REMARK    2  A    between atoms: C_9  and  C_14
REMARK    3  A    between atoms: C_14  and  O_16
REMARK    4  A    between atoms: O_16  and  C_17
REMARK    5  A    between atoms: C_17  and  C_19
REMARK    6  A    between atoms: C_17  and  C_20
REMARK    7  A    between atoms: N_22  and  C_23
REMARK                            x       y       z     vdW  Elec       q    Type
REMARK                         _______ _______ _______ _____ _____    ______ ____
ROOT
ATOM      1  O   UNL     1      -4.385   6.920   1.004  0.00  0.00    -0.449 OA
ENDROOT
BRANCH   1   2
ATOM      2  C   UNL     1      -4.159   5.592   0.972  0.00  0.00    +0.340 C 
ATOM      3  O   UNL     1      -5.020   4.820   1.345  0.00  0.00    -0.245 OA
BRANCH   2  11
ATOM      4  C   UNL     1       1.697   2.276   1.373  0.00  0.00    +0.029 C 
ATOM      5  C   UNL     1       1.288   1.946  -0.064  0.00  0.00    +0.134 C 
ATOM      6  C   UNL     1      -0.029   1.220  -0.060  0.00  0.00    +0.230 C 
ATOM      7  O   UNL     1      -0.015   0.008  -0.076  0.00  0.00    -0.274 OA
ATOM      8  N   UNL     1      -1.209   1.834  -0.045  0.00  0.00    -0.284 N 
ATOM      9  C   UNL     1      -1.423   3.210  -0.009  0.00  0.00    +0.048 A 
ATOM     10  C   UNL     1      -2.635   3.699   0.450  0.00  0.00    +0.039 A 
ATOM     11  C   UNL     1      -2.868   5.077   0.483  0.00  0.00    +0.061 A 
ATOM     12  C   UNL     1      -1.878   5.967   0.054  0.00  0.00    +0.016 A 
ATOM     13  C   UNL     1      -0.672   5.481  -0.401  0.00  0.00    +0.017 A 
ATOM     14  C   UNL     1      -0.441   4.112  -0.433  0.00  0.00    +0.030 A 
ATOM     15  S   UNL     1       1.105   3.487  -1.013  0.00  0.00    -0.111 S 
ATOM     16  H   UNL     1      -1.997   1.269  -0.055  0.00  0.00    +0.155 HD
ENDBRANCH   2  11
ENDBRANCH   1   2
BRANCH   1  17
ATOM     17  C   UNL     1      -5.679   7.357   1.497  0.00  0.00    +0.259 C 
ATOM     18  C   UNL     1      -6.664   7.452   0.330  0.00  0.00    +0.062 C 
BRANCH  17  19
ATOM     19  C   UNL     1      -5.539   8.709   2.148  0.00  0.00    +0.258 C 
ATOM     20  O   UNL     1      -4.476   9.291   2.113  0.00  0.00    -0.271 OA
ATOM     21  N   UNL     1      -6.595   9.270   2.770  0.00  0.00    -0.281 N 
ATOM     22  H   UNL     1      -7.461   8.835   2.742  0.00  0.00    +0.155 HD
BRANCH  21  23
ATOM     23  C   UNL     1      -6.441  10.482   3.455  0.00  0.00    +0.053 A 
ATOM     24  C   UNL     1      -5.562  11.444   2.976  0.00  0.00    +0.046 A 
ATOM     25  C   UNL     1      -5.413  12.639   3.654  0.00  0.00    +0.061 A 
ATOM     26  C   UNL     1      -6.139  12.877   4.809  0.00  0.00    +0.061 A 
ATOM     27  C   UNL     1      -7.015  11.920   5.288  0.00  0.00    +0.043 A 
ATOM     28  C   UNL     1      -7.172  10.725   4.611  0.00  0.00    +0.064 A 
ATOM     29 CL   UNL     1      -8.277   9.526   5.209  0.00  0.00    -0.082 Cl
ATOM     30 CL   UNL     1      -5.949  14.380   5.658  0.00  0.00    -0.082 Cl
ATOM     31 CL   UNL     1      -4.314  13.844   3.057  0.00  0.00    -0.082 Cl
ENDBRANCH  21  23
ENDBRANCH  17  19
ENDBRANCH   1  17
TORSDOF 5
