REMARK  Name = ZINC12201883
REMARK  17 active torsions:
REMARK  status: ('A' for Active; 'I' for Inactive)
REMARK    1  A    between atoms: C_1  and  C_2
REMARK    2  A    between atoms: C_2  and  C_3
REMARK    3  A    between atoms: C_3  and  C_4
REMARK    4  A    between atoms: C_4  and  N_5
REMARK    5  A    between atoms: C_6  and  C_19
REMARK    6  A    between atoms: C_9  and  S_10
REMARK    7  A    between atoms: S_10  and  C_13
REMARK    8  A    between atoms: C_13  and  C_14
REMARK    9  A    between atoms: C_14  and  C_15
REMARK   10  A    between atoms: C_15  and  C_16
REMARK   11  A    between atoms: C_16  and  C_17
REMARK   12  A    between atoms: C_16  and  C_18
REMARK   13  A    between atoms: C_19  and  N_60
REMARK   14  A    between atoms: C_20  and  N_60
REMARK   15  A    between atoms: C_21  and  C_22
REMARK   16  A    between atoms: C_21  and  N_60
REMARK   17  A    between atoms: C_22  and  C_24
REMARK                            x       y       z     vdW  Elec       q    Type
REMARK                         _______ _______ _______ _____ _____    ______ ____
ROOT
ATOM      1  N   UNL     1       1.385   2.027   0.187  0.00  0.00    -0.315 N 
ATOM      2  C   UNL     1       0.141   1.457   0.142  0.00  0.00    +0.023 A 
ATOM      3  C   UNL     1       0.319   0.158  -0.165  0.00  0.00    +0.133 A 
ATOM      4  N   UNL     1       1.635  -0.060  -0.303  0.00  0.00    -0.220 NA
ATOM      5  C   UNL     1       2.280   1.055  -0.094  0.00  0.00    +0.251 A 
ENDROOT
BRANCH   5   6
ATOM      6  S   UNL     1       4.029   1.259  -0.167  0.00  0.00    +0.030 S 
ATOM      7  O   UNL     1       4.300   2.364   0.684  0.00  0.00    -0.166 OA
ATOM      8  O   UNL     1       4.556  -0.028   0.126  0.00  0.00    -0.166 OA
BRANCH   6   9
ATOM      9  C   UNL     1       4.375   1.699  -1.892  0.00  0.00    +0.175 C 
BRANCH   9  10
ATOM     10  C   UNL     1       5.881   1.903  -2.074  0.00  0.00    +0.023 C 
BRANCH  10  11
ATOM     11  C   UNL     1       6.173   2.274  -3.529  0.00  0.00    +0.004 C 
BRANCH  11  12
ATOM     12  C   UNL     1       7.679   2.477  -3.710  0.00  0.00    -0.017 C 
ATOM     13  C   UNL     1       7.985   2.725  -5.189  0.00  0.00    +0.007 C 
ATOM     14  C   UNL     1       8.134   3.683  -2.886  0.00  0.00    +0.007 C 
ENDBRANCH  11  12
ENDBRANCH  10  11
ENDBRANCH   9  10
ENDBRANCH   6   9
ENDBRANCH   5   6
BRANCH   1  15
ATOM     15  C   UNL     1       1.689   3.429   0.483  0.00  0.00    +0.125 C 
BRANCH  15  16
ATOM     16  C   UNL     1       1.812   3.615   1.997  0.00  0.00    +0.021 C 
BRANCH  16  18
ATOM     17  C   UNL     1       2.176   5.279   3.824  0.00  0.00    +0.004 C 
ATOM     18  C   UNL     1       2.052   5.093   2.311  0.00  0.00    -0.002 C 
ENDBRANCH  16  18
ENDBRANCH  15  16
ENDBRANCH   1  15
BRANCH   2  19
ATOM     19  C   UNL     1      -1.174   2.152   0.382  0.00  0.00    -0.023 C 
BRANCH  19  21
ATOM     20  C   UNL     1      -1.973   1.809  -1.878  0.00  0.00    -0.095 C 
ATOM     21  N   UNL     1      -1.596   2.820  -0.867  0.00  0.00    +0.384 N 
ATOM     22  H   UNL     1      -0.812   3.376  -1.229  0.00  0.00    -0.081 HD
BRANCH  21  23
ATOM     23  C   UNL     1      -2.739   3.717  -0.600  0.00  0.00    -0.048 C 
BRANCH  23  24
ATOM     24  C   UNL     1      -3.006   4.545  -1.831  0.00  0.00    -0.096 C 
ATOM     25  C   UNL     1      -3.919   4.166  -2.689  0.00  0.00    +0.005 C 
ATOM     26  C   UNL     1      -2.221   5.809  -2.074  0.00  0.00    +0.036 C 
ENDBRANCH  23  24
ENDBRANCH  21  23
ENDBRANCH  19  21
ENDBRANCH   2  19
TORSDOF 12
