REMARK  Name = ZINC12638298
REMARK  8 active torsions:
REMARK  status: ('A' for Active; 'I' for Inactive)
REMARK    1  A    between atoms: C_1  and  C_2
REMARK    2  A    between atoms: C_9  and  C_14
REMARK    3  A    between atoms: C_14  and  C_16
REMARK    4  A    between atoms: C_14  and  N_69
REMARK    5  A    between atoms: N_20  and  C_21
REMARK    6  A    between atoms: C_21  and  C_22
REMARK    7  A    between atoms: C_22  and  C_23
REMARK    8  A    between atoms: N_31  and  C_34
REMARK                            x       y       z     vdW  Elec       q    Type
REMARK                         _______ _______ _______ _____ _____    ______ ____
ROOT
ATOM      1  C   UNL     1       1.669   7.546  -1.035  0.00  0.00    +0.039 C 
ENDROOT
BRANCH   1  10
ATOM      2  C   UNL     1      -4.304  11.584  -2.945  0.00  0.00    +0.044 C 
ATOM      3  C   UNL     1      -3.184  10.642  -3.305  0.00  0.00    -0.050 A 
ATOM      4  C   UNL     1      -3.050  10.202  -4.616  0.00  0.00    +0.005 A 
ATOM      5  C   UNL     1      -2.035   9.340  -4.968  0.00  0.00    +0.026 A 
ATOM      6  C   UNL     1      -1.133   8.905  -4.002  0.00  0.00    +0.049 A 
ATOM      7  C   UNL     1      -1.272   9.353  -2.675  0.00  0.00    -0.001 A 
ATOM      8  C   UNL     1      -2.311  10.228  -2.341  0.00  0.00    +0.013 A 
ATOM      9  C   UNL     1      -0.317   8.890  -1.666  0.00  0.00    +0.017 A 
ATOM     10  C   UNL     1       0.670   8.042  -2.049  0.00  0.00    +0.011 A 
ATOM     11  C   UNL     1       0.768   7.628  -3.394  0.00  0.00    +0.251 A 
ATOM     12  O   UNL     1       1.666   6.869  -3.718  0.00  0.00    -0.268 OA
ATOM     13  N   UNL     1      -0.106   8.043  -4.327  0.00  0.00    -0.322 N 
ATOM     14  H   UNL     1      -0.012   7.735  -5.242  0.00  0.00    +0.169 HD
ENDBRANCH   1  10
BRANCH   1  20
ATOM     15  C   UNL     1       2.466   5.554   0.088  0.00  0.00    -0.058 C 
ATOM     16  C   UNL     1       2.526   4.028  -0.001  0.00  0.00    +0.086 C 
ATOM     17  N   UNL     1       1.161   3.485   0.009  0.00  0.00    -0.333 N 
ATOM     18  C   UNL     1       0.381   4.008  -1.121  0.00  0.00    +0.086 C 
ATOM     19  C   UNL     1       0.320   5.535  -1.032  0.00  0.00    -0.058 C 
ATOM     20  N   UNL     1       1.698   6.069  -1.066  0.00  0.00    +0.391 N 
ATOM     21  H   UNL     1       2.154   5.762  -1.933  0.00  0.00    -0.080 HD
BRANCH  17  22
ATOM     22  C   UNL     1       1.177   2.087   0.002  0.00  0.00    +0.030 A 
ATOM     23  C   UNL     1      -0.017   1.377   0.010  0.00  0.00    +0.026 A 
ATOM     24  C   UNL     1       0.002  -0.004   0.002  0.00  0.00    +0.040 A 
ATOM     25  C   UNL     1       1.210  -0.681  -0.013  0.00  0.00    +0.124 A 
ATOM     26  C   UNL     1       2.401   0.025  -0.021  0.00  0.00    +0.040 A 
ATOM     27  C   UNL     1       2.387   1.406  -0.013  0.00  0.00    +0.026 A 
ATOM     28  F   UNL     1       1.226  -2.032  -0.020  0.00  0.00    -0.205 F 
ENDBRANCH  17  22
ENDBRANCH   1  20
BRANCH   1  29
ATOM     29  C   UNL     1       3.039   8.067  -1.384  0.00  0.00    +0.142 A 
ATOM     30  N   UNL     1       3.815   7.641  -2.351  0.00  0.00    -0.115 NA
ATOM     31  N   UNL     1       4.900   8.336  -2.326  0.00  0.00    -0.023 NA
ATOM     32  N   UNL     1       4.836   9.194  -1.368  0.00  0.00    -0.044 NA
ATOM     33  N   UNL     1       3.702   9.063  -0.767  0.00  0.00    -0.230 N 
BRANCH  33  34
ATOM     34  C   UNL     1       3.226   9.848   0.374  0.00  0.00    +0.152 C 
BRANCH  34  35
ATOM     35  C   UNL     1       3.653   9.167   1.676  0.00  0.00    +0.058 C 
BRANCH  35  36
ATOM     36  C   UNL     1       3.164   9.975   2.850  0.00  0.00    -0.046 A 
ATOM     37  C   UNL     1       3.961  10.970   3.385  0.00  0.00    +0.004 A 
ATOM     38  C   UNL     1       3.510  11.714   4.459  0.00  0.00    +0.000 A 
ATOM     39  C   UNL     1       2.266  11.457   5.004  0.00  0.00    +0.000 A 
ATOM     40  C   UNL     1       1.471  10.460   4.472  0.00  0.00    +0.000 A 
ATOM     41  C   UNL     1       1.920   9.719   3.395  0.00  0.00    +0.004 A 
ENDBRANCH  35  36
ENDBRANCH  34  35
ENDBRANCH  33  34
ENDBRANCH   1  29
TORSDOF 7
