REMARK  Name = ZINC23991389
REMARK  7 active torsions:
REMARK  status: ('A' for Active; 'I' for Inactive)
REMARK    1  A    between atoms: C_1  and  C_2
REMARK    2  A    between atoms: C_2  and  C_3
REMARK    3  A    between atoms: N_9  and  C_10
REMARK    4  A    between atoms: C_10  and  C_11
REMARK    5  A    between atoms: C_17  and  C_23
REMARK    6  A    between atoms: C_18  and  C_22
REMARK    7  A    between atoms: C_26  and  C_29
REMARK                            x       y       z     vdW  Elec       q    Type
REMARK                         _______ _______ _______ _____ _____    ______ ____
ROOT
ATOM      1  C   UNL     1      -3.978   0.775   0.128  0.00  0.00    +0.094 A 
ATOM      2  N   UNL     1      -4.711   0.823   1.269  0.00  0.00    -0.312 N 
ATOM      3  H   UNL     1      -4.287   1.278   2.177  0.00  0.00    +0.170 HD
ATOM      4  C   UNL     1      -5.960   0.323   1.320  0.00  0.00    +0.260 A 
ATOM      5  O   UNL     1      -6.607   0.379   2.352  0.00  0.00    -0.267 OA
ATOM      6  C   UNL     1      -6.514  -0.280   0.146  0.00  0.00    +0.080 A 
ATOM      7  C   UNL     1      -7.824  -0.890  -0.047  0.00  0.00    +0.007 A 
ATOM      8  C   UNL     1      -8.130  -1.404  -1.262  0.00  0.00    -0.003 A 
ATOM      9  S   UNL     1      -6.662  -1.094  -2.224  0.00  0.00    -0.073 S 
ATOM     10  C   UNL     1      -5.680  -0.290  -0.984  0.00  0.00    +0.116 A 
ATOM     11  N   UNL     1      -4.456   0.230  -0.959  0.00  0.00    -0.229 NA
ATOM     12  C   UNL     1      -9.407  -2.077  -1.697  0.00  0.00    +0.052 C 
ENDROOT
BRANCH   7  13
ATOM     13  C   UNL     1      -8.802  -0.947   1.065  0.00  0.00    -0.016 A 
ATOM     14  C   UNL     1      -8.528  -1.709   2.200  0.00  0.00    +0.009 A 
ATOM     15  C   UNL     1      -9.440  -1.753   3.235  0.00  0.00    +0.004 A 
ATOM     16  C   UNL     1     -10.629  -1.052   3.143  0.00  0.00    -0.050 A 
ATOM     17  C   UNL     1     -10.909  -0.298   2.017  0.00  0.00    +0.004 A 
ATOM     18  C   UNL     1     -10.002  -0.242   0.979  0.00  0.00    +0.009 A 
ATOM     19  C   UNL     1     -11.624  -1.109   4.274  0.00  0.00    +0.044 C 
ENDBRANCH   7  13
BRANCH   1  20
ATOM     20  C   UNL     1      -2.586   1.353   0.116  0.00  0.00    -0.003 C 
BRANCH  20  26
ATOM     21  C   UNL     1      -2.650   1.743  -2.272  0.00  0.00    -0.068 C 
ATOM     22  C   UNL     1      -1.876   1.541  -3.577  0.00  0.00    -0.015 C 
ATOM     23  C   UNL     1      -1.759   0.043  -3.869  0.00  0.00    -0.003 C 
ATOM     24  C   UNL     1      -1.067  -0.646  -2.689  0.00  0.00    -0.019 C 
ATOM     25  C   UNL     1      -1.864  -0.381  -1.411  0.00  0.00    -0.078 C 
ATOM     26  N   UNL     1      -1.947   1.066  -1.175  0.00  0.00    +0.386 N 
ATOM     27  H   UNL     1      -0.921   1.459  -1.141  0.00  0.00    -0.081 HD
BRANCH  21  29
ATOM     28  C   UNL     1      -3.562   3.930  -3.066  0.00  0.00    +0.002 C 
ATOM     29  C   UNL     1      -2.752   3.238  -1.966  0.00  0.00    -0.019 C 
ENDBRANCH  21  29
ENDBRANCH  20  26
ENDBRANCH   1  20
TORSDOF 4
