REMARK  Name = ZINC22094228
REMARK  12 active torsions:
REMARK  status: ('A' for Active; 'I' for Inactive)
REMARK    1  A    between atoms: C_1  and  C_2
REMARK    2  A    between atoms: C_2  and  C_3
REMARK    3  A    between atoms: C_4  and  C_35
REMARK    4  A    between atoms: C_5  and  C_34
REMARK    5  A    between atoms: C_6  and  C_9
REMARK    6  A    between atoms: C_9  and  O_11
REMARK    7  A    between atoms: O_11  and  C_12
REMARK    8  A    between atoms: C_12  and  C_14
REMARK    9  A    between atoms: C_12  and  C_15
REMARK   10  A    between atoms: N_17  and  C_18
REMARK   11  A    between atoms: C_35  and  O_37
REMARK   12  A    between atoms: O_37  and  C_38
REMARK                            x       y       z     vdW  Elec       q    Type
REMARK                         _______ _______ _______ _____ _____    ______ ____
ROOT
ATOM      1  C   UNL     1       1.173  -0.661  -0.114  0.00  0.00    +0.258 C 
ATOM      2  O   UNL     1       2.217  -0.044  -0.121  0.00  0.00    -0.271 OA
ATOM      3  N   UNL     1       0.002  -0.004   0.002  0.00  0.00    -0.282 N 
ATOM      4  H   UNL     1      -0.939  -0.567   0.085  0.00  0.00    +0.155 HD
ENDROOT
BRANCH   3   5
ATOM      5  C   UNL     1      -0.016   1.387   0.018  0.00  0.00    +0.045 A 
ATOM      6  C   UNL     1       1.022   2.095   0.621  0.00  0.00    +0.024 A 
ATOM      7  C   UNL     1       1.008   3.474   0.638  0.00  0.00    +0.003 A 
ATOM      8  C   UNL     1      -0.036   4.176   0.056  0.00  0.00    +0.012 A 
ATOM      9  C   UNL     1      -1.082   3.491  -0.550  0.00  0.00    +0.035 A 
ATOM     10  C   UNL     1      -1.072   2.083  -0.577  0.00  0.00    +0.054 A 
ATOM     11  C   UNL     1      -2.180   1.357  -1.226  0.00  0.00    +0.196 C 
ATOM     12  O   UNL     1      -2.075   0.172  -1.477  0.00  0.00    -0.287 OA
ATOM     13  C   UNL     1      -3.420   2.087  -1.570  0.00  0.00    +0.033 A 
ATOM     14  C   UNL     1      -4.576   1.395  -1.915  0.00  0.00    +0.012 A 
ATOM     15  C   UNL     1      -5.728   2.095  -2.232  0.00  0.00    +0.001 A 
ATOM     16  C   UNL     1      -5.737   3.478  -2.210  0.00  0.00    +0.001 A 
ATOM     17  C   UNL     1      -4.594   4.181  -1.870  0.00  0.00    +0.012 A 
ATOM     18  C   UNL     1      -3.429   3.494  -1.548  0.00  0.00    +0.033 A 
ATOM     19  C   UNL     1      -2.204   4.228  -1.172  0.00  0.00    +0.195 C 
ATOM     20  O   UNL     1      -2.114   5.421  -1.384  0.00  0.00    -0.287 OA
ENDBRANCH   3   5
BRANCH   1  21
ATOM     21  C   UNL     1       1.185  -2.163  -0.236  0.00  0.00    +0.259 C 
ATOM     22  C   UNL     1       0.509  -2.574  -1.546  0.00  0.00    +0.062 C 
BRANCH  21  23
ATOM     23  O   UNL     1       2.557  -2.639  -0.229  0.00  0.00    -0.448 OA
BRANCH  23  24
ATOM     24  C   UNL     1       2.776  -3.868   0.282  0.00  0.00    +0.357 C 
ATOM     25  O   UNL     1       1.846  -4.524   0.709  0.00  0.00    -0.243 OA
BRANCH  24  29
ATOM     26  C   UNL     1       6.335  -4.576   0.070  0.00  0.00    +0.031 A 
ATOM     27  C   UNL     1       5.894  -5.750   0.654  0.00  0.00    +0.083 A 
ATOM     28  C   UNL     1       4.495  -5.634   0.814  0.00  0.00    -0.005 A 
ATOM     29  C   UNL     1       4.137  -4.413   0.321  0.00  0.00    +0.128 A 
ATOM     30  N   UNL     1       5.275  -3.777  -0.127  0.00  0.00    -0.352 N 
ATOM     31  H   UNL     1       5.411  -2.786  -0.585  0.00  0.00    +0.166 HD
ATOM     32  C   UNL     1       3.572  -6.664   1.413  0.00  0.00    +0.047 C 
BRANCH  26  34
ATOM     33  C   UNL     1       8.089  -4.828  -1.664  0.00  0.00    +0.010 C 
ATOM     34  C   UNL     1       7.762  -4.250  -0.285  0.00  0.00    +0.050 C 
ENDBRANCH  26  34
BRANCH  27  35
ATOM     35  C   UNL     1       6.726  -6.902   1.040  0.00  0.00    +0.341 C 
ATOM     36  O   UNL     1       7.210  -6.955   2.154  0.00  0.00    -0.245 OA
BRANCH  35  37
ATOM     37  O   UNL     1       6.951  -7.896   0.159  0.00  0.00    -0.464 OA
ATOM     38  C   UNL     1       7.781  -9.000   0.609  0.00  0.00    +0.280 C 
ENDBRANCH  35  37
ENDBRANCH  27  35
ENDBRANCH  24  29
ENDBRANCH  23  24
ENDBRANCH  21  23
ENDBRANCH   1  21
TORSDOF 8
