REMARK  Name = ZINC31057668
REMARK  10 active torsions:
REMARK  status: ('A' for Active; 'I' for Inactive)
REMARK    1  A    between atoms: C_1  and  C_2
REMARK    2  A    between atoms: C_2  and  C_3
REMARK    3  A    between atoms: C_3  and  C_5
REMARK    4  A    between atoms: C_3  and  C_12
REMARK    5  A    between atoms: C_5  and  C_6
REMARK    6  A    between atoms: C_12  and  N_13
REMARK    7  A    between atoms: C_14  and  C_16
REMARK    8  A    between atoms: N_21  and  C_23
REMARK    9  A    between atoms: C_23  and  C_24
REMARK   10  A    between atoms: C_26  and  C_29
REMARK                            x       y       z     vdW  Elec       q    Type
REMARK                         _______ _______ _______ _____ _____    ______ ____
ROOT
ATOM      1  C   UNL     1       0.552   4.033   0.424  0.00  0.00    +0.058 C 
ATOM      2  C   UNL     1      -0.382   4.837  -0.485  0.00  0.00    +0.009 C 
ATOM      3  C   UNL     1      -1.828   4.399  -0.234  0.00  0.00    -0.018 C 
ATOM      4  C   UNL     1      -1.951   2.895  -0.487  0.00  0.00    -0.078 C 
ATOM      5  N   UNL     1      -1.039   2.171   0.406  0.00  0.00    +0.386 N 
ATOM      6  C   UNL     1       0.359   2.540   0.151  0.00  0.00    -0.065 C 
ATOM      7  H   UNL     1      -1.279   2.462   1.440  0.00  0.00    -0.081 HD
ENDROOT
BRANCH   1   9
ATOM      8  N   UNL     1       2.385   5.691   0.312  0.00  0.00    -0.315 N 
ATOM      9  C   UNL     1       1.982   4.416   0.141  0.00  0.00    +0.214 C 
ATOM     10  O   UNL     1       2.770   3.577  -0.241  0.00  0.00    -0.276 OA
ATOM     11  H   UNL     1       1.670   6.452   0.659  0.00  0.00    +0.149 HD
BRANCH   8  12
ATOM     12  C   UNL     1       3.775   6.063   0.037  0.00  0.00    +0.108 C 
BRANCH  12  13
ATOM     13  C   UNL     1       3.966   7.556   0.310  0.00  0.00    +0.010 C 
BRANCH  13  15
ATOM     14  C   UNL     1       3.819   9.341   2.052  0.00  0.00    +0.004 C 
ATOM     15  C   UNL     1       3.760   7.833   1.800  0.00  0.00    +0.002 C 
ENDBRANCH  13  15
BRANCH  13  16
ATOM     16  C   UNL     1       5.382   7.971  -0.095  0.00  0.00    +0.040 C 
BRANCH  16  17
ATOM     17  C   UNL     1       5.545   7.812  -1.585  0.00  0.00    -0.047 A 
ATOM     18  C   UNL     1       6.133   6.670  -2.098  0.00  0.00    +0.003 A 
ATOM     19  C   UNL     1       6.279   6.523  -3.465  0.00  0.00    +0.000 A 
ATOM     20  C   UNL     1       5.845   7.520  -4.318  0.00  0.00    +0.000 A 
ATOM     21  C   UNL     1       5.263   8.664  -3.805  0.00  0.00    +0.000 A 
ATOM     22  C   UNL     1       5.113   8.810  -2.438  0.00  0.00    +0.003 A 
ENDBRANCH  16  17
ENDBRANCH  13  16
ENDBRANCH  12  13
ENDBRANCH   8  12
ENDBRANCH   1   9
BRANCH   5  23
ATOM     23  C   UNL     1      -1.230   0.719   0.289  0.00  0.00    +0.022 C 
BRANCH  23  24
ATOM     24  C   UNL     1      -2.602   0.350   0.793  0.00  0.00    +0.211 A 
ATOM     25  N   UNL     1      -3.701   0.295   0.083  0.00  0.00    -0.192 NA
ATOM     26  C   UNL     1      -4.673  -0.079   0.948  0.00  0.00    +0.209 A 
ATOM     27  N   UNL     1      -4.111  -0.219   2.123  0.00  0.00    -0.056 NA
ATOM     28  O   UNL     1      -2.925   0.024   2.048  0.00  0.00    -0.340 OA
BRANCH  26  29
ATOM     29  C   UNL     1      -6.100  -0.285   0.628  0.00  0.00    +0.060 A 
ATOM     30  C   UNL     1      -7.125  -0.661   1.456  0.00  0.00    +0.019 A 
ATOM     31  C   UNL     1      -8.390  -0.788   0.928  0.00  0.00    +0.008 A 
ATOM     32  C   UNL     1      -8.582  -0.547  -0.395  0.00  0.00    +0.046 A 
ATOM     33  S   UNL     1      -6.938  -0.117  -0.940  0.00  0.00    -0.093 S 
ENDBRANCH  26  29
ENDBRANCH  23  24
ENDBRANCH   5  23
TORSDOF 9
