REMARK  Name = ZINC41584974
REMARK  10 active torsions:
REMARK  status: ('A' for Active; 'I' for Inactive)
REMARK    1  A    between atoms: C_1  and  C_2
REMARK    2  A    between atoms: C_3  and  O_28
REMARK    3  A    between atoms: C_9  and  O_27
REMARK    4  A    between atoms: C_10  and  C_13
REMARK    5  A    between atoms: C_13  and  N_14
REMARK    6  A    between atoms: N_17  and  C_20
REMARK    7  A    between atoms: C_20  and  C_21
REMARK    8  A    between atoms: O_28  and  C_29
REMARK    9  A    between atoms: C_32  and  O_35
REMARK   10  A    between atoms: O_35  and  C_36
REMARK                            x       y       z     vdW  Elec       q    Type
REMARK                         _______ _______ _______ _____ _____    ______ ____
ROOT
ATOM      1  C   UNL     1      -0.020   1.482  -0.113  0.00  0.00    +0.090 C 
ATOM      2  C   UNL     1      -0.005  -0.024  -0.060  0.00  0.00    +0.148 A 
ATOM      3  C   UNL     1      -1.173  -0.676   0.104  0.00  0.00    +0.213 A 
ATOM      4  C   UNL     1      -1.182  -2.099   0.156  0.00  0.00    +0.235 A 
ATOM      5  O   UNL     1      -2.220  -2.723   0.303  0.00  0.00    -0.283 OA
ATOM      6  C   UNL     1       0.114  -2.786   0.025  0.00  0.00    +0.068 A 
ATOM      7  C   UNL     1       0.207  -4.178   0.064  0.00  0.00    +0.019 A 
ATOM      8  C   UNL     1       1.427  -4.779  -0.061  0.00  0.00    +0.046 A 
ATOM      9  C   UNL     1       2.577  -4.011  -0.227  0.00  0.00    +0.122 A 
ATOM     10  C   UNL     1       2.502  -2.629  -0.268  0.00  0.00    +0.020 A 
ATOM     11  C   UNL     1       1.270  -2.003  -0.142  0.00  0.00    +0.144 A 
ATOM     12  O   UNL     1       1.168  -0.659  -0.184  0.00  0.00    -0.456 OA
ENDROOT
BRANCH   9  13
ATOM     13  O   UNL     1       3.783  -4.623  -0.350  0.00  0.00    -0.506 OA
ATOM     14  H   UNL     1       4.027  -4.832  -1.262  0.00  0.00    +0.292 HD
ENDBRANCH   9  13
BRANCH  10  15
ATOM     15  C   UNL     1       3.753  -1.809  -0.448  0.00  0.00    -0.035 C 
BRANCH  15  16
ATOM     16  N   UNL     1       3.995  -1.591  -1.880  0.00  0.00    +0.384 N 
ATOM     17  C   UNL     1       4.276  -2.879  -2.530  0.00  0.00    -0.063 C 
ATOM     18  C   UNL     1       4.509  -2.655  -4.026  0.00  0.00    +0.066 C 
ATOM     19  N   UNL     1       5.641  -1.736  -4.210  0.00  0.00    -0.302 NA
ATOM     20  C   UNL     1       5.385  -0.452  -3.544  0.00  0.00    +0.066 C 
ATOM     21  C   UNL     1       5.144  -0.693  -2.052  0.00  0.00    -0.063 C 
ATOM     22  H   UNL     1       3.177  -1.175  -2.300  0.00  0.00    -0.081 HD
BRANCH  19  23
ATOM     23  C   UNL     1       5.933  -1.540  -5.636  0.00  0.00    +0.119 C 
BRANCH  23  24
ATOM     24  C   UNL     1       7.237  -0.799  -5.785  0.00  0.00    -0.033 A 
ATOM     25  C   UNL     1       7.245   0.583  -5.825  0.00  0.00    +0.005 A 
ATOM     26  C   UNL     1       8.441   1.263  -5.962  0.00  0.00    +0.000 A 
ATOM     27  C   UNL     1       9.628   0.561  -6.057  0.00  0.00    +0.000 A 
ATOM     28  C   UNL     1       9.620  -0.821  -6.016  0.00  0.00    +0.000 A 
ATOM     29  C   UNL     1       8.424  -1.501  -5.875  0.00  0.00    +0.005 A 
ENDBRANCH  23  24
ENDBRANCH  19  23
ENDBRANCH  15  16
ENDBRANCH  10  15
BRANCH   3  30
ATOM     30  O   UNL     1      -2.337   0.021   0.219  0.00  0.00    -0.449 OA
BRANCH  30  31
ATOM     31  C   UNL     1      -2.987  -0.016   1.412  0.00  0.00    +0.129 A 
ATOM     32  C   UNL     1      -2.405  -0.647   2.501  0.00  0.00    +0.050 A 
ATOM     33  C   UNL     1      -3.066  -0.685   3.713  0.00  0.00    +0.049 A 
ATOM     34  C   UNL     1      -4.313  -0.092   3.841  0.00  0.00    +0.120 A 
ATOM     35  C   UNL     1      -4.896   0.539   2.752  0.00  0.00    +0.049 A 
ATOM     36  C   UNL     1      -4.232   0.583   1.542  0.00  0.00    +0.050 A 
BRANCH  34  37
ATOM     37  O   UNL     1      -4.965  -0.130   5.034  0.00  0.00    -0.495 OA
ATOM     38  C   UNL     1      -6.245   0.501   5.094  0.00  0.00    +0.277 C 
ENDBRANCH  34  37
ENDBRANCH  30  31
ENDBRANCH   3  30
TORSDOF 8
