REMARK  Name = ZINC09313614
REMARK  12 active torsions:
REMARK  status: ('A' for Active; 'I' for Inactive)
REMARK    1  A    between atoms: C_1  and  O_2
REMARK    2  A    between atoms: O_2  and  C_3
REMARK    3  A    between atoms: C_6  and  C_9
REMARK    4  A    between atoms: C_9  and  C_10
REMARK    5  A    between atoms: C_10  and  C_12
REMARK    6  A    between atoms: C_10  and  N_59
REMARK    7  A    between atoms: C_15  and  O_18
REMARK    8  A    between atoms: O_18  and  C_19
REMARK    9  A    between atoms: C_20  and  C_21
REMARK   10  A    between atoms: C_20  and  N_59
REMARK   11  A    between atoms: C_30  and  O_32
REMARK   12  A    between atoms: O_32  and  C_33
REMARK                            x       y       z     vdW  Elec       q    Type
REMARK                         _______ _______ _______ _____ _____    ______ ____
ROOT
ATOM      1  C   UNL     1      -2.804  -2.042   1.419  0.00  0.00    -0.036 C 
ENDROOT
BRANCH   1   2
ATOM      2  C   UNL     1      -2.515  -3.475   1.054  0.00  0.00    -0.061 A 
ATOM      3  C   UNL     1      -1.364  -4.087   1.516  0.00  0.00    +0.005 A 
ATOM      4  C   UNL     1      -1.100  -5.402   1.187  0.00  0.00    +0.046 A 
ATOM      5  C   UNL     1      -1.985  -6.107   0.384  0.00  0.00    +0.120 A 
ATOM      6  C   UNL     1      -3.137  -5.489  -0.082  0.00  0.00    +0.046 A 
ATOM      7  C   UNL     1      -3.400  -4.176   0.255  0.00  0.00    +0.005 A 
BRANCH   5   8
ATOM      8  O   UNL     1      -1.725  -7.399   0.055  0.00  0.00    -0.495 OA
ATOM      9  C   UNL     1      -0.520  -7.970   0.570  0.00  0.00    +0.277 C 
ENDBRANCH   5   8
ENDBRANCH   1   2
BRANCH   1  10
ATOM     10  N   UNL     1      -1.552  -1.263   1.382  0.00  0.00    +0.386 N 
ATOM     11  H   UNL     1      -0.775  -1.855   1.698  0.00  0.00    -0.085 HD
ATOM     12  H   UNL     1      -1.639  -0.451   2.005  0.00  0.00    -0.085 HD
BRANCH  10  13
ATOM     13  C   UNL     1      -1.280  -0.796   0.009  0.00  0.00    -0.045 C 
BRANCH  13  14
ATOM     14  C   UNL     1       0.002  -0.004   0.002  0.00  0.00    -0.047 A 
ATOM     15  C   UNL     1      -0.016   1.354   0.009  0.00  0.00    +0.094 A 
ATOM     16  C   UNL     1       1.197   2.072   0.002  0.00  0.00    +0.337 A 
ATOM     17  O   UNL     1       1.166   3.290   0.008  0.00  0.00    -0.245 OA
ATOM     18  O   UNL     1       2.385   1.448  -0.013  0.00  0.00    -0.422 OA
ATOM     19  C   UNL     1       2.474   0.101  -0.021  0.00  0.00    +0.143 A 
ATOM     20  C   UNL     1       1.302  -0.678  -0.014  0.00  0.00    +0.019 A 
ATOM     21  C   UNL     1       1.389  -2.075  -0.023  0.00  0.00    +0.015 A 
ATOM     22  C   UNL     1       2.614  -2.678  -0.038  0.00  0.00    +0.046 A 
ATOM     23  C   UNL     1       3.778  -1.911  -0.045  0.00  0.00    +0.124 A 
ATOM     24  C   UNL     1       3.710  -0.527  -0.036  0.00  0.00    +0.092 A 
BRANCH  23  25
ATOM     25  O   UNL     1       4.988  -2.526  -0.059  0.00  0.00    -0.495 OA
ATOM     26  C   UNL     1       4.990  -3.955  -0.067  0.00  0.00    +0.277 C 
ENDBRANCH  23  25
ENDBRANCH  13  14
ENDBRANCH  10  13
ENDBRANCH   1  10
BRANCH   1  27
ATOM     27  C   UNL     1      -3.390  -1.983   2.832  0.00  0.00    +0.024 C 
BRANCH  27  31
ATOM     28  C   UNL     1      -4.531   2.035   3.734  0.00  0.00    +0.120 A 
ATOM     29  C   UNL     1      -5.440   1.171   3.142  0.00  0.00    +0.046 A 
ATOM     30  C   UNL     1      -5.069  -0.128   2.851  0.00  0.00    +0.007 A 
ATOM     31  C   UNL     1      -3.792  -0.566   3.150  0.00  0.00    -0.048 A 
ATOM     32  C   UNL     1      -2.886   0.291   3.745  0.00  0.00    +0.007 A 
ATOM     33  C   UNL     1      -3.250   1.592   4.033  0.00  0.00    +0.046 A 
BRANCH  28  35
ATOM     34  C   UNL     1      -3.906   4.146   4.631  0.00  0.00    +0.277 C 
ATOM     35  O   UNL     1      -4.894   3.313   4.021  0.00  0.00    -0.495 OA
ENDBRANCH  28  35
ENDBRANCH  27  31
ENDBRANCH   1  27
TORSDOF 9
