REMARK  Name = ZINC23194199
REMARK  3 active torsions:
REMARK  status: ('A' for Active; 'I' for Inactive)
REMARK    1  A    between atoms: N_12  and  C_15
REMARK    2  A    between atoms: C_15  and  C_16
REMARK    3  A    between atoms: C_19  and  C_21
REMARK                            x       y       z     vdW  Elec       q    Type
REMARK                         _______ _______ _______ _____ _____    ______ ____
ROOT
ATOM      1  C   UNL     1       4.534   5.691   7.507  0.00  0.00    +0.001 A 
ATOM      2  C   UNL     1       3.706   6.779   7.747  0.00  0.00    +0.004 A 
ATOM      3  C   UNL     1       2.848   7.237   6.771  0.00  0.00    +0.047 A 
ATOM      4  C   UNL     1       2.806   6.610   5.530  0.00  0.00    +0.138 A 
ATOM      5  C   UNL     1       3.645   5.510   5.289  0.00  0.00    +0.046 A 
ATOM      6  C   UNL     1       4.508   5.056   6.285  0.00  0.00    +0.014 A 
ATOM      7  C   UNL     1       3.361   5.086   3.910  0.00  0.00    +0.124 A 
ATOM      8  C   UNL     1       2.384   5.959   3.441  0.00  0.00    +0.219 A 
ATOM      9  O   UNL     1       2.080   6.841   4.416  0.00  0.00    -0.448 OA
ATOM     10  C   UNL     1       1.917   5.787   2.118  0.00  0.00    +0.297 A 
ATOM     11  O   UNL     1       1.065   6.527   1.656  0.00  0.00    -0.264 OA
ATOM     12  N   UNL     1       2.432   4.781   1.379  0.00  0.00    -0.290 N 
ATOM     13  C   UNL     1       3.383   3.965   1.897  0.00  0.00    +0.203 A 
ATOM     14  N   UNL     1       3.829   4.113   3.113  0.00  0.00    -0.233 NA
ENDROOT
BRANCH  12  15
ATOM     15  C   UNL     1       1.964   4.574   0.007  0.00  0.00    +0.182 C 
BRANCH  15  16
ATOM     16  C   UNL     1       0.792   3.626   0.013  0.00  0.00    +0.069 A 
ATOM     17  C   UNL     1      -0.477   4.113   0.027  0.00  0.00    +0.072 A 
ATOM     18  S   UNL     1      -1.415   2.590   0.021  0.00  0.00    -0.075 S 
ATOM     19  C   UNL     1      -0.018   1.474   0.010  0.00  0.00    +0.109 A 
ATOM     20  N   UNL     1       0.995   2.329   0.005  0.00  0.00    -0.242 NA
BRANCH  19  21
ATOM     21  C   UNL     1       0.002  -0.004   0.002  0.00  0.00    +0.007 A 
ATOM     22  C   UNL     1       1.219  -0.688  -0.019  0.00  0.00    +0.013 A 
ATOM     23  C   UNL     1       1.232  -2.067  -0.022  0.00  0.00    +0.039 A 
ATOM     24  C   UNL     1       0.040  -2.774  -0.015  0.00  0.00    +0.123 A 
ATOM     25  C   UNL     1      -1.171  -2.100   0.002  0.00  0.00    +0.039 A 
ATOM     26  C   UNL     1      -1.196  -0.721   0.010  0.00  0.00    +0.013 A 
ATOM     27  F   UNL     1       0.058  -4.125  -0.023  0.00  0.00    -0.205 F 
ENDBRANCH  19  21
ENDBRANCH  15  16
ENDBRANCH  12  15
TORSDOF 3
