REMARK  Name = ZINC27990646
REMARK  8 active torsions:
REMARK  status: ('A' for Active; 'I' for Inactive)
REMARK    1  A    between atoms: C_1  and  C_2
REMARK    2  A    between atoms: C_6  and  C_24
REMARK    3  A    between atoms: C_11  and  C_21
REMARK    4  A    between atoms: C_12  and  C_13
REMARK    5  A    between atoms: C_16  and  C_19
REMARK    6  A    between atoms: C_19  and  N_20
REMARK    7  A    between atoms: C_24  and  C_26
REMARK    8  A    between atoms: C_24  and  O_27
REMARK                            x       y       z     vdW  Elec       q    Type
REMARK                         _______ _______ _______ _____ _____    ______ ____
ROOT
ATOM      1  C   UNL     1       1.211   2.764   2.153  0.00  0.00    +0.014 C 
ATOM      2  C   UNL     1       2.167   1.902   1.325  0.00  0.00    +0.040 C 
ATOM      3  C   UNL     1       1.643   1.749  -0.112  0.00  0.00    +0.103 C 
ATOM      4  C   UNL     1       0.135   1.940  -0.266  0.00  0.00    +0.125 C 
ATOM      5  C   UNL     1      -0.004   0.452  -0.480  0.00  0.00    +0.228 C 
ATOM      6  O   UNL     1      -0.915  -0.302  -0.750  0.00  0.00    -0.275 OA
ATOM      7  N   UNL     1       1.324   0.318  -0.240  0.00  0.00    -0.260 N 
ATOM      8  C   UNL     1       1.727  -0.344   0.920  0.00  0.00    +0.130 C 
ATOM      9  C   UNL     1       2.204   0.490   1.862  0.00  0.00    -0.006 C 
ENDROOT
BRANCH   9  10
ATOM     10  C   UNL     1       2.683   0.092   3.195  0.00  0.00    -0.001 A 
ATOM     11  C   UNL     1       1.800  -0.459   4.136  0.00  0.00    +0.011 A 
ATOM     12  C   UNL     1       2.303  -0.819   5.373  0.00  0.00    +0.022 A 
ATOM     13  C   UNL     1       3.645  -0.619   5.644  0.00  0.00    +0.024 A 
ATOM     14  N   UNL     1       4.452  -0.095   4.742  0.00  0.00    -0.261 NA
ATOM     15  C   UNL     1       4.026   0.261   3.549  0.00  0.00    +0.119 A 
BRANCH  13  16
ATOM     16  C   UNL     1       4.193  -1.007   6.993  0.00  0.00    -0.030 C 
BRANCH  16  17
ATOM     17  N   UNL     1       4.766  -2.357   6.919  0.00  0.00    +0.382 N 
ATOM     18  H   UNL     1       5.167  -2.640   7.904  0.00  0.00    -0.090 HD
ATOM     19  H   UNL     1       5.577  -2.371   6.176  0.00  0.00    -0.090 HD
ATOM     20  H   UNL     1       3.984  -3.072   6.622  0.00  0.00    -0.090 HD
ENDBRANCH  16  17
ENDBRANCH  13  16
ENDBRANCH   9  10
BRANCH   8  21
ATOM     21  C   UNL     1       1.640  -1.800   1.094  0.00  0.00    +0.401 C 
ATOM     22  O   UNL     1       1.198  -2.493   0.199  0.00  0.00    -0.239 OA
ATOM     23  O   UNL     1       2.051  -2.366   2.246  0.00  0.00    -0.239 OA
ENDBRANCH   8  21
BRANCH   4  24
ATOM     24  C   UNL     1      -0.248   2.766  -1.495  0.00  0.00    +0.125 C 
ATOM     25  C   UNL     1      -1.763   2.985  -1.511  0.00  0.00    +0.038 C 
BRANCH  24  26
ATOM     26  O   UNL     1       0.144   2.068  -2.679  0.00  0.00    -0.391 OA
ATOM     27  H   UNL     1      -0.050   2.509  -3.667  0.00  0.00    +0.210 HD
ENDBRANCH  24  26
ENDBRANCH   4  24
TORSDOF 6
