REMARK  Name = ZINC48382137
REMARK  3 active torsions:
REMARK  status: ('A' for Active; 'I' for Inactive)
REMARK    1  A    between atoms: C_1  and  C_2
REMARK    2  A    between atoms: C_2  and  C_4
REMARK    3  A    between atoms: C_2  and  N_18
REMARK                            x       y       z     vdW  Elec       q    Type
REMARK                         _______ _______ _______ _____ _____    ______ ____
ROOT
ATOM      1  C   UNL     1       0.597  -0.491  -1.294  0.00  0.00    +0.236 C 
ATOM      2  O   UNL     1       1.571  -1.214  -1.280  0.00  0.00    -0.274 OA
ATOM      3  N   UNL     1       0.076  -0.085  -2.469  0.00  0.00    -0.297 N 
ATOM      4  C   UNL     1      -0.995   0.920  -2.509  0.00  0.00    +0.108 C 
ATOM      5  C   UNL     1      -2.163   0.367  -3.331  0.00  0.00    +0.019 C 
ATOM      6  C   UNL     1      -1.658  -0.075  -4.706  0.00  0.00    +0.007 C 
ATOM      7  C   UNL     1      -0.620  -1.190  -4.529  0.00  0.00    +0.010 C 
ATOM      8  C   UNL     1       0.571  -0.632  -3.738  0.00  0.00    +0.079 C 
ATOM      9  C   UNL     1       1.596  -1.731  -3.473  0.00  0.00    +0.023 C 
ATOM     10  C   UNL     1       0.943  -2.877  -2.699  0.00  0.00    +0.002 C 
ATOM     11  C   UNL     1      -0.216  -3.445  -3.522  0.00  0.00    +0.000 C 
ATOM     12  C   UNL     1      -1.269  -2.351  -3.770  0.00  0.00    +0.005 C 
ENDROOT
BRANCH   1  14
ATOM     13  C   UNL     1       0.336   1.413   0.273  0.00  0.00    +0.038 C 
ATOM     14  C   UNL     1      -0.031  -0.048   0.002  0.00  0.00    +0.157 C 
BRANCH  14  15
ATOM     15  N   UNL     1       0.462  -0.887   1.096  0.00  0.00    -0.289 N 
ATOM     16  C   UNL     1      -0.278  -1.043   2.212  0.00  0.00    +0.298 C 
ATOM     17  O   UNL     1      -1.355  -0.487   2.310  0.00  0.00    -0.253 OA
ATOM     18  N   UNL     1       0.176  -1.815   3.219  0.00  0.00    -0.313 N 
ATOM     19  H   UNL     1       1.321  -1.330   1.018  0.00  0.00    +0.151 HD
ATOM     20  H   UNL     1       1.036  -2.259   3.141  0.00  0.00    +0.146 HD
ATOM     21  H   UNL     1      -0.356  -1.927   4.022  0.00  0.00    +0.146 HD
ENDBRANCH  14  15
ENDBRANCH   1  14
TORSDOF 2
