REMARK  Name = ZINC56782033
REMARK  9 active torsions:
REMARK  status: ('A' for Active; 'I' for Inactive)
REMARK    1  A    between atoms: C_1  and  C_2
REMARK    2  A    between atoms: C_2  and  C_3
REMARK    3  A    between atoms: C_3  and  C_4
REMARK    4  A    between atoms: C_4  and  C_5
REMARK    5  A    between atoms: C_5  and  C_6
REMARK    6  A    between atoms: C_6  and  C_8
REMARK    7  A    between atoms: C_6  and  N_9
REMARK    8  A    between atoms: C_16  and  C_19
REMARK    9  A    between atoms: C_26  and  C_28
REMARK                            x       y       z     vdW  Elec       q    Type
REMARK                         _______ _______ _______ _____ _____    ______ ____
ROOT
ATOM      1  N   UNL     1       0.105  -4.556  -2.642  0.00  0.00    -0.297 N 
ATOM      2  C   UNL     1      -0.198  -5.786  -2.182  0.00  0.00    +0.302 C 
ATOM      3  O   UNL     1       0.682  -6.511  -1.760  0.00  0.00    -0.253 OA
ATOM      4  N   UNL     1      -1.476  -6.213  -2.191  0.00  0.00    -0.285 N 
ATOM      5  C   UNL     1      -2.533  -5.399  -2.808  0.00  0.00    +0.109 C 
ATOM      6  C   UNL     1      -3.284  -6.259  -3.829  0.00  0.00    +0.020 C 
ATOM      7  C   UNL     1      -3.789  -7.531  -3.146  0.00  0.00    +0.016 C 
ATOM      8  C   UNL     1      -2.599  -8.337  -2.620  0.00  0.00    +0.093 C 
ATOM      9  C   UNL     1      -1.839  -7.503  -1.590  0.00  0.00    +0.122 C 
ATOM     10  H   UNL     1      -0.584  -4.005  -3.045  0.00  0.00    +0.151 HD
ENDROOT
BRANCH   8  11
ATOM     11  C   UNL     1      -3.096  -9.606  -1.976  0.00  0.00    +0.223 C 
ATOM     12  O   UNL     1      -4.284  -9.843  -1.942  0.00  0.00    -0.275 OA
ATOM     13  N   UNL     1      -2.218 -10.477  -1.439  0.00  0.00    -0.270 N 
ATOM     14  C   UNL     1      -2.667 -11.698  -0.938  0.00  0.00    +0.125 A 
ATOM     15  C   UNL     1      -1.746 -12.635  -0.482  0.00  0.00    +0.044 A 
ATOM     16  C   UNL     1      -2.205 -13.843   0.012  0.00  0.00    +0.005 A 
ATOM     17  C   UNL     1      -3.574 -14.073   0.034  0.00  0.00    +0.023 A 
ATOM     18  C   UNL     1      -4.431 -13.098  -0.435  0.00  0.00    +0.040 A 
ATOM     19  N   UNL     1      -3.965 -11.953  -0.896  0.00  0.00    -0.237 NA
ATOM     20  C   UNL     1      -5.918 -13.341  -0.415  0.00  0.00    +0.065 C 
ATOM     21  H   UNL     1      -1.275 -10.254  -1.401  0.00  0.00    +0.156 HD
ENDBRANCH   8  11
BRANCH   1  22
ATOM     22  C   UNL     1       1.476  -4.050  -2.532  0.00  0.00    +0.071 C 
ATOM     23  C   UNL     1       2.297  -4.538  -3.727  0.00  0.00    +0.028 C 
BRANCH  22  24
ATOM     24  C   UNL     1       1.455  -2.520  -2.518  0.00  0.00    +0.022 C 
BRANCH  24  25
ATOM     25  C   UNL     1       0.741  -2.031  -1.257  0.00  0.00    +0.002 C 
BRANCH  25  26
ATOM     26  C   UNL     1       0.720  -0.501  -1.243  0.00  0.00    -0.000 C 
BRANCH  26  28
ATOM     27  C   UNL     1      -0.015   1.518   0.032  0.00  0.00    +0.004 C 
ATOM     28  C   UNL     1       0.006  -0.012   0.019  0.00  0.00    -0.003 C 
ENDBRANCH  26  28
ENDBRANCH  25  26
ENDBRANCH  24  25
ENDBRANCH  22  24
ENDBRANCH   1  22
TORSDOF 6
