REMARK  Name = ZINC13065229
REMARK  14 active torsions:
REMARK  status: ('A' for Active; 'I' for Inactive)
REMARK    1  A    between atoms: C_1  and  C_2
REMARK    2  A    between atoms: C_2  and  C_3
REMARK    3  A    between atoms: C_3  and  C_5
REMARK    4  A    between atoms: C_3  and  N_73
REMARK    5  A    between atoms: N_9  and  C_10
REMARK    6  A    between atoms: C_10  and  C_11
REMARK    7  A    between atoms: C_17  and  C_18
REMARK    8  A    between atoms: C_17  and  N_73
REMARK    9  A    between atoms: C_21  and  O_24
REMARK   10  A    between atoms: O_24  and  C_25
REMARK   11  A    between atoms: C_26  and  C_27
REMARK   12  A    between atoms: C_26  and  N_73
REMARK   13  A    between atoms: C_30  and  C_40
REMARK   14  A    between atoms: C_33  and  C_39
REMARK                            x       y       z     vdW  Elec       q    Type
REMARK                         _______ _______ _______ _____ _____    ______ ____
ROOT
ATOM      1  N   UNL     1       3.681   1.024  -3.211  0.00  0.00    +0.392 N 
ATOM      2  H   UNL     1       2.887   0.936  -3.855  0.00  0.00    -0.080 HD
ENDROOT
BRANCH   1   3
ATOM      3  C   UNL     1       3.495   2.232  -2.380  0.00  0.00    +0.003 C 
BRANCH   3   4
ATOM      4  C   UNL     1       3.300   3.420  -3.286  0.00  0.00    +0.138 A 
ATOM      5  N   UNL     1       4.009   3.720  -4.347  0.00  0.00    -0.115 NA
ATOM      6  N   UNL     1       3.537   4.810  -4.846  0.00  0.00    -0.023 NA
ATOM      7  N   UNL     1       2.543   5.211  -4.133  0.00  0.00    -0.044 NA
ATOM      8  N   UNL     1       2.363   4.379  -3.163  0.00  0.00    -0.226 N 
BRANCH   8   9
ATOM      9  C   UNL     1       1.337   4.465  -2.122  0.00  0.00    +0.182 C 
BRANCH   9  10
ATOM     10  C   UNL     1       0.097   3.739  -2.577  0.00  0.00    -0.026 A 
ATOM     11  C   UNL     1      -0.058   2.394  -2.296  0.00  0.00    +0.005 A 
ATOM     12  C   UNL     1      -1.195   1.728  -2.713  0.00  0.00    +0.000 A 
ATOM     13  C   UNL     1      -2.174   2.405  -3.417  0.00  0.00    +0.000 A 
ATOM     14  C   UNL     1      -2.021   3.751  -3.693  0.00  0.00    +0.000 A 
ATOM     15  C   UNL     1      -0.884   4.417  -3.275  0.00  0.00    +0.005 A 
ENDBRANCH   9  10
ENDBRANCH   8   9
ENDBRANCH   3   4
BRANCH   3  17
ATOM     16  C   UNL     1       4.441   3.632  -0.540  0.00  0.00    +0.002 C 
ATOM     17  C   UNL     1       4.716   2.464  -1.489  0.00  0.00    -0.011 C 
ENDBRANCH   3  17
ENDBRANCH   1   3
BRANCH   1  18
ATOM     18  C   UNL     1       3.737  -0.177  -2.351  0.00  0.00    -0.042 C 
BRANCH  18  19
ATOM     19  C   UNL     1       2.393  -0.371  -1.698  0.00  0.00    -0.064 A 
ATOM     20  C   UNL     1       2.176   0.092  -0.413  0.00  0.00    +0.005 A 
ATOM     21  C   UNL     1       0.943  -0.079   0.186  0.00  0.00    +0.046 A 
ATOM     22  C   UNL     1      -0.075  -0.726  -0.499  0.00  0.00    +0.120 A 
ATOM     23  C   UNL     1       0.146  -1.194  -1.786  0.00  0.00    +0.046 A 
ATOM     24  C   UNL     1       1.379  -1.016  -2.382  0.00  0.00    +0.005 A 
BRANCH  22  25
ATOM     25  O   UNL     1      -1.288  -0.900   0.090  0.00  0.00    -0.495 OA
ATOM     26  C   UNL     1      -1.444  -0.392   1.416  0.00  0.00    +0.277 C 
ENDBRANCH  22  25
ENDBRANCH  18  19
ENDBRANCH   1  18
BRANCH   1  27
ATOM     27  C   UNL     1       4.927   1.139  -3.998  0.00  0.00    -0.036 C 
BRANCH  27  28
ATOM     28  C   UNL     1       5.042  -0.056  -4.909  0.00  0.00    +0.001 A 
ATOM     29  C   UNL     1       4.568   0.013  -6.177  0.00  0.00    +0.017 A 
ATOM     30  C   UNL     1       4.699  -1.163  -7.038  0.00  0.00    +0.002 A 
ATOM     31  C   UNL     1       4.234  -1.150  -8.357  0.00  0.00    -0.041 A 
ATOM     32  C   UNL     1       4.367  -2.266  -9.133  0.00  0.00    +0.004 A 
ATOM     33  C   UNL     1       4.960  -3.414  -8.625  0.00  0.00    +0.005 A 
ATOM     34  C   UNL     1       5.425  -3.450  -7.328  0.00  0.00    -0.026 A 
ATOM     35  C   UNL     1       5.300  -2.325  -6.519  0.00  0.00    +0.052 A 
ATOM     36  N   UNL     1       5.758  -2.333  -5.218  0.00  0.00    -0.322 N 
ATOM     37  H   UNL     1       6.172  -3.134  -4.862  0.00  0.00    +0.169 HD
ATOM     38  C   UNL     1       5.637  -1.245  -4.436  0.00  0.00    +0.251 A 
ATOM     39  O   UNL     1       6.052  -1.288  -3.291  0.00  0.00    -0.268 OA
ATOM     40  C   UNL     1       6.067  -4.702  -6.788  0.00  0.00    +0.046 C 
ATOM     41  C   UNL     1       3.589   0.090  -8.920  0.00  0.00    +0.044 C 
ENDBRANCH  27  28
ENDBRANCH   1  27
TORSDOF 10
