REMARK  Name = ZINC63491986
REMARK  9 active torsions:
REMARK  status: ('A' for Active; 'I' for Inactive)
REMARK    1  A    between atoms: C_1  and  C_2
REMARK    2  A    between atoms: C_4  and  N_27
REMARK    3  A    between atoms: C_7  and  N_8
REMARK    4  A    between atoms: C_9  and  C_11
REMARK    5  A    between atoms: C_11  and  C_12
REMARK    6  A    between atoms: C_11  and  N_13
REMARK    7  A    between atoms: C_16  and  C_19
REMARK    8  A    between atoms: C_19  and  C_20
REMARK    9  A    between atoms: C_19  and  O_26
REMARK                            x       y       z     vdW  Elec       q    Type
REMARK                         _______ _______ _______ _____ _____    ______ ____
ROOT
ATOM      1  C   UNL     1      -0.169   0.052   4.882  0.00  0.00    +0.016 C 
ATOM      2  C   UNL     1      -1.362   0.992   5.064  0.00  0.00    -0.004 C 
ENDROOT
BRANCH   1   3
ATOM      3  N   UNL     1      -0.122  -0.902   5.998  0.00  0.00    +0.387 N 
ATOM      4  C   UNL     1       1.089  -1.723   5.887  0.00  0.00    -0.077 C 
ATOM      5  C   UNL     1       1.103  -2.772   7.001  0.00  0.00    -0.012 C 
ATOM      6  C   UNL     1       1.085  -2.067   8.360  0.00  0.00    +0.019 C 
ATOM      7  C   UNL     1      -0.143  -1.156   8.435  0.00  0.00    -0.012 C 
ATOM      8  C   UNL     1      -0.111  -0.166   7.268  0.00  0.00    -0.077 C 
ATOM      9  H   UNL     1      -0.935  -1.498   5.964  0.00  0.00    -0.081 HD
BRANCH   6  10
ATOM     10  C   UNL     1       1.018  -3.110   9.477  0.00  0.00    +0.147 C 
BRANCH  10  11
ATOM     11  C   UNL     1       1.001  -2.414  10.814  0.00  0.00    -0.019 A 
ATOM     12  C   UNL     1       2.179  -1.944  11.363  0.00  0.00    +0.006 A 
ATOM     13  C   UNL     1       2.163  -1.305  12.589  0.00  0.00    +0.000 A 
ATOM     14  C   UNL     1       0.970  -1.136  13.266  0.00  0.00    +0.000 A 
ATOM     15  C   UNL     1      -0.209  -1.606  12.716  0.00  0.00    +0.000 A 
ATOM     16  C   UNL     1      -0.194  -2.240  11.488  0.00  0.00    +0.006 A 
ENDBRANCH  10  11
BRANCH  10  17
ATOM     17  O   UNL     1       2.160  -3.965   9.400  0.00  0.00    -0.387 OA
ATOM     18  H   UNL     1       3.005  -3.502   9.492  0.00  0.00    +0.210 HD
ENDBRANCH  10  17
ENDBRANCH   6  10
ENDBRANCH   1   3
BRANCH   1  20
ATOM     19  N   UNL     1      -0.114  -0.066   2.412  0.00  0.00    -0.287 N 
ATOM     20  C   UNL     1      -0.315  -0.700   3.584  0.00  0.00    +0.203 C 
ATOM     21  O   UNL     1      -0.614  -1.875   3.595  0.00  0.00    -0.277 OA
ATOM     22  H   UNL     1       0.199   0.852   2.404  0.00  0.00    +0.155 HD
BRANCH  19  29
ATOM     23  C   UNL     1      -1.114   1.446   0.219  0.00  0.00    +0.046 C 
ATOM     24  C   UNL     1      -0.845  -0.033   0.110  0.00  0.00    -0.027 A 
ATOM     25  C   UNL     1      -1.079  -0.693  -1.080  0.00  0.00    +0.038 A 
ATOM     26  C   UNL     1      -0.832  -2.049  -1.181  0.00  0.00    +0.127 A 
ATOM     27  C   UNL     1      -0.351  -2.750  -0.090  0.00  0.00    +0.034 A 
ATOM     28  C   UNL     1      -0.115  -2.096   1.103  0.00  0.00    +0.026 A 
ATOM     29  C   UNL     1      -0.356  -0.732   1.206  0.00  0.00    +0.036 A 
BRANCH  26  30
ATOM     30  N   UNL     1      -1.084  -2.753  -2.458  0.00  0.00    +0.056 N 
ATOM     31  O   UNL     1      -1.505  -2.142  -3.413  0.00  0.00    -0.126 OA
ATOM     32  O   UNL     1      -0.868  -3.940  -2.547  0.00  0.00    -0.126 OA
ENDBRANCH  26  30
ENDBRANCH  19  29
ENDBRANCH   1  20
TORSDOF 7
