REMARK  Name = ZINC36063459
REMARK  9 active torsions:
REMARK  status: ('A' for Active; 'I' for Inactive)
REMARK    1  A    between atoms: C_1  and  C_2
REMARK    2  A    between atoms: C_3  and  C_27
REMARK    3  A    between atoms: C_4  and  C_22
REMARK    4  A    between atoms: C_7  and  C_12
REMARK    5  A    between atoms: C_13  and  N_15
REMARK    6  A    between atoms: N_18  and  C_21
REMARK    7  A    between atoms: C_27  and  O_29
REMARK    8  A    between atoms: O_29  and  C_30
REMARK    9  A    between atoms: C_30  and  C_31
REMARK                            x       y       z     vdW  Elec       q    Type
REMARK                         _______ _______ _______ _____ _____    ______ ____
ROOT
ATOM      1  C   UNL     1       0.195   0.840   1.834  0.00  0.00    +0.066 C 
ATOM      2  C   UNL     1       0.199  -0.521   1.187  0.00  0.00    +0.053 C 
ATOM      3  C   UNL     1      -0.980  -1.234   1.082  0.00  0.00    +0.083 C 
ATOM      4  C   UNL     1      -0.926  -2.595   0.425  0.00  0.00    +0.156 C 
ATOM      5  N   UNL     1       0.401  -3.059  -0.060  0.00  0.00    -0.267 N 
ATOM      6  C   UNL     1       0.685  -4.257  -0.687  0.00  0.00    +0.048 C 
ATOM      7  C   UNL     1       1.966  -4.486  -1.051  0.00  0.00    +0.072 C 
ATOM      8  S   UNL     1       2.776  -2.996  -0.504  0.00  0.00    -0.060 S 
ATOM      9  C   UNL     1       1.446  -2.201   0.140  0.00  0.00    +0.166 C 
ATOM     10  N   UNL     1       1.329  -1.023   0.717  0.00  0.00    -0.230 NA
ENDROOT
BRANCH   4  11
ATOM     11  C   UNL     1      -1.438  -3.609   1.414  0.00  0.00    +0.015 A 
ATOM     12  C   UNL     1      -2.623  -4.267   1.426  0.00  0.00    +0.013 A 
ATOM     13  C   UNL     1      -2.881  -5.165   2.445  0.00  0.00    +0.008 A 
ATOM     14  C   UNL     1      -1.942  -5.361   3.402  0.00  0.00    +0.045 A 
ATOM     15  S   UNL     1      -0.639  -4.263   2.871  0.00  0.00    -0.099 S 
ENDBRANCH   4  11
BRANCH   6  16
ATOM     16  C   UNL     1      -0.369  -5.247  -0.947  0.00  0.00    +0.091 C 
ATOM     17  C   UNL     1      -0.047  -6.462  -1.433  0.00  0.00    +0.241 C 
ATOM     18  O   UNL     1       1.255  -6.817  -1.560  0.00  0.00    -0.271 OA
BRANCH  17  19
ATOM     19  N   UNL     1      -1.046  -7.347  -1.801  0.00  0.00    -0.302 N 
ATOM     20  C   UNL     1      -2.329  -6.862  -2.333  0.00  0.00    +0.089 C 
ATOM     21  C   UNL     1      -2.630  -7.611  -3.634  0.00  0.00    -0.060 C 
ATOM     22  N   UNL     1      -2.585  -9.058  -3.387  0.00  0.00    +0.380 N 
ATOM     23  C   UNL     1      -1.225  -9.458  -3.007  0.00  0.00    -0.060 C 
ATOM     24  C   UNL     1      -0.851  -8.800  -1.679  0.00  0.00    +0.089 C 
ATOM     25  C   UNL     1      -2.982  -9.774  -4.607  0.00  0.00    -0.096 C 
ATOM     26  H   UNL     1      -3.224  -9.290  -2.641  0.00  0.00    -0.082 HD
ENDBRANCH  17  19
ENDBRANCH   6  16
BRANCH   3  27
ATOM     27  C   UNL     1      -2.186  -0.714   1.570  0.00  0.00    +0.339 C 
ATOM     28  O   UNL     1      -2.207   0.385   2.097  0.00  0.00    -0.245 OA
BRANCH  27  29
ATOM     29  O   UNL     1      -3.326  -1.431   1.456  0.00  0.00    -0.457 OA
BRANCH  29  30
ATOM     30  C   UNL     1      -4.518  -0.839   1.976  0.00  0.00    +0.268 C 
BRANCH  30  31
ATOM     31  C   UNL     1      -5.679  -1.777   1.761  0.00  0.00    -0.010 A 
ATOM     32  C   UNL     1      -6.420  -1.704   0.596  0.00  0.00    +0.007 A 
ATOM     33  C   UNL     1      -7.484  -2.564   0.399  0.00  0.00    +0.000 A 
ATOM     34  C   UNL     1      -7.807  -3.497   1.367  0.00  0.00    +0.000 A 
ATOM     35  C   UNL     1      -7.066  -3.570   2.531  0.00  0.00    +0.000 A 
ATOM     36  C   UNL     1      -5.999  -2.713   2.726  0.00  0.00    +0.007 A 
ENDBRANCH  30  31
ENDBRANCH  29  30
ENDBRANCH  27  29
ENDBRANCH   3  27
TORSDOF 7
