REMARK  Name = ZINC20836439
REMARK  8 active torsions:
REMARK  status: ('A' for Active; 'I' for Inactive)
REMARK    1  A    between atoms: C_1  and  C_2
REMARK    2  A    between atoms: N_7  and  S_9
REMARK    3  A    between atoms: S_9  and  C_12
REMARK    4  A    between atoms: C_15  and  N_18
REMARK    5  A    between atoms: C_19  and  C_21
REMARK    6  A    between atoms: C_21  and  S_22
REMARK    7  A    between atoms: S_22  and  C_23
REMARK    8  A    between atoms: N_28  and  N_29
REMARK                            x       y       z     vdW  Elec       q    Type
REMARK                         _______ _______ _______ _____ _____    ______ ____
ROOT
ATOM      1  N   UNL     1       7.385   4.809  -0.042  0.00  0.00    -0.285 N 
ATOM      2  C   UNL     1       6.689   3.655  -0.040  0.00  0.00    +0.227 C 
ATOM      3  O   UNL     1       7.275   2.593  -0.042  0.00  0.00    -0.275 OA
ATOM      4  H   UNL     1       6.857   5.770   0.050  0.00  0.00    +0.155 HD
ENDROOT
BRANCH   1   8
ATOM      5  C   UNL     1      11.535   4.738  -0.397  0.00  0.00    +0.106 A 
ATOM      6  C   UNL     1      10.770   3.799  -1.064  0.00  0.00    +0.030 A 
ATOM      7  C   UNL     1       9.393   3.820  -0.948  0.00  0.00    +0.025 A 
ATOM      8  C   UNL     1       8.779   4.785  -0.161  0.00  0.00    +0.034 A 
ATOM      9  C   UNL     1       9.550   5.729   0.504  0.00  0.00    +0.025 A 
ATOM     10  C   UNL     1      10.926   5.700   0.388  0.00  0.00    +0.030 A 
BRANCH   5  11
ATOM     11  S   UNL     1      13.291   4.708  -0.547  0.00  0.00    +0.061 S 
ATOM     12  O   UNL     1      13.808   5.353   0.608  0.00  0.00    -0.153 OA
ATOM     13  O   UNL     1      13.645   3.378  -0.900  0.00  0.00    -0.153 OA
BRANCH  11  19
ATOM     14  C   UNL     1      13.411   9.373  -2.543  0.00  0.00    +0.009 C 
ATOM     15  C   UNL     1      13.056   7.886  -2.621  0.00  0.00    +0.002 C 
ATOM     16  C   UNL     1      13.279   7.382  -4.049  0.00  0.00    +0.006 C 
ATOM     17  C   UNL     1      12.893   5.904  -4.135  0.00  0.00    +0.017 C 
ATOM     18  C   UNL     1      13.791   5.090  -3.190  0.00  0.00    +0.109 C 
ATOM     19  N   UNL     1      13.688   5.662  -1.841  0.00  0.00    -0.176 NA
ATOM     20  C   UNL     1      13.950   7.097  -1.660  0.00  0.00    +0.112 C 
ENDBRANCH  11  19
ENDBRANCH   5  11
ENDBRANCH   1   8
BRANCH   2  21
ATOM     21  C   UNL     1       5.182   3.684  -0.034  0.00  0.00    +0.173 C 
BRANCH  21  22
ATOM     22  S   UNL     1       4.545   1.985  -0.032  0.00  0.00    -0.075 S 
BRANCH  22  23
ATOM     23  C   UNL     1       2.794   2.187  -0.025  0.00  0.00    +0.211 A 
ATOM     24  N   UNL     1       1.870   1.181  -0.022  0.00  0.00    -0.186 NA
ATOM     25  C   UNL     1       0.627   1.750  -0.017  0.00  0.00    +0.232 A 
ATOM     26  N   UNL     1       0.777   3.052  -0.023  0.00  0.00    -0.245 N 
ATOM     27  N   UNL     1       2.150   3.329  -0.023  0.00  0.00    -0.144 NA
ATOM     28  N   UNL     1      -0.583   1.067  -0.013  0.00  0.00    -0.205 N 
ATOM     29  H   UNL     1      -0.594  -0.033  -0.009  0.00  0.00    +0.177 HD
ATOM     30  H   UNL     1      -0.107   3.707  -0.027  0.00  0.00    +0.192 HD
BRANCH  28  31
ATOM     31  N   UNL     1      -1.789   1.780  -0.015  0.00  0.00    -0.189 NA
ATOM     32  C   UNL     1      -2.902   1.154  -0.110  0.00  0.00    +0.037 C 
ATOM     33  C   UNL     1      -2.934  -0.340  -0.345  0.00  0.00    +0.052 C 
ATOM     34  C   UNL     1      -3.852  -0.974   0.712  0.00  0.00    +0.006 C 
ATOM     35  C   UNL     1      -5.223  -0.299   0.662  0.00  0.00    +0.001 C 
ATOM     36  C   UNL     1      -5.089   1.177   1.041  0.00  0.00    +0.006 C 
ATOM     37  C   UNL     1      -4.218   1.891   0.002  0.00  0.00    +0.052 C 
ENDBRANCH  28  31
ENDBRANCH  22  23
ENDBRANCH  21  22
ENDBRANCH   2  21
TORSDOF 7
