REMARK  Name = ZINC03358063
REMARK  11 active torsions:
REMARK  status: ('A' for Active; 'I' for Inactive)
REMARK    1  A    between atoms: C_1  and  C_2
REMARK    2  A    between atoms: C_5  and  N_9
REMARK    3  A    between atoms: C_7  and  C_8
REMARK    4  A    between atoms: C_10  and  C_12
REMARK    5  A    between atoms: C_14  and  C_22
REMARK    6  A    between atoms: C_24  and  O_32
REMARK    7  A    between atoms: C_25  and  O_30
REMARK    8  A    between atoms: C_27  and  O_28
REMARK    9  A    between atoms: O_28  and  C_29
REMARK   10  A    between atoms: O_30  and  C_31
REMARK   11  A    between atoms: O_32  and  C_33
REMARK                            x       y       z     vdW  Elec       q    Type
REMARK                         _______ _______ _______ _____ _____    ______ ____
ROOT
ATOM      1  C   UNL     1      -0.134  -6.343  -1.187  0.00  0.00    +0.144 C 
ATOM      2  C   UNL     1      -0.260  -6.856  -2.627  0.00  0.00    +0.126 C 
ATOM      3  N   UNL     1      -1.573  -6.495  -3.160  0.00  0.00    -0.291 N 
ATOM      4  C   UNL     1      -2.661  -6.394  -2.385  0.00  0.00    +0.304 C 
ATOM      5  O   UNL     1      -3.733  -6.160  -2.908  0.00  0.00    -0.253 OA
ATOM      6  N   UNL     1      -2.610  -6.542  -1.048  0.00  0.00    -0.273 N 
ATOM      7  C   UNL     1      -1.374  -6.781  -0.434  0.00  0.00    +0.019 C 
ATOM      8  C   UNL     1      -1.292  -7.363   0.747  0.00  0.00    +0.029 C 
ATOM      9  H   UNL     1      -1.659  -6.324  -4.111  0.00  0.00    +0.151 HD
ATOM     10  H   UNL     1      -3.419  -6.483  -0.516  0.00  0.00    +0.156 HD
ENDROOT
BRANCH   2  11
ATOM     11  C   UNL     1      -0.107  -8.355  -2.641  0.00  0.00    +0.019 A 
ATOM     12  C   UNL     1      -1.226  -9.163  -2.715  0.00  0.00    +0.058 A 
ATOM     13  C   UNL     1      -1.088 -10.541  -2.728  0.00  0.00    +0.162 A 
ATOM     14  C   UNL     1       0.179 -11.113  -2.667  0.00  0.00    +0.165 A 
ATOM     15  C   UNL     1       1.300 -10.302  -2.593  0.00  0.00    +0.095 A 
ATOM     16  C   UNL     1       1.157  -8.923  -2.585  0.00  0.00    +0.129 A 
BRANCH  16  17
ATOM     17  O   UNL     1       2.257  -8.126  -2.518  0.00  0.00    -0.495 OA
ATOM     18  C   UNL     1       3.528  -8.778  -2.464  0.00  0.00    +0.277 C 
ENDBRANCH  16  17
BRANCH  14  19
ATOM     19  O   UNL     1       0.317 -12.466  -2.680  0.00  0.00    -0.491 OA
ATOM     20  C   UNL     1       1.648 -12.983  -2.614  0.00  0.00    +0.277 C 
ENDBRANCH  14  19
BRANCH  13  21
ATOM     21  O   UNL     1      -2.190 -11.335  -2.801  0.00  0.00    -0.491 OA
ATOM     22  C   UNL     1      -3.459 -10.681  -2.860  0.00  0.00    +0.277 C 
ENDBRANCH  13  21
ENDBRANCH   2  11
BRANCH   1  24
ATOM     23  N   UNL     1       0.059  -4.170  -0.021  0.00  0.00    -0.285 N 
ATOM     24  C   UNL     1      -0.040  -4.839  -1.187  0.00  0.00    +0.228 C 
ATOM     25  O   UNL     1      -0.054  -4.230  -2.236  0.00  0.00    -0.275 OA
ATOM     26  H   UNL     1       0.147  -4.658   0.812  0.00  0.00    +0.155 HD
BRANCH  23  31
ATOM     27  C   UNL     1      -0.042   1.502   0.014  0.00  0.00    +0.044 C 
ATOM     28  C   UNL     1      -0.015  -0.004   0.004  0.00  0.00    -0.047 A 
ATOM     29  C   UNL     1      -0.752  -0.702  -0.935  0.00  0.00    +0.005 A 
ATOM     30  C   UNL     1      -0.730  -2.083  -0.946  0.00  0.00    +0.023 A 
ATOM     31  C   UNL     1       0.034  -2.771  -0.013  0.00  0.00    +0.034 A 
ATOM     32  C   UNL     1       0.773  -2.068   0.929  0.00  0.00    +0.027 A 
ATOM     33  C   UNL     1       0.751  -0.686   0.932  0.00  0.00    -0.046 A 
ATOM     34  C   UNL     1       1.557   0.078   1.950  0.00  0.00    +0.044 C 
ENDBRANCH  23  31
ENDBRANCH   1  24
TORSDOF 6
