REMARK  Name = ZINC36054050
REMARK  10 active torsions:
REMARK  status: ('A' for Active; 'I' for Inactive)
REMARK    1  A    between atoms: C_4  and  O_7
REMARK    2  A    between atoms: O_7  and  C_8
REMARK    3  A    between atoms: C_12  and  C_14
REMARK    4  A    between atoms: C_14  and  N_15
REMARK    5  A    between atoms: N_15  and  C_16
REMARK    6  A    between atoms: N_15  and  C_28
REMARK    7  A    between atoms: C_16  and  C_17
REMARK    8  A    between atoms: C_17  and  C_18
REMARK    9  A    between atoms: C_28  and  C_29
REMARK   10  A    between atoms: C_31  and  C_34
REMARK                            x       y       z     vdW  Elec       q    Type
REMARK                         _______ _______ _______ _____ _____    ______ ____
ROOT
ATOM      1  N   UNK     1       6.850  -4.973  -1.263  0.00  0.00    +0.388 N 
ATOM      2  H   UNK     1       6.263  -5.476  -1.911  0.00  0.00    -0.081 HD
ENDROOT
BRANCH   1   3
ATOM      3  C   UNK     1       6.153  -4.837   0.023  0.00  0.00    -0.042 C 
BRANCH   3   8
ATOM      4  C   UNK     1       3.451  -2.221  -0.352  0.00  0.00    +0.129 A 
ATOM      5  C   UNK     1       2.339  -3.010  -0.608  0.00  0.00    +0.046 A 
ATOM      6  C   UNK     1       2.466  -4.385  -0.659  0.00  0.00    +0.004 A 
ATOM      7  C   UNK     1       3.700  -4.974  -0.455  0.00  0.00    +0.002 A 
ATOM      8  C   UNK     1       4.810  -4.191  -0.199  0.00  0.00    -0.060 A 
ATOM      9  C   UNK     1       4.689  -2.815  -0.153  0.00  0.00    +0.048 A 
BRANCH   4  10
ATOM     10  O   UNK     1       3.329  -0.869  -0.302  0.00  0.00    -0.456 OA
BRANCH  10  14
ATOM     11  C   UNK     1       1.691   0.804   3.094  0.00  0.00    +0.000 A 
ATOM     12  C   UNK     1       1.751  -0.571   2.962  0.00  0.00    +0.004 A 
ATOM     13  C   UNK     1       2.299  -1.134   1.826  0.00  0.00    +0.046 A 
ATOM     14  C   UNK     1       2.789  -0.318   0.816  0.00  0.00    +0.128 A 
ATOM     15  C   UNK     1       2.728   1.062   0.952  0.00  0.00    +0.046 A 
ATOM     16  C   UNK     1       2.179   1.619   2.090  0.00  0.00    +0.004 A 
ENDBRANCH  10  14
ENDBRANCH   4  10
ENDBRANCH   3   8
ENDBRANCH   1   3
BRANCH   1  17
ATOM     17  C   UNK     1       8.105  -5.709  -1.063  0.00  0.00    -0.073 C 
BRANCH  17  18
ATOM     18  C   UNK     1       7.792  -7.146  -0.642  0.00  0.00    +0.019 C 
BRANCH  18  19
ATOM     19  C   UNK     1       9.078  -7.873  -0.342  0.00  0.00    -0.024 A 
ATOM     20  C   UNK     1       9.775  -8.646  -1.189  0.00  0.00    +0.087 A 
ATOM     21  N   UNK     1      10.888  -9.138  -0.563  0.00  0.00    -0.360 N 
ATOM     22  H   UNK     1      11.546  -9.721  -0.974  0.00  0.00    +0.165 HD
ATOM     23  C   UNK     1      10.935  -8.683   0.735  0.00  0.00    +0.047 A 
ATOM     24  C   UNK     1       9.806  -7.866   0.929  0.00  0.00    +0.003 A 
ATOM     25  C   UNK     1       9.592  -7.255   2.166  0.00  0.00    +0.010 A 
ATOM     26  C   UNK     1      10.484  -7.452   3.183  0.00  0.00    +0.001 A 
ATOM     27  C   UNK     1      11.601  -8.254   2.995  0.00  0.00    +0.002 A 
ATOM     28  C   UNK     1      11.826  -8.874   1.785  0.00  0.00    +0.026 A 
ENDBRANCH  18  19
ENDBRANCH  17  18
ENDBRANCH   1  17
BRANCH   1  29
ATOM     29  C   UNK     1       7.145  -3.639  -1.803  0.00  0.00    +0.017 C 
BRANCH  29  30
ATOM     30  C   UNK     1       7.727  -3.775  -3.186  0.00  0.00    +0.158 A 
ATOM     31  N   UNK     1       7.053  -3.719  -4.295  0.00  0.00    -0.323 N 
ATOM     32  C   UNK     1       7.916  -3.883  -5.335  0.00  0.00    +0.166 A 
ATOM     33  C   UNK     1       9.160  -4.044  -4.799  0.00  0.00    +0.230 A 
ATOM     34  O   UNK     1       9.024  -3.969  -3.467  0.00  0.00    -0.451 OA
ATOM     35  H   UNK     1       6.095  -3.583  -4.369  0.00  0.00    +0.169 HD
BRANCH  32  36
ATOM     36  C   UNK     1       7.573  -3.887  -6.764  0.00  0.00    +0.406 C 
ATOM     37  O   UNK     1       6.411  -3.732  -7.114  0.00  0.00    -0.239 OA
ATOM     38  O   UNK     1       8.449  -4.046  -7.603  0.00  0.00    -0.239 OA
ENDBRANCH  32  36
ENDBRANCH  29  30
ENDBRANCH   1  29
TORSDOF 10
