REMARK  Name = ZINC66490653
REMARK  4 active torsions:
REMARK  status: ('A' for Active; 'I' for Inactive)
REMARK    1  A    between atoms: C_4  and  O_7
REMARK    2  A    between atoms: O_7  and  C_8
REMARK    3  A    between atoms: N_10  and  C_11
REMARK    4  A    between atoms: C_17  and  C_19
REMARK                            x       y       z     vdW  Elec       q    Type
REMARK                         _______ _______ _______ _____ _____    ______ ____
ROOT
ATOM      1  C   UNL     1       4.591  -4.211   0.191  0.00  0.00    +0.079 C 
ATOM      2  C   UNL     1       4.405  -4.599   1.659  0.00  0.00    +0.041 C 
ATOM      3  C   UNL     1       4.395  -6.126   1.783  0.00  0.00    +0.109 C 
ATOM      4  N   UNL     1       5.619  -6.658   1.169  0.00  0.00    -0.301 N 
ATOM      5  C   UNL     1       5.941  -6.274  -0.213  0.00  0.00    +0.109 C 
ATOM      6  C   UNL     1       5.934  -4.746  -0.314  0.00  0.00    +0.041 C 
ATOM      7  C   UNL     1       6.431  -7.483   1.859  0.00  0.00    +0.222 C 
ATOM      8  O   UNL     1       7.485  -7.839   1.377  0.00  0.00    -0.275 OA
ENDROOT
BRANCH   7   9
ATOM      9  C   UNL     1       6.028  -7.963   3.229  0.00  0.00    +0.048 C 
ATOM     10  C   UNL     1       6.024  -6.783   4.203  0.00  0.00    +0.019 C 
ATOM     11  C   UNL     1       5.615  -7.270   5.594  0.00  0.00    -0.009 C 
ATOM     12  C   UNL     1       6.611  -8.326   6.078  0.00  0.00    +0.007 C 
ATOM     13  C   UNL     1       6.615  -9.507   5.104  0.00  0.00    -0.009 C 
ATOM     14  C   UNL     1       7.024  -9.019   3.713  0.00  0.00    +0.019 C 
ATOM     15  C   UNL     1       5.214 -10.119   5.039  0.00  0.00    +0.007 C 
ATOM     16  C   UNL     1       4.218  -9.063   4.556  0.00  0.00    -0.009 C 
ATOM     17  C   UNL     1       4.214  -7.882   5.529  0.00  0.00    +0.007 C 
ATOM     18  C   UNL     1       4.627  -8.575   3.164  0.00  0.00    +0.019 C 
ENDBRANCH   7   9
BRANCH   1  21
ATOM     19  C   UNL     1       3.393  -2.103  -0.046  0.00  0.00    +0.406 C 
ATOM     20  O   UNL     1       2.351  -2.728  -0.041  0.00  0.00    -0.226 OA
ATOM     21  N   UNL     1       4.569  -2.752   0.064  0.00  0.00    -0.278 N 
ATOM     22  H   UNL     1       5.401  -2.252   0.060  0.00  0.00    +0.152 HD
BRANCH  19  23
ATOM     23  O   UNL     1       3.372  -0.761  -0.162  0.00  0.00    -0.412 OA
BRANCH  23  27
ATOM     24  C   UNL     1      -0.296   1.127  -0.167  0.00  0.00    +0.000 A 
ATOM     25  C   UNL     1       0.141   0.471   0.969  0.00  0.00    +0.004 A 
ATOM     26  C   UNL     1       1.369  -0.162   0.973  0.00  0.00    +0.046 A 
ATOM     27  C   UNL     1       2.163  -0.139  -0.164  0.00  0.00    +0.133 A 
ATOM     28  C   UNL     1       1.722   0.519  -1.302  0.00  0.00    +0.046 A 
ATOM     29  C   UNL     1       0.494   1.151  -1.301  0.00  0.00    +0.004 A 
ENDBRANCH  23  27
ENDBRANCH  19  23
ENDBRANCH   1  21
TORSDOF 4
