REMARK  Name = ZINC16979396
REMARK  5 active torsions:
REMARK  status: ('A' for Active; 'I' for Inactive)
REMARK    1  A    between atoms: C_1  and  N_2
REMARK    2  A    between atoms: N_2  and  C_3
REMARK    3  A    between atoms: N_2  and  C_4
REMARK    4  A    between atoms: C_7  and  C_10
REMARK    5  A    between atoms: C_11  and  C_12
REMARK                            x       y       z     vdW  Elec       q    Type
REMARK                         _______ _______ _______ _____ _____    ______ ____
ROOT
ATOM      1  C   UNL     1       0.086  -2.835  -7.329  0.00  0.00    -0.011 A 
ATOM      2  C   UNL     1       0.102  -4.221  -7.364  0.00  0.00    +0.078 A 
ATOM      3  C   UNL     1       0.206  -4.888  -8.594  0.00  0.00    +0.250 A 
ATOM      4  N   UNL     1       0.294  -4.222  -9.757  0.00  0.00    -0.322 N 
ATOM      5  C   UNL     1       0.285  -2.842  -9.801  0.00  0.00    +0.050 A 
ATOM      6  C   UNL     1       0.176  -2.106  -8.608  0.00  0.00    +0.006 A 
ATOM      7  C   UNL     1       0.160  -0.712  -8.647  0.00  0.00    +0.010 A 
ATOM      8  C   UNL     1       0.246  -0.064  -9.860  0.00  0.00    +0.001 A 
ATOM      9  C   UNL     1       0.348  -0.789 -11.037  0.00  0.00    +0.002 A 
ATOM     10  C   UNL     1       0.377  -2.168 -11.014  0.00  0.00    +0.026 A 
ATOM     11  O   UNL     1       0.218  -6.108  -8.607  0.00  0.00    -0.268 OA
ATOM     12  H   UNL     1       0.365  -4.722 -10.585  0.00  0.00    +0.169 HD
ENDROOT
BRANCH   1  14
ATOM     13  C   UNL     1       0.006  -2.794  -4.893  0.00  0.00    +0.008 C 
ATOM     14  C   UNL     1      -0.022  -2.114  -6.058  0.00  0.00    +0.009 C 
BRANCH  13  18
ATOM     15  C   UNL     1       0.044  -0.689  -1.210  0.00  0.00    +0.029 A 
ATOM     16  C   UNL     1       0.061  -2.081  -1.214  0.00  0.00    +0.023 A 
ATOM     17  C   UNL     1       0.049  -2.768  -2.406  0.00  0.00    +0.010 A 
ATOM     18  C   UNL     1       0.019  -2.064  -3.616  0.00  0.00    -0.025 A 
ATOM     19  C   UNL     1       0.002  -0.665  -3.607  0.00  0.00    +0.010 A 
ATOM     20  C   UNL     1       0.009   0.014  -2.410  0.00  0.00    +0.023 A 
BRANCH  15  22
ATOM     21  C   UNL     1       0.032   1.467   0.006  0.00  0.00    +0.129 C 
ATOM     22  N   UNL     1       0.056   0.002  -0.001  0.00  0.00    -0.336 N 
ATOM     23  C   UNL     1       0.093  -0.736   1.264  0.00  0.00    +0.129 C 
ENDBRANCH  15  22
ENDBRANCH  13  18
ENDBRANCH   1  14
TORSDOF 3
