REMARK  Name = ZINC00207858
REMARK  4 active torsions:
REMARK  status: ('A' for Active; 'I' for Inactive)
REMARK    1  A    between atoms: C_4  and  C_7
REMARK    2  A    between atoms: C_12  and  C_20
REMARK    3  A    between atoms: C_14  and  C_18
REMARK    4  A    between atoms: C_15  and  N_17
REMARK                            x       y       z     vdW  Elec       q    Type
REMARK                         _______ _______ _______ _____ _____    ______ ____
ROOT
ATOM      1  C   UNL     1       3.711  -0.707  -0.038  0.00  0.00    +0.034 C 
ATOM      2  C   UNL     1       3.791  -1.588  -1.286  0.00  0.00    +0.083 C 
ATOM      3  C   UNL     1       5.090  -2.358  -1.282  0.00  0.00    +0.115 C 
ATOM      4  C   UNL     1       5.668  -2.727  -0.124  0.00  0.00    +0.046 C 
ATOM      5  C   UNL     1       6.963  -3.502  -0.124  0.00  0.00    +0.104 C 
ATOM      6  C   UNL     1       7.648  -3.372  -1.455  0.00  0.00    +0.098 C 
ATOM      7  C   UNL     1       6.957  -2.962  -2.547  0.00  0.00    +0.198 C 
ATOM      8  O   UNL     1       5.649  -2.665  -2.469  0.00  0.00    -0.445 OA
ATOM      9  C   UNL     1       5.090  -2.401   1.118  0.00  0.00    +0.164 C 
ATOM     10  O   UNL     1       5.631  -2.766   2.142  0.00  0.00    -0.292 OA
ATOM     11  C   UNL     1       3.817  -1.602   1.202  0.00  0.00    +0.088 C 
ENDROOT
BRANCH   1  15
ATOM     12  C   UNL     1      -0.017   1.378   0.010  0.00  0.00    +0.000 A 
ATOM     13  C   UNL     1       1.171   2.086   0.002  0.00  0.00    +0.000 A 
ATOM     14  C   UNL     1       2.377   1.411  -0.013  0.00  0.00    +0.004 A 
ATOM     15  C   UNL     1       2.396   0.029  -0.020  0.00  0.00    -0.043 A 
ATOM     16  C   UNL     1       1.208  -0.679  -0.012  0.00  0.00    +0.004 A 
ATOM     17  C   UNL     1       0.002  -0.004   0.002  0.00  0.00    +0.000 A 
ENDBRANCH   1  15
BRANCH   5  18
ATOM     18  C   UNL     1       6.674  -4.957   0.145  0.00  0.00    +0.003 A 
ATOM     19  C   UNL     1       7.157  -5.726   1.228  0.00  0.00    +0.045 A 
ATOM     20  C   UNL     1       6.656  -6.965   1.080  0.00  0.00    +0.195 A 
ATOM     21  O   UNL     1       5.899  -6.987  -0.029  0.00  0.00    -0.471 OA
ATOM     22  C   UNL     1       5.902  -5.771  -0.597  0.00  0.00    +0.199 A 
ENDBRANCH   5  18
BRANCH   7  23
ATOM     23  N   UNL     1       7.604  -2.848  -3.752  0.00  0.00    -0.328 N 
ATOM     24  H   UNL     1       8.548  -3.060  -3.817  0.00  0.00    +0.145 HD
ATOM     25  H   UNL     1       7.117  -2.555  -4.538  0.00  0.00    +0.145 HD
ENDBRANCH   7  23
BRANCH   6  26
ATOM     26  C   UNL     1       9.041  -3.683  -1.571  0.00  0.00    +0.101 C 
ATOM     27  N   UNL     1      10.146  -3.930  -1.663  0.00  0.00    -0.191 NA
ENDBRANCH   6  26
TORSDOF 4
