REMARK  Name = ZINC09578875
REMARK  9 active torsions:
REMARK  status: ('A' for Active; 'I' for Inactive)
REMARK    1  A    between atoms: C_1  and  C_2
REMARK    2  A    between atoms: C_2  and  C_27
REMARK    3  A    between atoms: N_5  and  C_9
REMARK    4  A    between atoms: C_9  and  C_10
REMARK    5  A    between atoms: N_12  and  C_13
REMARK    6  A    between atoms: C_18  and  C_19
REMARK    7  A    between atoms: C_19  and  C_21
REMARK    8  A    between atoms: C_30  and  O_33
REMARK    9  A    between atoms: O_33  and  C_34
REMARK                            x       y       z     vdW  Elec       q    Type
REMARK                         _______ _______ _______ _____ _____    ______ ____
ROOT
ATOM      1  C   UNL     1      -0.570  14.360   1.340  0.00  0.00    +0.047 C 
ATOM      2  C   UNL     1       0.772  13.865   0.798  0.00  0.00    +0.135 C 
ATOM      3  C   UNL     1       1.016  12.426   1.210  0.00  0.00    +0.251 C 
ATOM      4  O   UNL     1       1.110  11.994   2.339  0.00  0.00    -0.272 OA
ATOM      5  N   UNL     1       1.105  11.728   0.061  0.00  0.00    -0.215 N 
ATOM      6  C   UNL     1       0.958  12.518  -1.009  0.00  0.00    +0.310 C 
ATOM      7  O   UNL     1       1.004  12.118  -2.156  0.00  0.00    -0.252 OA
ATOM      8  N   UNL     1       0.751  13.804  -0.674  0.00  0.00    -0.281 N 
ATOM      9  H   UNL     1       0.617  14.547  -1.282  0.00  0.00    +0.152 HD
ENDROOT
BRANCH   2  10
ATOM     10  C   UNL     1       1.895  14.750   1.276  0.00  0.00    -0.015 A 
ATOM     11  C   UNL     1       2.578  14.433   2.435  0.00  0.00    +0.010 A 
ATOM     12  C   UNL     1       3.611  15.239   2.872  0.00  0.00    +0.046 A 
ATOM     13  C   UNL     1       3.955  16.375   2.152  0.00  0.00    +0.127 A 
ATOM     14  C   UNL     1       3.263  16.694   0.993  0.00  0.00    +0.046 A 
ATOM     15  C   UNL     1       2.235  15.881   0.557  0.00  0.00    +0.010 A 
BRANCH  13  16
ATOM     16  O   UNL     1       4.967  17.173   2.583  0.00  0.00    -0.434 OA
BRANCH  16  17
ATOM     17  C   UNL     1       5.634  16.783   3.785  0.00  0.00    +0.541 C 
ATOM     18  F   UNL     1       4.714  16.743   4.838  0.00  0.00    -0.166 F 
ATOM     19  F   UNL     1       6.202  15.516   3.613  0.00  0.00    -0.166 F 
ENDBRANCH  16  17
ENDBRANCH  13  16
ENDBRANCH   2  10
BRANCH   5  20
ATOM     20  C   UNL     1       1.339  10.284  -0.009  0.00  0.00    +0.214 C 
BRANCH  20  21
ATOM     21  C   UNL     1       0.017   9.559  -0.002  0.00  0.00    +0.235 C 
ATOM     22  O   UNL     1      -1.018  10.188   0.056  0.00  0.00    -0.274 OA
ATOM     23  N   UNL     1      -0.013   8.213  -0.059  0.00  0.00    -0.284 N 
ATOM     24  H   UNL     1       0.808   7.714  -0.191  0.00  0.00    +0.155 HD
BRANCH  23  25
ATOM     25  C   UNL     1      -1.225   7.538   0.070  0.00  0.00    +0.044 A 
ATOM     26  C   UNL     1      -2.284   8.130   0.746  0.00  0.00    +0.024 A 
ATOM     27  C   UNL     1      -3.482   7.457   0.878  0.00  0.00    +0.002 A 
ATOM     28  C   UNL     1      -3.640   6.191   0.335  0.00  0.00    +0.001 A 
ATOM     29  C   UNL     1      -2.602   5.590  -0.343  0.00  0.00    +0.013 A 
ATOM     30  C   UNL     1      -1.383   6.259  -0.486  0.00  0.00    +0.043 A 
BRANCH  30  31
ATOM     31  C   UNL     1      -0.268   5.622  -1.210  0.00  0.00    +0.195 C 
ATOM     32  O   UNL     1       0.319   4.679  -0.716  0.00  0.00    -0.287 OA
BRANCH  31  33
ATOM     33  C   UNL     1       0.137   6.131  -2.538  0.00  0.00    +0.022 A 
ATOM     34  C   UNL     1       1.258   5.601  -3.179  0.00  0.00    +0.012 A 
ATOM     35  C   UNL     1       1.630   6.080  -4.418  0.00  0.00    +0.001 A 
ATOM     36  C   UNL     1       0.895   7.083  -5.025  0.00  0.00    +0.000 A 
ATOM     37  C   UNL     1      -0.214   7.616  -4.393  0.00  0.00    +0.001 A 
ATOM     38  C   UNL     1      -0.601   7.143  -3.156  0.00  0.00    +0.012 A 
ENDBRANCH  31  33
ENDBRANCH  30  31
ENDBRANCH  23  25
ENDBRANCH  20  21
ENDBRANCH   5  20
TORSDOF 8
