REMARK  Name = ZINC27520861
REMARK  6 active torsions:
REMARK  status: ('A' for Active; 'I' for Inactive)
REMARK    1  A    between atoms: C_1  and  O_2
REMARK    2  A    between atoms: O_2  and  C_3
REMARK    3  A    between atoms: C_6  and  N_9
REMARK    4  A    between atoms: C_11  and  C_21
REMARK    5  A    between atoms: C_16  and  O_20
REMARK    6  A    between atoms: C_23  and  C_26
REMARK                            x       y       z     vdW  Elec       q    Type
REMARK                         _______ _______ _______ _____ _____    ______ ____
ROOT
ATOM      1  N   UNL     1       4.281   1.154  -1.332  0.00  0.00    -0.325 N 
ATOM      2  C   UNL     1       3.414   1.792  -0.576  0.00  0.00    +0.209 A 
ATOM      3  C   UNL     1       3.559   3.236  -0.304  0.00  0.00    +0.068 A 
ATOM      4  C   UNL     1       2.403   3.945  -0.018  0.00  0.00    +0.027 A 
ATOM      5  C   UNL     1       1.141   3.201  -0.011  0.00  0.00    +0.018 A 
ATOM      6  C   UNL     1      -0.087   3.875   0.002  0.00  0.00    +0.015 A 
ATOM      7  C   UNL     1      -1.252   3.163  -0.001  0.00  0.00    +0.046 A 
ATOM      8  C   UNL     1      -1.229   1.771  -0.019  0.00  0.00    +0.120 A 
ATOM      9  C   UNL     1      -0.022   1.087  -0.023  0.00  0.00    +0.092 A 
ATOM     10  C   UNL     1       1.168   1.794  -0.019  0.00  0.00    +0.141 A 
ATOM     11  O   UNL     1       2.358   1.143  -0.022  0.00  0.00    -0.439 OA
ATOM     12  H   UNL     1       5.080   1.712  -1.843  0.00  0.00    +0.169 HD
ENDROOT
BRANCH   1  16
ATOM     13  C   UNL     1       4.004  -2.951  -1.788  0.00  0.00    +0.120 A 
ATOM     14  C   UNL     1       3.414  -2.110  -2.722  0.00  0.00    +0.047 A 
ATOM     15  C   UNL     1       3.504  -0.742  -2.574  0.00  0.00    +0.029 A 
ATOM     16  C   UNL     1       4.190  -0.203  -1.483  0.00  0.00    +0.042 A 
ATOM     17  C   UNL     1       4.786  -1.053  -0.549  0.00  0.00    +0.029 A 
ATOM     18  C   UNL     1       4.686  -2.420  -0.702  0.00  0.00    +0.047 A 
BRANCH  13  20
ATOM     19  C   UNL     1       4.541  -5.107  -0.940  0.00  0.00    +0.277 C 
ATOM     20  O   UNL     1       3.912  -4.299  -1.937  0.00  0.00    -0.495 OA
ENDBRANCH  13  20
ENDBRANCH   1  16
BRANCH   3  21
ATOM     21  C   UNL     1       4.878   3.895  -0.336  0.00  0.00    +0.114 A 
ATOM     22  N   UNL     1       5.185   5.167  -0.124  0.00  0.00    -0.239 NA
ATOM     23  C   UNL     1       6.433   5.590  -0.190  0.00  0.00    +0.079 A 
ATOM     24  C   UNL     1       7.431   4.700  -0.493  0.00  0.00    +0.075 A 
ATOM     25  S   UNL     1       6.486   3.193  -0.678  0.00  0.00    -0.075 S 
BRANCH  23  26
ATOM     26  C   UNL     1       6.753   7.018   0.057  0.00  0.00    +0.001 A 
ATOM     27  C   UNL     1       8.073   7.461  -0.013  0.00  0.00    +0.011 A 
ATOM     28  C   UNL     1       8.364   8.791   0.211  0.00  0.00    +0.016 A 
ATOM     29  C   UNL     1       7.351   9.682   0.517  0.00  0.00    +0.018 A 
ATOM     30  C   UNL     1       6.039   9.246   0.594  0.00  0.00    +0.016 A 
ATOM     31  C   UNL     1       5.736   7.919   0.365  0.00  0.00    +0.011 A 
ATOM     32 BR   UNL     1       7.759  11.501   0.832  0.00  0.00    -0.050 Br
ENDBRANCH  23  26
ENDBRANCH   3  21
BRANCH   8  33
ATOM     33  O   UNL     1      -2.396   1.077  -0.029  0.00  0.00    -0.507 OA
ATOM     34  H   UNL     1      -2.382  -0.022  -0.044  0.00  0.00    +0.292 HD
ENDBRANCH   8  33
TORSDOF 5
