REMARK  Name = ZINC20635025
REMARK  6 active torsions:
REMARK  status: ('A' for Active; 'I' for Inactive)
REMARK    1  A    between atoms: N_11  and  C_12
REMARK    2  A    between atoms: N_11  and  C_19
REMARK    3  A    between atoms: C_12  and  C_13
REMARK    4  A    between atoms: C_19  and  N_20
REMARK    5  A    between atoms: N_29  and  C_30
REMARK    6  A    between atoms: C_30  and  C_31
REMARK                            x       y       z     vdW  Elec       q    Type
REMARK                         _______ _______ _______ _____ _____    ______ ____
ROOT
ATOM      1  C   UNL     1      -2.485  -0.362   0.030  0.00  0.00    +0.236 C 
ENDROOT
BRANCH   1   2
ATOM      2  N   UNL     1      -1.082  -0.780  -0.006  0.00  0.00    -0.297 N 
ATOM      3  C   UNL     1      -0.614  -2.075  -0.158  0.00  0.00    +0.069 A 
ATOM      4  C   UNL     1      -1.230  -3.308  -0.314  0.00  0.00    +0.028 A 
ATOM      5  C   UNL     1      -0.463  -4.448  -0.438  0.00  0.00    +0.002 A 
ATOM      6  C   UNL     1       0.921  -4.370  -0.408  0.00  0.00    +0.002 A 
ATOM      7  C   UNL     1       1.550  -3.155  -0.255  0.00  0.00    +0.028 A 
ATOM      8  C   UNL     1       0.788  -1.991  -0.128  0.00  0.00    +0.066 A 
ATOM      9  N   UNL     1       1.106  -0.679   0.033  0.00  0.00    -0.327 N 
ATOM     10  C   UNL     1       0.009   0.034   0.101  0.00  0.00    +0.176 A 
ATOM     11  N   UNL     1      -0.037   1.403   0.264  0.00  0.00    -0.314 N 
ATOM     12  H   UNL     1      -1.007   1.919   0.311  0.00  0.00    +0.149 HD
ATOM     13  H   UNL     1       2.160  -0.371   0.085  0.00  0.00    +0.169 HD
BRANCH  11  14
ATOM     14  C   UNL     1       1.207   2.169   0.373  0.00  0.00    +0.135 C 
BRANCH  14  15
ATOM     15  C   UNL     1       0.877   3.654   0.545  0.00  0.00    +0.135 C 
ATOM     16  C   UNL     1       2.172   4.496   0.537  0.00  0.00    +0.035 C 
ATOM     17  C   UNL     1       1.905   5.605   1.580  0.00  0.00    +0.031 C 
ATOM     18  C   UNL     1       0.480   5.301   2.094  0.00  0.00    +0.160 C 
ATOM     19  O   UNL     1       0.290   3.891   1.843  0.00  0.00    -0.375 OA
ENDBRANCH  14  15
ENDBRANCH  11  14
ENDBRANCH   1   2
BRANCH   1  30
ATOM     20  C   UNL     1      -5.798  -4.601  -3.861  0.00  0.00    +0.002 A 
ATOM     21  C   UNL     1      -5.778  -3.760  -4.963  0.00  0.00    +0.002 A 
ATOM     22  C   UNL     1      -5.192  -2.517  -4.883  0.00  0.00    +0.030 A 
ATOM     23  C   UNL     1      -4.614  -2.099  -3.682  0.00  0.00    +0.091 A 
ATOM     24  C   UNL     1      -4.637  -2.954  -2.569  0.00  0.00    +0.067 A 
ATOM     25  C   UNL     1      -5.232  -4.203  -2.667  0.00  0.00    +0.028 A 
ATOM     26  N   UNL     1      -3.999  -2.272  -1.546  0.00  0.00    -0.326 N 
ATOM     27  H   UNL     1      -3.889  -2.741  -0.557  0.00  0.00    +0.169 HD
ATOM     28  C   UNL     1      -3.616  -1.060  -2.044  0.00  0.00    +0.198 A 
ATOM     29  N   UNL     1      -3.982  -0.958  -3.298  0.00  0.00    -0.214 NA
ATOM     30  N   UNL     1      -2.947  -0.086  -1.333  0.00  0.00    -0.281 N 
BRANCH  30  31
ATOM     31  C   UNL     1      -2.700   1.224  -1.939  0.00  0.00    +0.141 C 
BRANCH  31  32
ATOM     32  C   UNL     1      -1.358   1.201  -2.673  0.00  0.00    +0.136 C 
ATOM     33  C   UNL     1      -1.036   2.598  -3.248  0.00  0.00    +0.035 C 
ATOM     34  C   UNL     1      -0.357   2.299  -4.604  0.00  0.00    +0.031 C 
ATOM     35  C   UNL     1      -0.350   0.757  -4.688  0.00  0.00    +0.160 C 
ATOM     36  O   UNL     1      -1.430   0.333  -3.825  0.00  0.00    -0.375 OA
ENDBRANCH  31  32
ENDBRANCH  30  31
ENDBRANCH   1  30
TORSDOF 6
