REMARK  Name = ZINC04177933
REMARK  5 active torsions:
REMARK  status: ('A' for Active; 'I' for Inactive)
REMARK    1  A    between atoms: C_1  and  C_2
REMARK    2  A    between atoms: C_2  and  C_3
REMARK    3  A    between atoms: C_10  and  N_15
REMARK    4  A    between atoms: C_11  and  C_12
REMARK    5  A    between atoms: C_16  and  C_18
REMARK                            x       y       z     vdW  Elec       q    Type
REMARK                         _______ _______ _______ _____ _____    ______ ____
ROOT
ATOM      1  N   UNL     1      -7.064  -2.191  -2.454  0.00  0.00    -0.279 N 
ATOM      2  C   UNL     1      -7.621  -1.442  -3.426  0.00  0.00    +0.230 C 
ATOM      3  O   UNL     1      -7.018  -0.493  -3.882  0.00  0.00    -0.274 OA
ATOM      4  H   UNL     1      -7.547  -2.949  -2.090  0.00  0.00    +0.155 HD
ENDROOT
BRANCH   2   5
ATOM      5  C   UNL     1      -8.994  -1.782  -3.946  0.00  0.00    +0.142 C 
ATOM      6  C   UNL     1      -8.984  -3.182  -4.497  0.00  0.00    +0.011 A 
ATOM      7  C   UNL     1      -9.033  -4.255  -3.624  0.00  0.00    +0.008 A 
ATOM      8  C   UNL     1      -9.025  -5.548  -4.111  0.00  0.00    +0.001 A 
ATOM      9  C   UNL     1      -8.968  -5.775  -5.474  0.00  0.00    +0.004 A 
ATOM     10  C   UNL     1      -8.919  -4.708  -6.349  0.00  0.00    +0.046 A 
ATOM     11  C   UNL     1      -8.927  -3.406  -5.863  0.00  0.00    +0.133 A 
ATOM     12  O   UNL     1      -8.880  -2.373  -6.737  0.00  0.00    -0.455 OA
ATOM     13  C   UNL     1      -9.302  -1.143  -6.357  0.00  0.00    +0.133 A 
ATOM     14  C   UNL     1      -9.379  -0.798  -5.018  0.00  0.00    +0.011 A 
ATOM     15  C   UNL     1      -9.813   0.465  -4.655  0.00  0.00    +0.008 A 
ATOM     16  C   UNL     1     -10.170   1.383  -5.624  0.00  0.00    +0.001 A 
ATOM     17  C   UNL     1     -10.095   1.041  -6.962  0.00  0.00    +0.004 A 
ATOM     18  C   UNL     1      -9.662  -0.217  -7.330  0.00  0.00    +0.046 A 
ENDBRANCH   2   5
BRANCH   1  25
ATOM     19  C   UNL     1      -1.433  -0.534   0.013  0.00  0.00    -0.006 C 
ATOM     20  C   UNL     1      -1.416  -2.061   0.124  0.00  0.00    +0.008 C 
ATOM     21  C   UNL     1      -2.832  -2.580   0.383  0.00  0.00    +0.037 C 
ATOM     22  C   UNL     1      -3.765  -1.998  -0.668  0.00  0.00    -0.023 A 
ATOM     23  C   UNL     1      -3.416  -0.912  -1.391  0.00  0.00    -0.004 A 
ATOM     24  S   UNL     1      -4.797  -0.621  -2.458  0.00  0.00    -0.077 S 
ATOM     25  C   UNL     1      -5.801  -1.877  -1.976  0.00  0.00    +0.084 A 
ATOM     26  C   UNL     1      -5.078  -2.529  -0.989  0.00  0.00    +0.068 A 
ATOM     27  C   UNL     1      -2.138  -0.136  -1.292  0.00  0.00    +0.046 C 
BRANCH  26  28
ATOM     28  C   UNL     1      -5.615  -3.706  -0.299  0.00  0.00    +0.244 C 
ATOM     29  O   UNL     1      -6.271  -3.569   0.717  0.00  0.00    -0.270 OA
ATOM     30  N   UNL     1      -5.384  -4.939  -0.791  0.00  0.00    -0.325 N 
ATOM     31  H   UNL     1      -4.862  -5.049  -1.601  0.00  0.00    +0.145 HD
ATOM     32  H   UNL     1      -5.739  -5.718  -0.334  0.00  0.00    +0.145 HD
ENDBRANCH  26  28
BRANCH  19  34
ATOM     33  C   UNL     1      -0.019   1.526   0.010  0.00  0.00    +0.004 C 
ATOM     34  C   UNL     1       0.002  -0.004   0.002  0.00  0.00    +0.000 C 
ENDBRANCH  19  34
ENDBRANCH   1  25
TORSDOF 4
