REMARK  Name = ZINC14546016
REMARK  4 active torsions:
REMARK  status: ('A' for Active; 'I' for Inactive)
REMARK    1  A    between atoms: C_1  and  O_2
REMARK    2  A    between atoms: O_2  and  C_3
REMARK    3  A    between atoms: C_8  and  C_9
REMARK    4  A    between atoms: C_22  and  O_25
REMARK                            x       y       z     vdW  Elec       q    Type
REMARK                         _______ _______ _______ _____ _____    ______ ____
ROOT
ATOM      1  C   UNL     1      -0.013   1.086   0.008  0.00  0.00    +0.109 C 
ATOM      2  C   UNL     1      -0.773   1.648  -1.195  0.00  0.00    +0.029 C 
ATOM      3  C   UNL     1       0.071   1.362  -2.469  0.00  0.00    +0.033 C 
ATOM      4  C   UNL     1       1.087   2.487  -2.481  0.00  0.00    -0.030 C 
ATOM      5  C   UNL     1       0.663   3.497  -1.763  0.00  0.00    -0.023 C 
ATOM      6  C   UNL     1      -0.690   3.189  -1.164  0.00  0.00    +0.049 C 
ATOM      7  C   UNL     1      -0.782   3.717   0.237  0.00  0.00    -0.016 A 
ATOM      8  C   UNL     1      -0.880   5.093   0.409  0.00  0.00    +0.006 A 
ATOM      9  C   UNL     1      -0.965   5.641   1.672  0.00  0.00    +0.004 A 
ATOM     10  C   UNL     1      -0.955   4.821   2.785  0.00  0.00    +0.047 A 
ATOM     11  C   UNL     1      -0.859   3.452   2.627  0.00  0.00    +0.138 A 
ATOM     12  C   UNL     1      -0.772   2.894   1.347  0.00  0.00    +0.073 A 
ATOM     13  N   UNL     1      -0.678   1.504   1.242  0.00  0.00    -0.334 N 
ATOM     14  H   UNL     1      -0.220   1.111   2.051  0.00  0.00    +0.147 HD
ENDROOT
BRANCH   1  20
ATOM     15  C   UNL     1       2.388   0.925  -0.700  0.00  0.00    +0.125 A 
ATOM     16  C   UNL     1       3.687   1.411  -0.711  0.00  0.00    +0.046 A 
ATOM     17  C   UNL     1       3.998   2.566  -0.021  0.00  0.00    +0.004 A 
ATOM     18  C   UNL     1       3.014   3.242   0.678  0.00  0.00    +0.001 A 
ATOM     19  C   UNL     1       1.717   2.763   0.686  0.00  0.00    +0.009 A 
ATOM     20  C   UNL     1       1.401   1.608  -0.003  0.00  0.00    +0.015 A 
BRANCH  15  22
ATOM     21  C   UNL     1       3.147  -0.864  -2.069  0.00  0.00    +0.277 C 
ATOM     22  O   UNL     1       2.080  -0.214  -1.373  0.00  0.00    -0.495 OA
ENDBRANCH  15  22
ENDBRANCH   1  20
BRANCH  11  23
ATOM     23  O   UNL     1      -0.848   2.642   3.720  0.00  0.00    -0.505 OA
ATOM     24  H   UNL     1       0.036   2.466   4.070  0.00  0.00    +0.292 HD
ENDBRANCH  11  23
TORSDOF 3
