REMARK  Name = ZINC49932211
REMARK  6 active torsions:
REMARK  status: ('A' for Active; 'I' for Inactive)
REMARK    1  A    between atoms: C_1  and  C_2
REMARK    2  A    between atoms: C_2  and  C_3
REMARK    3  A    between atoms: C_2  and  N_4
REMARK    4  A    between atoms: C_5  and  C_7
REMARK    5  A    between atoms: C_7  and  S_8
REMARK    6  A    between atoms: S_8  and  C_9
REMARK                            x       y       z     vdW  Elec       q    Type
REMARK                         _______ _______ _______ _____ _____    ______ ____
ROOT
ATOM      1  C   UNL     1      -5.739  -1.846  -2.652  0.00  0.00    +0.191 A 
ATOM      2  N   UNL     1      -6.492  -2.019  -3.732  0.00  0.00    -0.207 NA
ATOM      3  C   UNL     1      -7.728  -2.482  -3.660  0.00  0.00    +0.129 A 
ATOM      4  C   UNL     1      -8.277  -2.808  -2.388  0.00  0.00    +0.047 A 
ATOM      5  C   UNL     1      -9.592  -3.326  -2.050  0.00  0.00    +0.021 A 
ATOM      6  C   UNL     1      -9.892  -3.562  -0.765  0.00  0.00    +0.048 A 
ATOM      7  S   UNL     1      -8.405  -3.098   0.102  0.00  0.00    -0.077 S 
ATOM      8  C   UNL     1      -7.420  -2.599  -1.285  0.00  0.00    +0.114 A 
ATOM      9  N   UNL     1      -6.195  -2.138  -1.442  0.00  0.00    -0.215 NA
ATOM     10  N   UNL     1      -8.481  -2.648  -4.808  0.00  0.00    -0.343 N 
ATOM     11  H   UNL     1      -8.102  -2.424  -5.673  0.00  0.00    +0.144 HD
ATOM     12  H   UNL     1      -9.387  -2.988  -4.749  0.00  0.00    +0.144 HD
ENDROOT
BRANCH   1  13
ATOM     13  S   UNL     1      -4.100  -1.225  -2.832  0.00  0.00    -0.077 S 
BRANCH  13  14
ATOM     14  C   UNL     1      -3.465  -1.164  -1.134  0.00  0.00    +0.173 C 
BRANCH  14  16
ATOM     15  N   UNL     1      -1.372  -0.511   0.012  0.00  0.00    -0.312 N 
ATOM     16  C   UNL     1      -2.051  -0.643  -1.145  0.00  0.00    +0.224 C 
ATOM     17  O   UNL     1      -1.524  -0.341  -2.194  0.00  0.00    -0.275 OA
ATOM     18  H   UNL     1      -1.794  -0.752   0.852  0.00  0.00    +0.149 HD
BRANCH  15  20
ATOM     19  C   UNL     1      -0.019   1.526   0.010  0.00  0.00    +0.027 C 
ATOM     20  C   UNL     1       0.002  -0.004   0.002  0.00  0.00    +0.067 C 
ATOM     21  C   UNL     1       0.742  -0.511   1.242  0.00  0.00    +0.027 C 
ENDBRANCH  15  20
ENDBRANCH  14  16
ENDBRANCH  13  14
ENDBRANCH   1  13
TORSDOF 4
