REMARK  Name = ZINC38647792
REMARK  9 active torsions:
REMARK  status: ('A' for Active; 'I' for Inactive)
REMARK    1  A    between atoms: C_1  and  O_2
REMARK    2  A    between atoms: O_2  and  C_3
REMARK    3  A    between atoms: C_8  and  C_9
REMARK    4  A    between atoms: C_9  and  N_10
REMARK    5  A    between atoms: C_11  and  C_13
REMARK    6  A    between atoms: N_22  and  N_23
REMARK    7  A    between atoms: N_23  and  C_24
REMARK    8  A    between atoms: C_27  and  N_30
REMARK    9  A    between atoms: N_31  and  C_32
REMARK                            x       y       z     vdW  Elec       q    Type
REMARK                         _______ _______ _______ _____ _____    ______ ____
ROOT
ATOM      1  C   UNL     1      -3.614  -3.700   0.430  0.00  0.00    +0.086 C 
ATOM      2  C   UNL     1      -4.401  -4.412   1.313  0.00  0.00    +0.025 C 
ATOM      3  C   UNL     1      -5.792  -4.545   1.129  0.00  0.00    -0.015 A 
ATOM      4  C   UNL     1      -6.591  -5.104   2.141  0.00  0.00    +0.008 A 
ATOM      5  C   UNL     1      -7.941  -5.205   1.966  0.00  0.00    +0.001 A 
ATOM      6  C   UNL     1      -8.545  -4.766   0.794  0.00  0.00    +0.001 A 
ATOM      7  C   UNL     1      -7.788  -4.224  -0.223  0.00  0.00    +0.011 A 
ATOM      8  C   UNL     1      -6.409  -4.116  -0.069  0.00  0.00    +0.013 A 
ATOM      9  C   UNL     1      -5.560  -3.570  -1.149  0.00  0.00    +0.137 C 
ATOM     10  N   UNL     1      -5.942  -3.567  -2.413  0.00  0.00    -0.178 NA
ATOM     11  C   UNL     1      -4.251  -3.019  -0.713  0.00  0.00    +0.218 C 
ATOM     12  O   UNL     1      -3.732  -2.065  -1.268  0.00  0.00    -0.285 OA
ENDROOT
BRANCH   1  14
ATOM     13  N   UNL     1      -1.398  -2.912  -0.233  0.00  0.00    -0.307 N 
ATOM     14  C   UNL     1      -2.158  -3.615   0.631  0.00  0.00    +0.248 C 
ATOM     15  O   UNL     1      -1.640  -4.179   1.576  0.00  0.00    -0.270 OA
ATOM     16  H   UNL     1      -1.811  -2.462  -0.986  0.00  0.00    +0.149 HD
BRANCH  13  17
ATOM     17  C   UNL     1       0.051  -2.828  -0.033  0.00  0.00    +0.143 C 
BRANCH  17  23
ATOM     18  C   UNL     1       0.606  -0.607  -1.056  0.00  0.00    +0.125 A 
ATOM     19  C   UNL     1       1.173   0.161  -2.063  0.00  0.00    +0.046 A 
ATOM     20  C   UNL     1       1.786  -0.455  -3.136  0.00  0.00    +0.004 A 
ATOM     21  C   UNL     1       1.836  -1.835  -3.208  0.00  0.00    +0.001 A 
ATOM     22  C   UNL     1       1.271  -2.602  -2.207  0.00  0.00    +0.009 A 
ATOM     23  C   UNL     1       0.661  -1.991  -1.128  0.00  0.00    +0.011 A 
BRANCH  18  25
ATOM     24  C   UNL     1      -0.017   1.425   0.010  0.00  0.00    +0.277 C 
ATOM     25  O   UNL     1       0.002  -0.004   0.002  0.00  0.00    -0.495 OA
ENDBRANCH  18  25
ENDBRANCH  17  23
ENDBRANCH  13  17
ENDBRANCH   1  14
BRANCH  10  26
ATOM     26  N   UNL     1      -5.166  -3.078  -3.320  0.00  0.00    -0.237 N 
ATOM     27  H   UNL     1      -4.302  -2.713  -3.074  0.00  0.00    +0.174 HD
BRANCH  26  28
ATOM     28  C   UNL     1      -5.568  -3.076  -4.651  0.00  0.00    +0.048 A 
ATOM     29  C   UNL     1      -6.812  -3.596  -5.002  0.00  0.00    +0.027 A 
ATOM     30  C   UNL     1      -7.213  -3.595  -6.319  0.00  0.00    +0.031 A 
ATOM     31  C   UNL     1      -6.370  -3.071  -7.305  0.00  0.00    +0.086 A 
ATOM     32  C   UNL     1      -5.122  -2.549  -6.949  0.00  0.00    +0.031 A 
ATOM     33  C   UNL     1      -4.729  -2.548  -5.630  0.00  0.00    +0.027 A 
BRANCH  31  34
ATOM     34  N   UNL     1      -6.764  -3.069  -8.612  0.00  0.00    -0.149 NA
ATOM     35  N   UNL     1      -5.986  -2.585  -9.520  0.00  0.00    -0.149 NA
BRANCH  35  36
ATOM     36  C   UNL     1      -6.381  -2.583 -10.828  0.00  0.00    +0.086 A 
ATOM     37  C   UNL     1      -7.630  -3.099 -11.185  0.00  0.00    +0.029 A 
ATOM     38  C   UNL     1      -8.022  -3.094 -12.508  0.00  0.00    +0.002 A 
ATOM     39  C   UNL     1      -7.182  -2.579 -13.480  0.00  0.00    +0.000 A 
ATOM     40  C   UNL     1      -5.944  -2.066 -13.133  0.00  0.00    +0.002 A 
ATOM     41  C   UNL     1      -5.541  -2.060 -11.815  0.00  0.00    +0.029 A 
ENDBRANCH  35  36
ENDBRANCH  31  34
ENDBRANCH  26  28
ENDBRANCH  10  26
TORSDOF 8
