REMARK  Name = ZINC31609081
REMARK  7 active torsions:
REMARK  status: ('A' for Active; 'I' for Inactive)
REMARK    1  A    between atoms: C_1  and  C_2
REMARK    2  A    between atoms: C_12  and  C_16
REMARK    3  A    between atoms: N_18  and  C_19
REMARK    4  A    between atoms: C_23  and  N_25
REMARK    5  A    between atoms: C_26  and  C_28
REMARK    6  A    between atoms: C_28  and  C_30
REMARK    7  A    between atoms: C_28  and  N_31
REMARK                            x       y       z     vdW  Elec       q    Type
REMARK                         _______ _______ _______ _____ _____    ______ ____
ROOT
ATOM      1  C   UNL     1      -2.743   5.906   6.565  0.00  0.00    +0.250 C 
ATOM      2  O   UNL     1      -2.451   4.918   7.212  0.00  0.00    -0.270 OA
ATOM      3  N   UNL     1      -3.365   6.942   7.162  0.00  0.00    -0.281 N 
ATOM      4  H   UNL     1      -3.554   7.868   6.599  0.00  0.00    +0.155 HD
ENDROOT
BRANCH   1  15
ATOM      5  C   UNL     1       0.713   1.342   0.208  0.00  0.00    +0.008 C 
ATOM      6  C   UNL     1      -0.062   1.781   1.452  0.00  0.00    -0.009 C 
ATOM      7  C   UNL     1       0.738   1.421   2.707  0.00  0.00    +0.009 C 
ATOM      8  C   UNL     1      -0.138   1.629   3.947  0.00  0.00    +0.054 C 
ATOM      9  C   UNL     1      -0.753   3.007   3.876  0.00  0.00    +0.020 A 
ATOM     10  C   UNL     1      -0.814   3.745   2.747  0.00  0.00    -0.019 A 
ATOM     11  C   UNL     1      -1.468   4.991   3.088  0.00  0.00    +0.004 A 
ATOM     12  C   UNL     1      -1.801   6.123   2.339  0.00  0.00    +0.010 A 
ATOM     13  C   UNL     1      -2.438   7.157   3.006  0.00  0.00    +0.001 A 
ATOM     14  C   UNL     1      -2.739   7.088   4.352  0.00  0.00    +0.015 A 
ATOM     15  C   UNL     1      -2.418   5.969   5.128  0.00  0.00    +0.061 A 
ATOM     16  C   UNL     1      -1.770   4.906   4.471  0.00  0.00    +0.059 A 
ATOM     17  N   UNL     1      -1.326   3.699   4.912  0.00  0.00    -0.357 N 
ATOM     18  H   UNL     1      -1.369   3.252   5.916  0.00  0.00    +0.166 HD
ATOM     19  C   UNL     1      -0.282   3.298   1.408  0.00  0.00    +0.040 C 
ENDBRANCH   1  15
BRANCH   3  20
ATOM     20  C   UNL     1      -3.768   6.841   8.497  0.00  0.00    +0.035 A 
ATOM     21  C   UNL     1      -3.751   7.964   9.316  0.00  0.00    +0.023 A 
ATOM     22  C   UNL     1      -4.151   7.865  10.634  0.00  0.00    +0.004 A 
ATOM     23  C   UNL     1      -4.568   6.650  11.144  0.00  0.00    +0.023 A 
ATOM     24  C   UNL     1      -4.587   5.524  10.331  0.00  0.00    +0.035 A 
ATOM     25  C   UNL     1      -4.192   5.621   9.004  0.00  0.00    +0.046 A 
BRANCH  24  26
ATOM     26  N   UNL     1      -5.010   4.294  10.847  0.00  0.00    -0.284 N 
ATOM     27  C   UNL     1      -6.004   4.251  11.757  0.00  0.00    +0.242 C 
ATOM     28  O   UNL     1      -6.475   5.281  12.189  0.00  0.00    -0.273 OA
ATOM     29  H   UNL     1      -4.531   3.362  10.511  0.00  0.00    +0.155 HD
BRANCH  27  30
ATOM     30  C   UNL     1      -6.529   2.922  12.235  0.00  0.00    +0.190 C 
ATOM     31  C   UNL     1      -7.082   2.134  11.046  0.00  0.00    +0.042 C 
BRANCH  30  32
ATOM     32  N   UNL     1      -7.598   3.143  13.213  0.00  0.00    -0.260 N 
ATOM     33  C   UNL     1      -8.899   3.364  12.931  0.00  0.00    +0.109 A 
ATOM     34  C   UNL     1      -9.555   3.516  14.105  0.00  0.00    +0.041 A 
ATOM     35  C   UNL     1      -8.622   3.393  15.139  0.00  0.00    +0.134 A 
ATOM     36  N   UNL     1      -7.448   3.169  14.606  0.00  0.00    -0.179 NA
ENDBRANCH  30  32
ENDBRANCH  27  30
ENDBRANCH  24  26
ENDBRANCH   3  20
TORSDOF 5
