REMARK  Name = ZINC19294733
REMARK  10 active torsions:
REMARK  status: ('A' for Active; 'I' for Inactive)
REMARK    1  A    between atoms: C_1  and  C_2
REMARK    2  A    between atoms: C_2  and  C_3
REMARK    3  A    between atoms: C_3  and  C_29
REMARK    4  A    between atoms: N_6  and  N_10
REMARK    5  A    between atoms: C_11  and  C_13
REMARK    6  A    between atoms: C_13  and  O_14
REMARK    7  A    between atoms: O_14  and  C_15
REMARK    8  A    between atoms: C_15  and  C_17
REMARK    9  A    between atoms: C_18  and  C_22
REMARK   10  A    between atoms: C_25  and  C_28
REMARK                            x       y       z     vdW  Elec       q    Type
REMARK                         _______ _______ _______ _____ _____    ______ ____
ROOT
ATOM      1  C   UNL     1      -3.463   3.102   0.037  0.00  0.00    +0.329 C 
ENDROOT
BRANCH   1   3
ATOM      2  N   UNL     1      -5.936   3.056   0.050  0.00  0.00    -0.221 N 
ATOM      3  C   UNL     1      -4.778   2.366   0.040  0.00  0.00    +0.267 C 
ATOM      4  O   UNL     1      -4.794   1.154   0.034  0.00  0.00    -0.271 OA
ATOM      5  H   UNL     1      -5.921   4.156   0.055  0.00  0.00    +0.174 HD
BRANCH   2   9
ATOM      6  C   UNL     1      -9.157   1.447  -0.554  0.00  0.00    +0.111 C 
ATOM      7  C   UNL     1      -7.968   2.264  -1.019  0.00  0.00    +0.263 C 
ATOM      8  O   UNL     1      -7.783   2.723  -2.126  0.00  0.00    -0.271 OA
ATOM      9  N   UNL     1      -7.158   2.372   0.053  0.00  0.00    -0.137 N 
ATOM     10  C   UNL     1      -7.669   1.749   1.121  0.00  0.00    +0.326 C 
ATOM     11  O   UNL     1      -7.122   1.712   2.206  0.00  0.00    -0.251 OA
ATOM     12  N   UNL     1      -8.854   1.170   0.861  0.00  0.00    -0.284 N 
ATOM     13  C   UNL     1      -9.264   0.143  -1.347  0.00  0.00    +0.041 C 
ATOM     14  H   UNL     1      -9.559   0.584   1.470  0.00  0.00    +0.151 HD
BRANCH   6  16
ATOM     15  C   UNL     1     -11.591   1.508   0.009  0.00  0.00    +0.006 C 
ATOM     16  C   UNL     1     -10.448   2.258  -0.679  0.00  0.00    +0.032 C 
ENDBRANCH   6  16
ENDBRANCH   2   9
ENDBRANCH   1   3
BRANCH   1  17
ATOM     17  O   UNL     1      -2.389   2.159   0.026  0.00  0.00    -0.451 OA
BRANCH  17  18
ATOM     18  C   UNL     1      -1.135   2.659   0.022  0.00  0.00    +0.347 C 
ATOM     19  O   UNL     1      -0.960   3.862   0.027  0.00  0.00    -0.244 OA
BRANCH  18  20
ATOM     20  C   UNL     1      -0.022   1.780   0.012  0.00  0.00    +0.104 A 
ATOM     21  C   UNL     1       1.343   2.086   0.000  0.00  0.00    +0.003 A 
ATOM     22  C   UNL     1       2.217   1.013  -0.014  0.00  0.00    +0.017 A 
ATOM     23  C   UNL     1       1.718  -0.247  -0.016  0.00  0.00    +0.046 A 
ATOM     24  S   UNL     1       0.002  -0.004   0.002  0.00  0.00    -0.090 S 
BRANCH  21  25
ATOM     25  C   UNL     1       1.827   3.485   0.003  0.00  0.00    -0.017 A 
ATOM     26  C   UNL     1       1.319   4.404  -0.915  0.00  0.00    +0.009 A 
ATOM     27  C   UNL     1       1.770   5.708  -0.905  0.00  0.00    +0.004 A 
ATOM     28  C   UNL     1       2.733   6.102   0.007  0.00  0.00    -0.050 A 
ATOM     29  C   UNL     1       3.245   5.194   0.917  0.00  0.00    +0.004 A 
ATOM     30  C   UNL     1       2.798   3.889   0.920  0.00  0.00    +0.009 A 
ATOM     31  C   UNL     1       3.227   7.526   0.009  0.00  0.00    +0.044 C 
ENDBRANCH  21  25
ENDBRANCH  18  20
ENDBRANCH  17  18
ENDBRANCH   1  17
TORSDOF 7
