REMARK  Name = ZINC07159515
REMARK  4 active torsions:
REMARK  status: ('A' for Active; 'I' for Inactive)
REMARK    1  A    between atoms: C_1  and  C_2
REMARK    2  A    between atoms: C_2  and  C_15
REMARK    3  A    between atoms: N_3  and  N_4
REMARK    4  A    between atoms: C_18  and  N_21
REMARK                            x       y       z     vdW  Elec       q    Type
REMARK                         _______ _______ _______ _____ _____    ______ ____
ROOT
ATOM      1  C   UNL     1      -0.074   1.501   0.010  0.00  0.00    +0.068 C 
ATOM      2  C   UNL     1       0.002  -0.004   0.002  0.00  0.00    +0.063 C 
ATOM      3  N   UNL     1       0.048  -0.645  -1.126  0.00  0.00    -0.186 NA
ENDROOT
BRANCH   3   4
ATOM      4  N   UNL     1       0.027   0.061  -2.335  0.00  0.00    -0.221 N 
ATOM      5  C   UNL     1       0.077  -0.624  -3.539  0.00  0.00    +0.139 A 
ATOM      6  C   UNL     1       0.055   0.100  -4.741  0.00  0.00    +0.046 A 
ATOM      7  C   UNL     1       0.103  -0.559  -5.931  0.00  0.00    +0.013 A 
ATOM      8  C   UNL     1       0.175  -1.968  -5.913  0.00  0.00    +0.001 A 
ATOM      9  C   UNL     1       0.228  -2.709  -7.103  0.00  0.00    +0.010 A 
ATOM     10  C   UNL     1       0.297  -4.069  -7.047  0.00  0.00    +0.001 A 
ATOM     11  C   UNL     1       0.316  -4.733  -5.822  0.00  0.00    +0.002 A 
ATOM     12  C   UNL     1       0.266  -4.044  -4.649  0.00  0.00    +0.028 A 
ATOM     13  C   UNL     1       0.194  -2.641  -4.667  0.00  0.00    +0.073 A 
ATOM     14  N   UNL     1       0.149  -1.939  -3.529  0.00  0.00    -0.231 NA
ATOM     15  H   UNL     1      -0.022   1.030  -2.330  0.00  0.00    +0.176 HD
ENDBRANCH   3   4
BRANCH   2  16
ATOM     16  C   UNL     1       0.024  -0.748   1.274  0.00  0.00    -0.002 A 
ATOM     17  C   UNL     1      -0.020  -0.059   2.490  0.00  0.00    +0.011 A 
ATOM     18  C   UNL     1      -0.004  -0.758   3.677  0.00  0.00    +0.024 A 
ATOM     19  C   UNL     1       0.066  -2.147   3.667  0.00  0.00    +0.030 A 
ATOM     20  C   UNL     1       0.116  -2.835   2.460  0.00  0.00    +0.024 A 
ATOM     21  C   UNL     1       0.095  -2.144   1.269  0.00  0.00    +0.011 A 
BRANCH  19  22
ATOM     22  N   UNL     1       0.087  -2.851   4.872  0.00  0.00    -0.330 N 
ATOM     23  C   UNL     1       0.194  -4.307   4.633  0.00  0.00    +0.105 C 
ATOM     24  C   UNL     1      -0.052  -5.122   5.873  0.00  0.00    +0.019 C 
ATOM     25  C   UNL     1      -1.542  -5.520   5.911  0.00  0.00    +0.002 C 
ATOM     26  C   UNL     1      -2.393  -4.425   6.364  0.00  0.00    +0.002 C 
ATOM     27  C   UNL     1      -2.310  -3.198   5.432  0.00  0.00    +0.019 C 
ATOM     28  C   UNL     1      -1.042  -2.450   5.740  0.00  0.00    +0.105 C 
ENDBRANCH  19  22
ENDBRANCH   2  16
TORSDOF 3
