REMARK  Name = ZINC32889183
REMARK  12 active torsions:
REMARK  status: ('A' for Active; 'I' for Inactive)
REMARK    1  A    between atoms: C_1  and  C_2
REMARK    2  A    between atoms: C_2  and  C_4
REMARK    3  A    between atoms: C_2  and  N_13
REMARK    4  A    between atoms: C_14  and  C_16
REMARK    5  A    between atoms: C_16  and  C_18
REMARK    6  A    between atoms: C_16  and  N_21
REMARK    7  A    between atoms: C_18  and  C_19
REMARK    8  A    between atoms: C_18  and  C_20
REMARK    9  A    between atoms: N_21  and  S_22
REMARK   10  A    between atoms: S_22  and  C_25
REMARK   11  A    between atoms: C_28  and  O_31
REMARK   12  A    between atoms: O_31  and  C_32
REMARK                            x       y       z     vdW  Elec       q    Type
REMARK                         _______ _______ _______ _____ _____    ______ ____
ROOT
ATOM      1  C   UNL     1      -3.444  -1.287  -1.174  0.00  0.00    +0.165 C 
ENDROOT
BRANCH   1   3
ATOM      2  N   UNL     1      -1.176  -0.682  -0.392  0.00  0.00    -0.307 N 
ATOM      3  C   UNL     1      -2.119  -0.591  -1.351  0.00  0.00    +0.232 C 
ATOM      4  O   UNL     1      -1.902   0.052  -2.356  0.00  0.00    -0.274 OA
ATOM      5  H   UNL     1      -1.376  -1.135   0.443  0.00  0.00    +0.149 HD
BRANCH   2   7
ATOM      6  C   UNL     1       0.122   1.384  -0.236  0.00  0.00    +0.033 C 
ATOM      7  C   UNL     1       0.150  -0.099  -0.610  0.00  0.00    +0.100 C 
BRANCH   7   8
ATOM      8  C   UNL     1       1.161  -0.815   0.248  0.00  0.00    -0.024 A 
ATOM      9  C   UNL     1       0.831  -1.187   1.538  0.00  0.00    +0.009 A 
ATOM     10  C   UNL     1       1.755  -1.844   2.328  0.00  0.00    +0.050 A 
ATOM     11  C   UNL     1       3.015  -2.132   1.829  0.00  0.00    +0.166 A 
ATOM     12  C   UNL     1       3.347  -1.757   0.529  0.00  0.00    +0.167 A 
ATOM     13  C   UNL     1       2.414  -1.104  -0.259  0.00  0.00    +0.055 A 
ATOM     14  O   UNL     1       4.630  -2.148   0.277  0.00  0.00    -0.453 OA
ATOM     15  C   UNL     1       5.216  -2.401   1.568  0.00  0.00    +0.466 C 
ATOM     16  O   UNL     1       4.090  -2.758   2.391  0.00  0.00    -0.453 OA
ENDBRANCH   7   8
ENDBRANCH   2   7
ENDBRANCH   1   3
BRANCH   1  17
ATOM     17  C   UNL     1      -4.405  -0.370  -0.415  0.00  0.00    +0.010 C 
ATOM     18  C   UNL     1      -3.880  -0.143   1.004  0.00  0.00    +0.009 C 
ATOM     19  C   UNL     1      -4.509   0.972  -1.141  0.00  0.00    +0.009 C 
ENDBRANCH   1  17
BRANCH   1  20
ATOM     20  N   UNL     1      -4.008  -1.605  -2.488  0.00  0.00    -0.178 NA
ATOM     21  H   UNL     1      -3.871  -1.000  -3.234  0.00  0.00    +0.149 HD
BRANCH  20  22
ATOM     22  S   UNL     1      -4.878  -2.998  -2.701  0.00  0.00    +0.059 S 
ATOM     23  O   UNL     1      -5.306  -3.006  -4.056  0.00  0.00    -0.153 OA
ATOM     24  O   UNL     1      -4.104  -4.050  -2.140  0.00  0.00    -0.153 OA
BRANCH  22  25
ATOM     25  C   UNL     1      -6.331  -2.860  -1.714  0.00  0.00    +0.105 A 
ATOM     26  C   UNL     1      -6.321  -3.303  -0.405  0.00  0.00    +0.032 A 
ATOM     27  C   UNL     1      -7.459  -3.197   0.371  0.00  0.00    +0.047 A 
ATOM     28  C   UNL     1      -8.613  -2.644  -0.166  0.00  0.00    +0.120 A 
ATOM     29  C   UNL     1      -8.621  -2.200  -1.480  0.00  0.00    +0.047 A 
ATOM     30  C   UNL     1      -7.479  -2.304  -2.250  0.00  0.00    +0.032 A 
BRANCH  28  31
ATOM     31  O   UNL     1      -9.735  -2.539   0.595  0.00  0.00    -0.495 OA
ATOM     32  C   UNL     1     -10.886  -1.960  -0.023  0.00  0.00    +0.277 C 
ENDBRANCH  28  31
ENDBRANCH  22  25
ENDBRANCH  20  22
ENDBRANCH   1  20
TORSDOF 8
