REMARK  Name = ZINC22938475
REMARK  8 active torsions:
REMARK  status: ('A' for Active; 'I' for Inactive)
REMARK    1  A    between atoms: C_1  and  C_2
REMARK    2  A    between atoms: C_5  and  C_7
REMARK    3  A    between atoms: C_7  and  C_9
REMARK    4  A    between atoms: C_7  and  N_28
REMARK    5  A    between atoms: C_9  and  N_10
REMARK    6  A    between atoms: C_11  and  C_13
REMARK    7  A    between atoms: C_15  and  C_18
REMARK    8  A    between atoms: N_31  and  C_34
REMARK                            x       y       z     vdW  Elec       q    Type
REMARK                         _______ _______ _______ _____ _____    ______ ____
ROOT
ATOM      1  N   UNL     1       3.312  -4.457   1.342  0.00  0.00    -0.308 N 
ATOM      2  C   UNL     1       3.990  -4.770   2.464  0.00  0.00    +0.266 C 
ATOM      3  O   UNL     1       3.762  -4.175   3.498  0.00  0.00    -0.268 OA
ATOM      4  H   UNL     1       3.494  -4.933   0.517  0.00  0.00    +0.149 HD
ENDROOT
BRANCH   2   5
ATOM      5  C   UNL     1       5.015  -5.842   2.436  0.00  0.00    +0.168 A 
ATOM      6  C   UNL     1       5.793  -6.275   3.532  0.00  0.00    +0.086 A 
ATOM      7  C   UNL     1       6.610  -7.271   3.097  0.00  0.00    +0.168 A 
ATOM      8  O   UNL     1       6.367  -7.464   1.788  0.00  0.00    -0.354 OA
ATOM      9  N   UNL     1       5.354  -6.558   1.391  0.00  0.00    -0.073 NA
BRANCH   7  10
ATOM     10  C   UNL     1       7.593  -8.010   3.918  0.00  0.00    +0.020 A 
ATOM     11  C   UNL     1       7.743  -7.713   5.273  0.00  0.00    +0.012 A 
ATOM     12  C   UNL     1       8.663  -8.408   6.024  0.00  0.00    +0.004 A 
ATOM     13  C   UNL     1       9.445  -9.404   5.448  0.00  0.00    -0.044 A 
ATOM     14  C   UNL     1       9.298  -9.705   4.111  0.00  0.00    -0.044 A 
ATOM     15  C   UNL     1       8.372  -9.012   3.346  0.00  0.00    +0.015 A 
ATOM     16  C   UNL     1      10.101 -10.783   3.430  0.00  0.00    +0.035 C 
ATOM     17  C   UNL     1      11.332 -11.141   4.260  0.00  0.00    +0.005 C 
ATOM     18  C   UNL     1      10.880 -11.429   5.696  0.00  0.00    +0.005 C 
ATOM     19  C   UNL     1      10.436 -10.114   6.334  0.00  0.00    +0.035 C 
ENDBRANCH   7  10
ENDBRANCH   2   5
BRANCH   1  20
ATOM     20  C   UNL     1       2.299  -3.399   1.370  0.00  0.00    +0.131 C 
BRANCH  20  21
ATOM     21  C   UNL     1       1.684  -3.245  -0.023  0.00  0.00    +0.140 C 
BRANCH  21  22
ATOM     22  N   UNL     1       2.750  -3.011  -1.006  0.00  0.00    -0.295 NA
ATOM     23  C   UNL     1       3.568  -1.849  -0.628  0.00  0.00    +0.066 C 
ATOM     24  C   UNL     1       4.700  -1.676  -1.643  0.00  0.00    -0.064 C 
ATOM     25  N   UNL     1       4.131  -1.481  -2.983  0.00  0.00    +0.379 N 
ATOM     26  C   UNL     1       3.337  -2.659  -3.356  0.00  0.00    -0.064 C 
ATOM     27  C   UNL     1       2.194  -2.841  -2.356  0.00  0.00    +0.066 C 
ATOM     28  C   UNL     1       5.218  -1.296  -3.954  0.00  0.00    -0.096 C 
ATOM     29  H   UNL     1       3.540  -0.663  -2.982  0.00  0.00    -0.082 HD
ENDBRANCH  21  22
BRANCH  21  34
ATOM     30  C   UNL     1      -0.060   1.487   0.044  0.00  0.00    +0.086 C 
ATOM     31  C   UNL     1      -0.026  -0.019   0.004  0.00  0.00    +0.102 A 
ATOM     32  C   UNL     1      -1.098  -0.829  -0.056  0.00  0.00    +0.045 A 
ATOM     33  C   UNL     1      -0.610  -2.155  -0.075  0.00  0.00    +0.046 A 
ATOM     34  C   UNL     1       0.732  -2.076  -0.025  0.00  0.00    +0.124 A 
ATOM     35  O   UNL     1       1.081  -0.780   0.017  0.00  0.00    -0.463 OA
ENDBRANCH  21  34
ENDBRANCH  20  21
ENDBRANCH   1  20
TORSDOF 6
