REMARK  Name = ZINC66559291
REMARK  10 active torsions:
REMARK  status: ('A' for Active; 'I' for Inactive)
REMARK    1  A    between atoms: C_1  and  C_2
REMARK    2  A    between atoms: C_2  and  C_3
REMARK    3  A    between atoms: C_3  and  C_4
REMARK    4  A    between atoms: C_4  and  N_5
REMARK    5  A    between atoms: N_5  and  C_6
REMARK    6  A    between atoms: N_5  and  C_20
REMARK    7  A    between atoms: C_6  and  C_7
REMARK    8  A    between atoms: C_10  and  C_12
REMARK    9  A    between atoms: C_15  and  O_18
REMARK   10  A    between atoms: O_18  and  C_19
REMARK                            x       y       z     vdW  Elec       q    Type
REMARK                         _______ _______ _______ _____ _____    ______ ____
ROOT
ATOM      1  C   UNL     1       1.438  -3.937  -2.287  0.00  0.00    +0.143 C 
ENDROOT
BRANCH   1   2
ATOM      2  C   UNL     1       2.558  -4.326  -1.357  0.00  0.00    +0.094 A 
ATOM      3  C   UNL     1       2.437  -4.626  -0.052  0.00  0.00    +0.222 A 
ATOM      4  O   UNL     1       3.670  -4.918   0.408  0.00  0.00    -0.443 OA
ATOM      5  C   UNL     1       4.529  -4.792  -0.617  0.00  0.00    +0.227 A 
ATOM      6  N   UNL     1       3.854  -4.440  -1.687  0.00  0.00    -0.213 NA
BRANCH   5   7
ATOM      7  C   UNL     1       5.988  -5.019  -0.554  0.00  0.00    +0.037 A 
ATOM      8  C   UNL     1       6.758  -4.953  -1.716  0.00  0.00    +0.017 A 
ATOM      9  C   UNL     1       8.119  -5.165  -1.653  0.00  0.00    +0.046 A 
ATOM     10  C   UNL     1       8.723  -5.444  -0.434  0.00  0.00    +0.120 A 
ATOM     11  C   UNL     1       7.961  -5.511   0.725  0.00  0.00    +0.046 A 
ATOM     12  C   UNL     1       6.601  -5.295   0.670  0.00  0.00    +0.017 A 
BRANCH  10  13
ATOM     13  O   UNL     1      10.064  -5.653  -0.375  0.00  0.00    -0.495 OA
ATOM     14  C   UNL     1      10.621  -5.935   0.910  0.00  0.00    +0.277 C 
ENDBRANCH  10  13
ENDBRANCH   5   7
ENDBRANCH   1   2
BRANCH   1  15
ATOM     15  N   UNL     1       1.345  -2.472  -2.356  0.00  0.00    -0.292 NA
BRANCH  15  16
ATOM     16  C   UNL     1       0.621  -2.046  -3.561  0.00  0.00    +0.079 C 
ATOM     17  C   UNL     1      -0.728  -2.780  -3.643  0.00  0.00    +0.043 C 
ATOM     18  C   UNL     1      -1.348  -2.589  -5.048  0.00  0.00    +0.167 C 
ATOM     19  S   UNL     1       0.133  -2.362  -6.116  0.00  0.00    -0.029 S 
ATOM     20  O   UNL     1       0.095  -1.062  -6.688  0.00  0.00    -0.174 OA
ATOM     21  O   UNL     1       0.270  -3.495  -6.962  0.00  0.00    -0.174 OA
ATOM     22  C   UNL     1       1.448  -2.412  -4.827  0.00  0.00    +0.184 C 
ENDBRANCH  15  16
BRANCH  15  23
ATOM     23  C   UNL     1       0.717  -1.927  -1.145  0.00  0.00    +0.085 C 
BRANCH  23  24
ATOM     24  C   UNL     1       0.862  -0.404  -1.137  0.00  0.00    +0.015 C 
BRANCH  24  26
ATOM     25  C   UNL     1       0.352   1.688   0.132  0.00  0.00    +0.004 C 
ATOM     26  C   UNL     1       0.208   0.164   0.124  0.00  0.00    -0.002 C 
ENDBRANCH  24  26
ENDBRANCH  23  24
ENDBRANCH  15  23
ENDBRANCH   1  15
TORSDOF 8
