REMARK  Name = ZINC23648778
REMARK  6 active torsions:
REMARK  status: ('A' for Active; 'I' for Inactive)
REMARK    1  A    between atoms: C_3  and  C_6
REMARK    2  A    between atoms: C_6  and  N_7
REMARK    3  A    between atoms: C_11  and  C_13
REMARK    4  A    between atoms: C_13  and  S_14
REMARK    5  A    between atoms: S_14  and  C_15
REMARK    6  A    between atoms: C_17  and  C_24
REMARK                            x       y       z     vdW  Elec       q    Type
REMARK                         _______ _______ _______ _____ _____    ______ ____
ROOT
ATOM      1  S   UNL     1       4.517  -0.809  -0.477  0.00  0.00    -0.096 S 
ENDROOT
BRANCH   1   2
ATOM      2  C   UNL     1       3.679   0.739  -0.413  0.00  0.00    +0.109 A 
ATOM      3  C   UNL     1       2.274   0.788  -0.201  0.00  0.00    +0.047 A 
ATOM      4  C   UNL     1       1.323  -0.302  -0.012  0.00  0.00    +0.001 A 
ATOM      5  C   UNL     1       0.016  -0.001   0.174  0.00  0.00    +0.056 A 
ATOM      6  S   UNL     1      -0.014   1.780   0.106  0.00  0.00    -0.076 S 
ATOM      7  C   UNL     1       1.711   2.080  -0.168  0.00  0.00    +0.113 A 
ATOM      8  N   UNL     1       2.456   3.158  -0.325  0.00  0.00    -0.228 NA
ATOM      9  C   UNL     1       3.756   3.050  -0.519  0.00  0.00    +0.223 A 
ATOM     10  N   UNL     1       4.350   1.871  -0.561  0.00  0.00    -0.229 NA
BRANCH   4  11
ATOM     11  C   UNL     1       1.778  -1.712  -0.024  0.00  0.00    -0.016 A 
ATOM     12  C   UNL     1       1.242  -2.613  -0.943  0.00  0.00    +0.011 A 
ATOM     13  C   UNL     1       1.673  -3.924  -0.953  0.00  0.00    +0.039 A 
ATOM     14  C   UNL     1       2.629  -4.348  -0.044  0.00  0.00    +0.123 A 
ATOM     15  C   UNL     1       3.161  -3.458   0.875  0.00  0.00    +0.039 A 
ATOM     16  C   UNL     1       2.740  -2.144   0.889  0.00  0.00    +0.011 A 
ATOM     17  F   UNL     1       3.043  -5.634  -0.054  0.00  0.00    -0.205 F 
ENDBRANCH   4  11
ENDBRANCH   1   2
BRANCH   1  18
ATOM     18  C   UNL     1       6.211  -0.238  -0.758  0.00  0.00    +0.172 C 
BRANCH  18  23
ATOM     19  N   UNL     1      10.596  -2.119  -1.347  0.00  0.00    -0.292 N 
ATOM     20  C   UNL     1       9.277  -2.304  -1.139  0.00  0.00    +0.306 C 
ATOM     21  O   UNL     1       8.832  -3.429  -1.025  0.00  0.00    -0.252 OA
ATOM     22  N   UNL     1       8.452  -1.241  -1.058  0.00  0.00    -0.239 N 
ATOM     23  C   UNL     1       7.134  -1.426  -0.849  0.00  0.00    +0.231 C 
ATOM     24  O   UNL     1       6.689  -2.549  -0.736  0.00  0.00    -0.274 OA
ATOM     25  H   UNL     1      10.999  -1.101  -1.451  0.00  0.00    +0.151 HD
ATOM     26  H   UNL     1       8.855  -0.223  -1.161  0.00  0.00    +0.159 HD
BRANCH  19  27
ATOM     27  C   UNL     1      11.492  -3.274  -1.436  0.00  0.00    +0.180 C 
BRANCH  27  30
ATOM     28  C   UNL     1      14.986  -2.102  -1.376  0.00  0.00    +0.041 A 
ATOM     29  C   UNL     1      13.803  -2.506  -0.715  0.00  0.00    +0.046 A 
ATOM     30  C   UNL     1      12.903  -2.799  -1.671  0.00  0.00    +0.122 A 
ATOM     31  O   UNL     1      13.476  -2.600  -2.869  0.00  0.00    -0.466 OA
ATOM     32  C   UNL     1      14.738  -2.173  -2.696  0.00  0.00    +0.195 A 
ENDBRANCH  27  30
ENDBRANCH  19  27
ENDBRANCH  18  23
ENDBRANCH   1  18
TORSDOF 6
