REMARK  Name = ZINC19431922
REMARK  2 active torsions:
REMARK  status: ('A' for Active; 'I' for Inactive)
REMARK    1  A    between atoms: C_4  and  C_8
REMARK    2  A    between atoms: C_10  and  N_14
REMARK                            x       y       z     vdW  Elec       q    Type
REMARK                         _______ _______ _______ _____ _____    ______ ____
ROOT
ATOM      1  C   UNL     1       1.227   1.827   0.000  0.00  0.00    +0.095 A 
ATOM      2  C   UNL     1       0.186   1.277   0.773  0.00  0.00    +0.072 A 
ATOM      3  C   UNL     1       0.111  -0.049   0.483  0.00  0.00    +0.112 A 
ATOM      4  N   UNL     1       1.069  -0.326  -0.440  0.00  0.00    -0.264 N 
ATOM      5  H   UNL     1       1.187  -1.351  -0.820  0.00  0.00    +0.190 HD
ATOM      6  N   UNL     1       1.753   0.863  -0.725  0.00  0.00    -0.172 NA
ENDROOT
BRANCH   1  10
ATOM      7  C   UNL     1       2.460   5.899   0.009  0.00  0.00    +0.039 A 
ATOM      8  C   UNL     1       3.404   4.893   0.099  0.00  0.00    +0.019 A 
ATOM      9  C   UNL     1       3.009   3.569   0.102  0.00  0.00    +0.027 A 
ATOM     10  C   UNL     1       1.656   3.248   0.003  0.00  0.00    +0.019 A 
ATOM     11  C   UNL     1       0.708   4.264  -0.087  0.00  0.00    +0.049 A 
ATOM     12  C   UNL     1       1.114   5.586  -0.084  0.00  0.00    +0.124 A 
ATOM     13  F   UNL     1       0.197   6.574  -0.172  0.00  0.00    -0.205 F 
ATOM     14 BR   UNL     1       4.302   2.195   0.234  0.00  0.00    -0.050 Br
ENDBRANCH   1  10
BRANCH   3  15
ATOM     15  N   UNL     1      -0.787  -0.960   1.033  0.00  0.00    -0.343 N 
ATOM     16  H   UNL     1      -0.759  -2.015   0.724  0.00  0.00    +0.144 HD
ATOM     17  H   UNL     1      -1.525  -0.624   1.777  0.00  0.00    +0.144 HD
ENDBRANCH   3  15
TORSDOF 2
