REMARK  Name = ZINC25905391
REMARK  6 active torsions:
REMARK  status: ('A' for Active; 'I' for Inactive)
REMARK    1  A    between atoms: C_4  and  N_7
REMARK    2  A    between atoms: N_10  and  C_11
REMARK    3  A    between atoms: C_14  and  C_17
REMARK    4  A    between atoms: C_22  and  N_25
REMARK    5  A    between atoms: N_25  and  S_26
REMARK    6  A    between atoms: S_26  and  C_29
REMARK                            x       y       z     vdW  Elec       q    Type
REMARK                         _______ _______ _______ _____ _____    ______ ____
ROOT
ATOM      1  C   UNL     1       1.484  -0.767  -0.435  0.00  0.00    +0.035 A 
ATOM      2  C   UNL     1       2.564   0.029  -0.070  0.00  0.00    +0.024 A 
ATOM      3  C   UNL     1       2.535   1.385  -0.312  0.00  0.00    +0.015 A 
ATOM      4  C   UNL     1       1.419   1.960  -0.924  0.00  0.00    +0.037 A 
ATOM      5  C   UNL     1       0.335   1.157  -1.289  0.00  0.00    +0.015 A 
ATOM      6  C   UNL     1       0.370  -0.198  -1.045  0.00  0.00    +0.024 A 
ENDROOT
BRANCH   4   7
ATOM      7  C   UNL     1       1.384   3.412  -1.184  0.00  0.00    +0.247 C 
ATOM      8  O   UNL     1       0.364   4.042  -0.981  0.00  0.00    -0.270 OA
ATOM      9  N   UNL     1       2.483   4.040  -1.646  0.00  0.00    -0.297 N 
ATOM     10  C   UNL     1       3.688   3.278  -2.000  0.00  0.00    +0.109 C 
ATOM     11  C   UNL     1       4.093   3.642  -3.436  0.00  0.00    +0.039 C 
ATOM     12  C   UNL     1       4.255   5.160  -3.545  0.00  0.00    +0.080 C 
ATOM     13  C   UNL     1       2.921   5.841  -3.234  0.00  0.00    +0.039 C 
ATOM     14  C   UNL     1       2.501   5.502  -1.800  0.00  0.00    +0.109 C 
BRANCH  12  15
ATOM     15  N   UNL     1       4.676   5.509  -4.904  0.00  0.00    -0.186 NA
ATOM     16  H   UNL     1       3.949   5.479  -5.730  0.00  0.00    +0.148 HD
BRANCH  15  17
ATOM     17  S   UNL     1       6.284   5.708  -5.248  0.00  0.00    +0.065 S 
ATOM     18  O   UNL     1       6.368   6.011  -6.634  0.00  0.00    -0.153 OA
ATOM     19  O   UNL     1       6.810   6.568  -4.247  0.00  0.00    -0.153 OA
BRANCH  17  20
ATOM     20  C   UNL     1       7.061   4.142  -5.027  0.00  0.00    +0.142 A 
ATOM     21  C   UNL     1       7.251   3.148  -5.929  0.00  0.00    +0.036 A 
ATOM     22  C   UNL     1       7.894   1.993  -5.528  0.00  0.00    +0.010 A 
ATOM     23  C   UNL     1       8.317   1.888  -4.244  0.00  0.00    +0.047 A 
ATOM     24  S   UNL     1       7.810   3.456  -3.559  0.00  0.00    -0.077 S 
ENDBRANCH  17  20
ENDBRANCH  15  17
ENDBRANCH  12  15
ENDBRANCH   4   7
BRANCH   1  28
ATOM     25  N   UNL     1       2.278  -3.943   1.081  0.00  0.00    -0.269 N 
ATOM     26  C   UNL     1       2.151  -2.614   0.900  0.00  0.00    +0.308 C 
ATOM     27  O   UNL     1       2.610  -1.842   1.721  0.00  0.00    -0.252 OA
ATOM     28  N   UNL     1       1.517  -2.139  -0.190  0.00  0.00    -0.269 N 
ATOM     29  H   UNL     1       1.940  -4.639   0.299  0.00  0.00    +0.156 HD
ATOM     30  H   UNL     1       1.025  -2.834  -0.886  0.00  0.00    +0.156 HD
BRANCH  25  34
ATOM     31  C   UNL     1       3.952  -5.417   4.600  0.00  0.00    +0.000 A 
ATOM     32  C   UNL     1       3.205  -4.254   4.626  0.00  0.00    +0.002 A 
ATOM     33  C   UNL     1       2.649  -3.763   3.461  0.00  0.00    +0.023 A 
ATOM     34  C   UNL     1       2.841  -4.438   2.263  0.00  0.00    +0.035 A 
ATOM     35  C   UNL     1       3.587  -5.609   2.241  0.00  0.00    +0.023 A 
ATOM     36  C   UNL     1       4.144  -6.093   3.409  0.00  0.00    +0.002 A 
ENDBRANCH  25  34
ENDBRANCH   1  28
TORSDOF 6
