REMARK  Name = ZINC00803866
REMARK  11 active torsions:
REMARK  status: ('A' for Active; 'I' for Inactive)
REMARK    1  A    between atoms: C_1  and  C_2
REMARK    2  A    between atoms: C_2  and  C_3
REMARK    3  A    between atoms: C_2  and  C_4
REMARK    4  A    between atoms: C_2  and  C_5
REMARK    5  A    between atoms: C_8  and  C_11
REMARK    6  A    between atoms: C_14  and  C_25
REMARK    7  A    between atoms: C_20  and  N_24
REMARK    8  A    between atoms: C_21  and  C_22
REMARK    9  A    between atoms: C_25  and  C_26
REMARK   10  A    between atoms: C_26  and  O_28
REMARK   11  A    between atoms: O_28  and  C_29
REMARK                            x       y       z     vdW  Elec       q    Type
REMARK                         _______ _______ _______ _____ _____    ______ ____
ROOT
ATOM      1  C   UNL     1       2.707  -1.868  -4.752  0.00  0.00    +0.101 C 
ATOM      2  C   UNL     1       3.913  -2.684  -4.363  0.00  0.00    +0.050 A 
ATOM      3  C   UNL     1       3.979  -3.915  -3.833  0.00  0.00    +0.055 A 
ATOM      4  N   UNL     1       5.287  -4.217  -3.659  0.00  0.00    -0.277 N 
ATOM      5  H   UNL     1       5.637  -5.044  -3.292  0.00  0.00    +0.189 HD
ATOM      6  N   UNL     1       6.050  -3.125  -4.104  0.00  0.00    -0.135 NA
ATOM      7  C   UNL     1       5.232  -2.205  -4.527  0.00  0.00    +0.245 A 
ATOM      8  O   UNL     1       5.493  -0.977  -5.049  0.00  0.00    -0.421 OA
ATOM      9  C   UNL     1       4.478  -0.333  -5.658  0.00  0.00    +0.201 C 
ATOM     10  C   UNL     1       3.179  -0.689  -5.565  0.00  0.00    +0.098 C 
ENDROOT
BRANCH   1  14
ATOM     11  C   UNL     1       0.707  -0.490  -1.238  0.00  0.00    -0.042 A 
ATOM     12  C   UNL     1       0.036  -1.284  -2.148  0.00  0.00    +0.004 A 
ATOM     13  C   UNL     1       0.683  -1.730  -3.286  0.00  0.00    +0.005 A 
ATOM     14  C   UNL     1       2.001  -1.381  -3.513  0.00  0.00    -0.035 A 
ATOM     15  C   UNL     1       2.672  -0.586  -2.603  0.00  0.00    +0.005 A 
ATOM     16  C   UNL     1       2.024  -0.137  -1.467  0.00  0.00    +0.004 A 
BRANCH  11  18
ATOM     17  C   UNL     1      -0.019   1.526   0.010  0.00  0.00    +0.015 C 
ATOM     18  C   UNL     1       0.002  -0.004   0.002  0.00  0.00    -0.013 C 
ATOM     19  C   UNL     1       0.742  -0.511   1.242  0.00  0.00    +0.015 C 
ATOM     20  C   UNL     1      -1.433  -0.534   0.013  0.00  0.00    +0.015 C 
ENDBRANCH  11  18
ENDBRANCH   1  14
BRANCH   9  21
ATOM     21  N   UNL     1       4.785   0.763  -6.425  0.00  0.00    -0.328 N 
ATOM     22  H   UNL     1       5.708   1.049  -6.514  0.00  0.00    +0.145 HD
ATOM     23  H   UNL     1       4.080   1.252  -6.878  0.00  0.00    +0.145 HD
ENDBRANCH   9  21
BRANCH  10  24
ATOM     24  C   UNL     1       2.204   0.086  -6.272  0.00  0.00    +0.101 C 
ATOM     25  N   UNL     1       1.431   0.701  -6.833  0.00  0.00    -0.191 NA
ENDBRANCH  10  24
BRANCH   3  26
ATOM     26  C   UNL     1       2.809  -4.800  -3.492  0.00  0.00    +0.175 C 
BRANCH  26  27
ATOM     27  C   UNL     1       2.384  -5.566  -4.718  0.00  0.00    +0.313 C 
ATOM     28  O   UNL     1       2.972  -5.409  -5.762  0.00  0.00    -0.250 OA
BRANCH  27  29
ATOM     29  O   UNL     1       1.353  -6.423  -4.651  0.00  0.00    -0.468 OA
ATOM     30  C   UNL     1       1.006  -7.116  -5.851  0.00  0.00    +0.280 C 
ENDBRANCH  27  29
ENDBRANCH  26  27
ENDBRANCH   3  26
TORSDOF 7
