REMARK  Name = ZINC06134307
REMARK  12 active torsions:
REMARK  status: ('A' for Active; 'I' for Inactive)
REMARK    1  A    between atoms: C_1  and  C_2
REMARK    2  A    between atoms: C_2  and  C_3
REMARK    3  A    between atoms: C_2  and  C_4
REMARK    4  A    between atoms: C_4  and  C_5
REMARK    5  A    between atoms: C_5  and  N_6
REMARK    6  A    between atoms: C_7  and  C_9
REMARK    7  A    between atoms: C_9  and  C_11
REMARK    8  A    between atoms: C_9  and  N_16
REMARK    9  A    between atoms: N_16  and  C_17
REMARK   10  A    between atoms: C_24  and  C_26
REMARK   11  A    between atoms: C_27  and  N_34
REMARK   12  A    between atoms: C_28  and  C_31
REMARK                            x       y       z     vdW  Elec       q    Type
REMARK                         _______ _______ _______ _____ _____    ______ ____
ROOT
ATOM      1  N   UNL     1      -3.608   1.789   0.029  0.00  0.00    -0.245 N 
ATOM      2  C   UNL     1      -4.504   1.777  -0.978  0.00  0.00    +0.262 C 
ATOM      3  O   UNL     1      -4.378   0.988  -1.896  0.00  0.00    -0.269 OA
ENDROOT
BRANCH   1   4
ATOM      4  C   UNL     1      -3.754   2.697   1.084  0.00  0.00    +0.073 A 
ATOM      5  C   UNL     1      -3.164   3.951   1.010  0.00  0.00    +0.026 A 
ATOM      6  C   UNL     1      -3.309   4.845   2.053  0.00  0.00    +0.002 A 
ATOM      7  C   UNL     1      -4.042   4.493   3.171  0.00  0.00    +0.003 A 
ATOM      8  C   UNL     1      -4.631   3.245   3.251  0.00  0.00    +0.040 A 
ATOM      9  C   UNL     1      -4.495   2.347   2.208  0.00  0.00    +0.145 A 
ATOM     10  F   UNL     1      -5.076   1.129   2.283  0.00  0.00    -0.204 F 
ENDBRANCH   1   4
BRANCH   2  11
ATOM     11  C   UNL     1      -5.630   2.713  -0.967  0.00  0.00    +0.116 A 
ATOM     12  C   UNL     1      -6.660   2.869  -1.897  0.00  0.00    +0.076 A 
ATOM     13  C   UNL     1      -7.556   3.876  -1.537  0.00  0.00    +0.155 A 
ATOM     14  N   UNL     1      -7.358   4.545  -0.423  0.00  0.00    -0.203 NA
ATOM     15  S   UNL     1      -6.056   3.953   0.238  0.00  0.00    +0.019 S 
BRANCH  13  16
ATOM     16  C   UNL     1      -8.711   4.187  -2.398  0.00  0.00    +0.262 C 
ATOM     17  O   UNL     1      -8.888   3.565  -3.428  0.00  0.00    -0.269 OA
ATOM     18  N   UNL     1      -9.573   5.162  -2.044  0.00  0.00    -0.324 N 
ATOM     19  H   UNL     1      -9.432   5.659  -1.223  0.00  0.00    +0.145 HD
ATOM     20  H   UNL     1     -10.333   5.367  -2.611  0.00  0.00    +0.145 HD
ENDBRANCH  13  16
BRANCH  12  21
ATOM     21  N   UNL     1      -6.779   2.107  -3.051  0.00  0.00    -0.355 N 
ATOM     22  H   UNL     1      -6.124   1.420  -3.248  0.00  0.00    +0.142 HD
ATOM     23  H   UNL     1      -7.518   2.261  -3.660  0.00  0.00    +0.142 HD
ENDBRANCH  12  21
ENDBRANCH   2  11
BRANCH   1  24
ATOM     24  C   UNL     1      -2.482   0.853   0.018  0.00  0.00    +0.233 C 
BRANCH  24  25
ATOM     25  C   UNL     1      -2.544  -0.021   1.244  0.00  0.00    +0.135 A 
ATOM     26  C   UNL     1      -2.278  -1.339   1.285  0.00  0.00    +0.047 A 
ATOM     27  C   UNL     1      -2.457  -1.752   2.626  0.00  0.00    +0.041 A 
ATOM     28  C   UNL     1      -2.829  -0.663   3.322  0.00  0.00    +0.195 A 
ATOM     29  O   UNL     1      -2.880   0.382   2.481  0.00  0.00    -0.465 OA
ENDBRANCH  24  25
BRANCH  24  31
ATOM     30  N   UNL     1      -0.011   0.966   0.007  0.00  0.00    -0.313 N 
ATOM     31  C   UNL     1      -1.187   1.624   0.017  0.00  0.00    +0.242 C 
ATOM     32  O   UNL     1      -1.204   2.837   0.023  0.00  0.00    -0.273 OA
ATOM     33  H   UNL     1       0.002  -0.004   0.002  0.00  0.00    +0.149 HD
BRANCH  30  34
ATOM     34  C   UNL     1       1.248   1.716  -0.001  0.00  0.00    +0.104 C 
BRANCH  34  35
ATOM     35  C   UNL     1       2.424   0.737  -0.017  0.00  0.00    +0.022 C 
BRANCH  35  37
ATOM     36  C   UNL     1       4.913   0.546   0.084  0.00  0.00    +0.007 C 
ATOM     37  C   UNL     1       3.738   1.520  -0.025  0.00  0.00    -0.016 C 
ATOM     38  C   UNL     1       3.852   2.312  -1.330  0.00  0.00    +0.007 C 
ENDBRANCH  35  37
ENDBRANCH  34  35
ENDBRANCH  30  34
ENDBRANCH  24  31
ENDBRANCH   1  24
TORSDOF 10
