REMARK  Name = ZINC21528399
REMARK  8 active torsions:
REMARK  status: ('A' for Active; 'I' for Inactive)
REMARK    1  A    between atoms: C_1  and  C_2
REMARK    2  A    between atoms: C_6  and  N_9
REMARK    3  A    between atoms: C_7  and  C_8
REMARK    4  A    between atoms: N_13  and  S_27
REMARK    5  A    between atoms: C_15  and  C_16
REMARK    6  A    between atoms: C_15  and  C_17
REMARK    7  A    between atoms: N_19  and  C_20
REMARK    8  A    between atoms: S_27  and  C_30
REMARK                            x       y       z     vdW  Elec       q    Type
REMARK                         _______ _______ _______ _____ _____    ______ ____
ROOT
ATOM      1  N   UNL     1       4.131   2.025  -5.808  0.00  0.00    -0.254 N 
ATOM      2  C   UNL     1       5.168   2.652  -6.364  0.00  0.00    +0.236 C 
ATOM      3  O   UNL     1       6.288   2.280  -6.084  0.00  0.00    -0.274 OA
ATOM      4  C   UNL     1       5.013   3.801  -7.323  0.00  0.00    +0.205 C 
ATOM      5  N   UNL     1       3.607   3.880  -7.748  0.00  0.00    -0.170 NA
ATOM      6  C   UNL     1       2.578   3.702  -6.711  0.00  0.00    +0.145 C 
ATOM      7  C   UNL     1       2.734   2.301  -6.117  0.00  0.00    +0.129 C 
ATOM      8  C   UNL     1       2.228   1.267  -7.124  0.00  0.00    +0.043 C 
ENDROOT
BRANCH   1  14
ATOM      9  C   UNL     1       5.204   0.774  -1.175  0.00  0.00    +0.044 C 
ATOM     10  C   UNL     1       4.927   0.397  -2.608  0.00  0.00    -0.046 A 
ATOM     11  C   UNL     1       4.942  -0.933  -2.987  0.00  0.00    +0.004 A 
ATOM     12  C   UNL     1       4.688  -1.283  -4.301  0.00  0.00    +0.002 A 
ATOM     13  C   UNL     1       4.419  -0.304  -5.238  0.00  0.00    +0.024 A 
ATOM     14  C   UNL     1       4.403   1.032  -4.860  0.00  0.00    +0.041 A 
ATOM     15  C   UNL     1       4.664   1.380  -3.542  0.00  0.00    -0.026 A 
ATOM     16  C   UNL     1       4.655   2.830  -3.129  0.00  0.00    +0.046 C 
ENDBRANCH   1  14
BRANCH   7  17
ATOM     17  C   UNL     1       1.918   2.203  -4.854  0.00  0.00    +0.238 C 
ATOM     18  O   UNL     1       1.473   3.208  -4.340  0.00  0.00    -0.273 OA
ATOM     19  N   UNL     1       1.683   1.000  -4.294  0.00  0.00    -0.311 N 
ATOM     20  H   UNL     1       2.158   0.099  -4.709  0.00  0.00    +0.149 HD
BRANCH  19  21
ATOM     21  C   UNL     1       0.795   0.892  -3.134  0.00  0.00    +0.073 C 
ATOM     22  C   UNL     1       1.604   1.196  -1.858  0.00  0.00    +0.022 C 
ATOM     23  C   UNL     1       0.905   0.703  -0.577  0.00  0.00    +0.002 C 
ATOM     24  C   UNL     1      -0.576   0.973  -0.588  0.00  0.00    +0.000 C 
ATOM     25  C   UNL     1      -1.298  -0.282  -1.121  0.00  0.00    +0.000 C 
ATOM     26  C   UNL     1      -1.256  -0.371  -2.573  0.00  0.00    +0.002 C 
ATOM     27  C   UNL     1       0.184  -0.483  -3.114  0.00  0.00    +0.022 C 
ENDBRANCH  19  21
ENDBRANCH   7  17
BRANCH   5  28
ATOM     28  S   UNL     1       3.199   4.157  -9.329  0.00  0.00    +0.029 S 
ATOM     29  O   UNL     1       1.915   4.763  -9.271  0.00  0.00    -0.158 OA
ATOM     30  O   UNL     1       4.308   4.860  -9.872  0.00  0.00    -0.158 OA
ATOM     31  C   UNL     1       3.079   2.508 -10.076  0.00  0.00    +0.215 C 
ENDBRANCH   5  28
TORSDOF 4
