REMARK  Name = ZINC09375901
REMARK  10 active torsions:
REMARK  status: ('A' for Active; 'I' for Inactive)
REMARK    1  A    between atoms: C_1  and  C_2
REMARK    2  A    between atoms: C_2  and  C_3
REMARK    3  A    between atoms: C_3  and  N_53
REMARK    4  A    between atoms: C_4  and  C_5
REMARK    5  A    between atoms: C_4  and  N_53
REMARK    6  A    between atoms: C_8  and  C_10
REMARK    7  A    between atoms: C_15  and  C_16
REMARK    8  A    between atoms: C_15  and  N_53
REMARK    9  A    between atoms: N_18  and  C_19
REMARK   10  A    between atoms: C_20  and  C_27
REMARK                            x       y       z     vdW  Elec       q    Type
REMARK                         _______ _______ _______ _____ _____    ______ ____
ROOT
ATOM      1  C   UNL     1       1.120   3.601   0.014  0.00  0.00    +0.020 C 
ENDROOT
BRANCH   1   2
ATOM      2  C   UNL     1       0.555   3.635  -1.383  0.00  0.00    +0.201 C 
ATOM      3  O   UNL     1       1.246   4.008  -2.307  0.00  0.00    -0.278 OA
ATOM      4  N   UNL     1      -0.717   3.250  -1.605  0.00  0.00    -0.281 N 
ATOM      5  H   UNL     1      -1.271   2.955  -0.865  0.00  0.00    +0.155 HD
BRANCH   4   6
ATOM      6  C   UNL     1      -1.236   3.281  -2.890  0.00  0.00    +0.084 A 
ATOM      7  C   UNL     1      -2.505   2.923  -3.315  0.00  0.00    +0.068 A 
ATOM      8  C   UNL     1      -2.804   3.055  -4.740  0.00  0.00    -0.023 A 
ATOM      9  C   UNL     1      -1.789   3.510  -5.497  0.00  0.00    -0.004 A 
ATOM     10  S   UNL     1      -0.454   3.769  -4.355  0.00  0.00    -0.077 S 
ATOM     11  C   UNL     1      -2.171   3.615  -6.949  0.00  0.00    +0.043 C 
ATOM     12  C   UNL     1      -3.716   3.572  -6.949  0.00  0.00    +0.010 C 
ATOM     13  C   UNL     1      -4.008   2.799  -5.648  0.00  0.00    +0.037 C 
BRANCH   7  14
ATOM     14  C   UNL     1      -3.512   2.434  -2.369  0.00  0.00    +0.244 C 
ATOM     15  O   UNL     1      -4.262   3.219  -1.819  0.00  0.00    -0.270 OA
ATOM     16  N   UNL     1      -3.608   1.115  -2.109  0.00  0.00    -0.325 N 
ATOM     17  H   UNL     1      -3.010   0.489  -2.547  0.00  0.00    +0.145 HD
ATOM     18  H   UNL     1      -4.275   0.791  -1.483  0.00  0.00    +0.145 HD
ENDBRANCH   7  14
ENDBRANCH   4   6
ENDBRANCH   1   2
BRANCH   1  19
ATOM     19  N   UNL     1       2.552   3.962  -0.045  0.00  0.00    +0.391 N 
ATOM     20  H   UNL     1       2.979   3.500  -0.856  0.00  0.00    -0.080 HD
BRANCH  19  21
ATOM     21  C   UNL     1       3.238   3.508   1.183  0.00  0.00    -0.078 C 
BRANCH  21  23
ATOM     22  C   UNL     1       4.324   1.539   2.271  0.00  0.00    +0.002 C 
ATOM     23  C   UNL     1       3.484   2.002   1.079  0.00  0.00    -0.022 C 
ENDBRANCH  21  23
ENDBRANCH  19  21
BRANCH  19  24
ATOM     24  C   UNL     1       2.698   5.425  -0.194  0.00  0.00    +0.021 C 
BRANCH  24  25
ATOM     25  C   UNL     1       4.144   5.743  -0.472  0.00  0.00    +0.202 A 
ATOM     26  N   UNL     1       4.708   5.797  -1.646  0.00  0.00    -0.114 NA
ATOM     27  N   UNL     1       5.952   6.099  -1.514  0.00  0.00    -0.107 NA
ATOM     28  C   UNL     1       6.230   6.241  -0.236  0.00  0.00    +0.255 A 
ATOM     29  O   UNL     1       5.088   6.018   0.447  0.00  0.00    -0.422 OA
BRANCH  28  30
ATOM     30  C   UNL     1       7.540   6.579   0.340  0.00  0.00    +0.076 A 
ATOM     31  C   UNL     1       8.741   6.813  -0.303  0.00  0.00    +0.021 A 
ATOM     32  C   UNL     1       9.843   7.120   0.460  0.00  0.00    +0.008 A 
ATOM     33  C   UNL     1       9.722   7.174   1.812  0.00  0.00    +0.046 A 
ATOM     34  S   UNL     1       7.995   6.789   2.054  0.00  0.00    -0.092 S 
ENDBRANCH  28  30
ENDBRANCH  24  25
ENDBRANCH  19  24
ENDBRANCH   1  19
TORSDOF 9
