REMARK  Name = ZINC13555355
REMARK  10 active torsions:
REMARK  status: ('A' for Active; 'I' for Inactive)
REMARK    1  A    between atoms: C_1  and  C_2
REMARK    2  A    between atoms: C_3  and  O_17
REMARK    3  A    between atoms: O_17  and  C_18
REMARK    4  A    between atoms: C_18  and  C_20
REMARK    5  A    between atoms: C_18  and  C_21
REMARK    6  A    between atoms: N_23  and  C_24
REMARK    7  A    between atoms: C_26  and  C_31
REMARK    8  A    between atoms: C_26  and  C_32
REMARK    9  A    between atoms: C_27  and  C_29
REMARK   10  A    between atoms: C_27  and  C_30
REMARK                            x       y       z     vdW  Elec       q    Type
REMARK                         _______ _______ _______ _____ _____    ______ ____
ROOT
ATOM      1  C   UNL     1       0.996   4.425  -5.499  0.00  0.00    +0.255 C 
ATOM      2  C   UNL     1       2.525   4.382  -5.502  0.00  0.00    +0.062 C 
ENDROOT
BRANCH   1   3
ATOM      3  C   UNL     1       0.489   4.199  -4.098  0.00  0.00    +0.254 C 
ATOM      4  O   UNL     1      -0.183   5.048  -3.552  0.00  0.00    -0.272 OA
ATOM      5  N   UNL     1       0.784   3.054  -3.451  0.00  0.00    -0.310 N 
ATOM      6  H   UNL     1       1.322   2.375  -3.888  0.00  0.00    +0.149 HD
BRANCH   5   7
ATOM      7  C   UNL     1       0.290   2.834  -2.086  0.00  0.00    +0.070 C 
ATOM      8  C   UNL     1       1.211   1.845  -1.371  0.00  0.00    +0.009 C 
ATOM      9  C   UNL     1       0.709   1.581   0.046  0.00  0.00    -0.072 C 
ATOM     10  C   UNL     1      -1.644   1.972  -0.741  0.00  0.00    -0.072 C 
ATOM     11  C   UNL     1      -1.113   2.233  -2.149  0.00  0.00    +0.009 C 
ATOM     12  C   UNL     1      -2.918   1.109  -0.877  0.00  0.00    -0.010 C 
ATOM     13  C   UNL     1      -2.061   3.299  -0.096  0.00  0.00    -0.010 C 
ATOM     14  C   UNL     1       1.031   2.787   0.937  0.00  0.00    -0.010 C 
ATOM     15  C   UNL     1       1.500   0.377   0.604  0.00  0.00    -0.010 C 
ATOM     16  N   UNL     1      -0.727   1.202   0.142  0.00  0.00    +0.386 N 
ATOM     17  H   UNL     1      -1.029   1.342   1.113  0.00  0.00    -0.084 HD
ATOM     18  H   UNL     1      -0.810   0.208  -0.102  0.00  0.00    -0.084 HD
ENDBRANCH   5   7
ENDBRANCH   1   3
BRANCH   1  19
ATOM     19  O   UNL     1       0.555   5.702  -5.965  0.00  0.00    -0.480 OA
BRANCH  19  22
ATOM     20  C   UNL     1      -0.526   8.132  -6.885  0.00  0.00    +0.051 C 
ATOM     21  C   UNL     1      -0.071   7.041  -7.821  0.00  0.00    +0.034 A 
ATOM     22  C   UNL     1       0.453   5.866  -7.309  0.00  0.00    +0.128 A 
ATOM     23  C   UNL     1       0.880   4.855  -8.163  0.00  0.00    +0.047 A 
ATOM     24  C   UNL     1       0.776   5.014  -9.527  0.00  0.00    +0.016 A 
ATOM     25  C   UNL     1       0.249   6.193 -10.051  0.00  0.00    +0.026 A 
ATOM     26  C   UNL     1      -0.179   7.218  -9.194  0.00  0.00    +0.146 A 
ATOM     27  O   UNL     1      -0.693   8.368  -9.683  0.00  0.00    -0.421 OA
ATOM     28  C   UNL     1      -0.826   8.607 -10.997  0.00  0.00    +0.345 A 
ATOM     29  O   UNL     1      -1.295   9.663 -11.376  0.00  0.00    -0.245 OA
ATOM     30  C   UNL     1      -0.408   7.598 -11.981  0.00  0.00    +0.067 A 
ATOM     31  C   UNL     1       0.133   6.383 -11.510  0.00  0.00    -0.000 A 
ATOM     32  C   UNL     1       0.538   5.409 -12.414  0.00  0.00    +0.009 A 
ATOM     33  C   UNL     1       0.407   5.640 -13.769  0.00  0.00    +0.001 A 
ATOM     34  C   UNL     1      -0.124   6.833 -14.233  0.00  0.00    +0.001 A 
ATOM     35  C   UNL     1      -0.533   7.812 -13.352  0.00  0.00    +0.015 A 
ENDBRANCH  19  22
ENDBRANCH   1  19
TORSDOF 4
