REMARK  Name = ZINC36506051
REMARK  14 active torsions:
REMARK  status: ('A' for Active; 'I' for Inactive)
REMARK    1  A    between atoms: C_1  and  C_2
REMARK    2  A    between atoms: C_2  and  C_3
REMARK    3  A    between atoms: C_3  and  C_4
REMARK    4  A    between atoms: C_3  and  C_6
REMARK    5  A    between atoms: C_4  and  C_5
REMARK    6  A    between atoms: C_6  and  C_8
REMARK    7  A    between atoms: C_6  and  N_22
REMARK    8  A    between atoms: N_10  and  C_11
REMARK    9  A    between atoms: C_11  and  S_12
REMARK   10  A    between atoms: S_12  and  C_15
REMARK   11  A    between atoms: C_18  and  C_21
REMARK   12  A    between atoms: N_22  and  C_23
REMARK   13  A    between atoms: C_23  and  C_24
REMARK   14  A    between atoms: C_29  and  C_31
REMARK                            x       y       z     vdW  Elec       q    Type
REMARK                         _______ _______ _______ _____ _____    ______ ____
ROOT
ATOM      1  C   UNL     1      -2.471  -1.653   2.446  0.00  0.00    +0.166 C 
ENDROOT
BRANCH   1   2
ATOM      2  C   UNL     1      -2.250  -0.170   2.598  0.00  0.00    +0.235 C 
ATOM      3  O   UNL     1      -2.977   0.613   2.025  0.00  0.00    -0.274 OA
ATOM      4  N   UNL     1      -1.245   0.285   3.372  0.00  0.00    -0.295 N 
ATOM      5  H   UNL     1      -0.620  -0.339   3.773  0.00  0.00    +0.150 HD
BRANCH   4   6
ATOM      6  C   UNL     1      -1.096   1.724   3.608  0.00  0.00    +0.278 C 
BRANCH   6   7
ATOM      7  S   UNL     1      -1.917   2.169   5.163  0.00  0.00    +0.013 S 
ATOM      8  O   UNL     1      -1.728   3.550   5.438  0.00  0.00    -0.168 OA
ATOM      9  O   UNL     1      -3.215   1.592   5.215  0.00  0.00    -0.168 OA
BRANCH   7  10
ATOM     10  C   UNL     1      -1.002   1.332   6.414  0.00  0.00    +0.090 A 
ATOM     11  C   UNL     1      -1.360   0.052   6.793  0.00  0.00    +0.027 A 
ATOM     12  C   UNL     1      -0.642  -0.605   7.775  0.00  0.00    +0.005 A 
ATOM     13  C   UNL     1       0.434   0.018   8.378  0.00  0.00    -0.050 A 
ATOM     14  C   UNL     1       0.793   1.298   7.998  0.00  0.00    +0.005 A 
ATOM     15  C   UNL     1       0.078   1.953   7.014  0.00  0.00    +0.027 A 
ATOM     16  C   UNL     1       1.216  -0.697   9.449  0.00  0.00    +0.044 C 
ENDBRANCH   7  10
ENDBRANCH   6   7
ENDBRANCH   4   6
ENDBRANCH   1   2
BRANCH   1  17
ATOM     17  N   UNL     1      -3.341  -1.902   1.294  0.00  0.00    -0.278 N 
ATOM     18  C   UNL     1      -4.325  -2.818   1.378  0.00  0.00    +0.249 C 
ATOM     19  O   UNL     1      -4.605  -3.313   2.452  0.00  0.00    -0.270 OA
BRANCH  18  20
ATOM     20  C   UNL     1      -5.065  -3.221   0.164  0.00  0.00    +0.055 A 
ATOM     21  C   UNL     1      -5.456  -2.260  -0.771  0.00  0.00    +0.014 A 
ATOM     22  C   UNL     1      -6.146  -2.643  -1.902  0.00  0.00    +0.001 A 
ATOM     23  C   UNL     1      -6.451  -3.977  -2.113  0.00  0.00    +0.001 A 
ATOM     24  C   UNL     1      -6.068  -4.935  -1.192  0.00  0.00    +0.021 A 
ATOM     25  C   UNL     1      -5.371  -4.566  -0.057  0.00  0.00    +0.053 A 
ATOM     26 CL   UNL     1      -4.884  -5.770   1.094  0.00  0.00    -0.083 Cl
ENDBRANCH  18  20
BRANCH  17  27
ATOM     27  C   UNL     1      -3.140  -1.154   0.050  0.00  0.00    +0.183 C 
BRANCH  27  28
ATOM     28  C   UNL     1      -3.880   0.157   0.127  0.00  0.00    +0.122 A 
ATOM     29  C   UNL     1      -3.432   1.341  -0.329  0.00  0.00    +0.046 A 
ATOM     30  C   UNL     1      -4.439   2.293  -0.052  0.00  0.00    +0.041 A 
ATOM     31  C   UNL     1      -5.442   1.635   0.557  0.00  0.00    +0.195 A 
ATOM     32  O   UNL     1      -5.100   0.340   0.657  0.00  0.00    -0.466 OA
ENDBRANCH  27  28
ENDBRANCH  17  27
ENDBRANCH   1  17
BRANCH   1  33
ATOM     33  C   UNL     1      -1.126  -2.349   2.229  0.00  0.00    +0.018 C 
BRANCH  33  35
ATOM     34  C   UNL     1      -1.766  -4.336   3.603  0.00  0.00    +0.004 C 
ATOM     35  C   UNL     1      -1.333  -3.865   2.213  0.00  0.00    +0.002 C 
ENDBRANCH  33  35
BRANCH  33  36
ATOM     36  C   UNL     1      -0.530  -1.902   0.893  0.00  0.00    +0.002 C 
ATOM     37  C   UNL     1      -0.171  -0.416   0.966  0.00  0.00    +0.004 C 
ENDBRANCH  33  36
ENDBRANCH   1  33
TORSDOF 11
