REMARK  Name = ZINC63150167
REMARK  10 active torsions:
REMARK  status: ('A' for Active; 'I' for Inactive)
REMARK    1  A    between atoms: C_1  and  C_2
REMARK    2  A    between atoms: C_5  and  S_8
REMARK    3  A    between atoms: S_8  and  C_9
REMARK    4  A    between atoms: C_9  and  C_10
REMARK    5  A    between atoms: C_10  and  N_11
REMARK    6  A    between atoms: C_12  and  C_14
REMARK    7  A    between atoms: C_14  and  C_16
REMARK    8  A    between atoms: C_14  and  N_26
REMARK    9  A    between atoms: C_16  and  C_17
REMARK   10  A    between atoms: C_27  and  C_29
REMARK                            x       y       z     vdW  Elec       q    Type
REMARK                         _______ _______ _______ _____ _____    ______ ____
ROOT
ATOM      1  C   UNL     1       0.140  -8.537   5.116  0.00  0.00    +0.163 C 
ENDROOT
BRANCH   1   3
ATOM      2  N   UNL     1       0.109  -6.867   3.292  0.00  0.00    -0.313 N 
ATOM      3  C   UNL     1       0.128  -8.164   3.656  0.00  0.00    +0.234 C 
ATOM      4  O   UNL     1       0.135  -9.032   2.809  0.00  0.00    -0.274 OA
ATOM      5  H   UNL     1       0.103  -6.173   3.969  0.00  0.00    +0.149 HD
BRANCH   2   6
ATOM      6  C   UNL     1       0.097  -6.505   1.872  0.00  0.00    +0.115 C 
BRANCH   6   7
ATOM      7  C   UNL     1       0.077  -4.981   1.735  0.00  0.00    +0.093 C 
BRANCH   7   8
ATOM      8  S   UNL     1       0.062  -4.533  -0.023  0.00  0.00    -0.124 S 
BRANCH   8  13
ATOM      9  C   UNL     1      -0.018   1.503   0.010  0.00  0.00    +0.044 C 
ATOM     10  C   UNL     1       0.002  -0.004   0.002  0.00  0.00    -0.050 A 
ATOM     11  C   UNL     1       0.006  -0.687  -1.200  0.00  0.00    +0.004 A 
ATOM     12  C   UNL     1       0.024  -2.068  -1.212  0.00  0.00    +0.015 A 
ATOM     13  C   UNL     1       0.039  -2.771  -0.013  0.00  0.00    +0.008 A 
ATOM     14  C   UNL     1       0.036  -2.081   1.193  0.00  0.00    +0.015 A 
ATOM     15  C   UNL     1       0.023  -0.700   1.197  0.00  0.00    +0.004 A 
ENDBRANCH   8  13
ENDBRANCH   7   8
ENDBRANCH   6   7
ENDBRANCH   2   6
ENDBRANCH   1   3
BRANCH   1  16
ATOM     16  N   UNL     1      -0.314  -9.921   5.271  0.00  0.00    -0.299 N 
ATOM     17  C   UNL     1       0.362 -10.923   4.674  0.00  0.00    +0.251 C 
ATOM     18  O   UNL     1       1.349 -10.677   4.006  0.00  0.00    -0.270 OA
ATOM     19  H   UNL     1      -1.101 -10.117   5.803  0.00  0.00    +0.150 HD
BRANCH  17  20
ATOM     20  C   UNL     1      -0.092 -12.308   4.829  0.00  0.00    +0.074 A 
ATOM     21  C   UNL     1       0.457 -13.470   4.309  0.00  0.00    +0.021 A 
ATOM     22  C   UNL     1      -0.199 -14.635   4.630  0.00  0.00    +0.008 A 
ATOM     23  C   UNL     1      -1.306 -14.575   5.411  0.00  0.00    +0.046 A 
ATOM     24  S   UNL     1      -1.489 -12.937   5.740  0.00  0.00    -0.092 S 
ENDBRANCH  17  20
ENDBRANCH   1  16
BRANCH   1  25
ATOM     25  C   UNL     1       1.562  -8.402   5.665  0.00  0.00    +0.065 C 
BRANCH  25  26
ATOM     26  C   UNL     1       1.553  -8.655   7.151  0.00  0.00    -0.039 C 
ATOM     27  C   UNL     1       1.814  -9.824   7.778  0.00  0.00    -0.001 A 
ATOM     28  C   UNL     1       2.171 -11.160   7.284  0.00  0.00    +0.010 A 
ATOM     29  C   UNL     1       2.376 -12.156   8.175  0.00  0.00    +0.001 A 
ATOM     30  C   UNL     1       2.256 -11.945   9.556  0.00  0.00    +0.002 A 
ATOM     31  C   UNL     1       1.932 -10.747  10.086  0.00  0.00    +0.026 A 
ATOM     32  C   UNL     1       1.695  -9.628   9.241  0.00  0.00    +0.043 A 
ATOM     33  N   UNL     1       1.372  -8.386   9.507  0.00  0.00    -0.380 N 
ATOM     34  C   UNL     1       1.256  -7.651   8.242  0.00  0.00    +0.144 C 
ATOM     35  H   UNL     1       1.236  -8.014  10.392  0.00  0.00    +0.160 HD
ENDBRANCH  25  26
ENDBRANCH   1  25
TORSDOF 9
