REMARK  Name = ZINC21190960
REMARK  6 active torsions:
REMARK  status: ('A' for Active; 'I' for Inactive)
REMARK    1  A    between atoms: C_1  and  C_2
REMARK    2  A    between atoms: C_5  and  C_11
REMARK    3  A    between atoms: C_7  and  N_8
REMARK    4  A    between atoms: C_12  and  C_13
REMARK    5  A    between atoms: C_18  and  C_24
REMARK    6  A    between atoms: C_19  and  C_23
REMARK                            x       y       z     vdW  Elec       q    Type
REMARK                         _______ _______ _______ _____ _____    ______ ____
ROOT
ATOM      1  C   UNL     1      -1.101   3.418  -0.585  0.00  0.00    +0.154 A 
ATOM      2  N   UNL     1      -0.979   2.071  -0.402  0.00  0.00    -0.190 NA
ATOM      3  C   UNL     1       0.173   1.423  -0.668  0.00  0.00    +0.282 A 
ATOM      4  O   UNL     1       0.271   0.223  -0.497  0.00  0.00    -0.265 OA
ATOM      5  C   UNL     1       1.318   2.221  -1.182  0.00  0.00    +0.080 A 
ATOM      6  C   UNL     1       2.592   1.823  -1.535  0.00  0.00    +0.007 A 
ATOM      7  C   UNL     1       3.518   2.853  -2.016  0.00  0.00    -0.003 A 
ATOM      8  S   UNL     1       2.590   4.314  -1.957  0.00  0.00    -0.075 S 
ATOM      9  C   UNL     1       1.060   3.666  -1.342  0.00  0.00    +0.092 A 
ATOM     10  N   UNL     1      -0.100   4.176  -1.045  0.00  0.00    -0.333 N 
ATOM     11  C   UNL     1       4.949   2.680  -2.458  0.00  0.00    +0.052 C 
ATOM     12  H   UNL     1      -0.246   5.258  -1.180  0.00  0.00    +0.168 HD
ENDROOT
BRANCH   6  13
ATOM     13  C   UNL     1       3.006   0.413  -1.432  0.00  0.00    -0.016 A 
ATOM     14  C   UNL     1       3.085  -0.208  -0.179  0.00  0.00    +0.008 A 
ATOM     15  C   UNL     1       3.467  -1.529  -0.092  0.00  0.00    +0.001 A 
ATOM     16  C   UNL     1       3.785  -2.239  -1.239  0.00  0.00    +0.000 A 
ATOM     17  C   UNL     1       3.715  -1.630  -2.482  0.00  0.00    +0.001 A 
ATOM     18  C   UNL     1       3.329  -0.312  -2.587  0.00  0.00    +0.008 A 
ENDBRANCH   6  13
BRANCH   1  20
ATOM     19  C   UNL     1      -2.483   5.393  -0.462  0.00  0.00    +0.031 C 
ATOM     20  C   UNL     1      -2.329   4.031  -0.282  0.00  0.00    +0.084 C 
ATOM     21 CL   UNL     1      -3.651   3.079   0.317  0.00  0.00    -0.080 Cl
BRANCH  19  26
ATOM     22  C   UNL     1      -7.648   7.808   0.209  0.00  0.00    +0.046 C 
ATOM     23  C   UNL     1      -6.292   7.174   0.033  0.00  0.00    -0.020 A 
ATOM     24  C   UNL     1      -6.196   5.878  -0.450  0.00  0.00    +0.006 A 
ATOM     25  C   UNL     1      -4.962   5.292  -0.619  0.00  0.00    +0.008 A 
ATOM     26  C   UNL     1      -3.799   6.008  -0.291  0.00  0.00    -0.021 A 
ATOM     27  C   UNL     1      -3.907   7.321   0.197  0.00  0.00    +0.041 A 
ATOM     28  C   UNL     1      -5.151   7.891   0.354  0.00  0.00    +0.130 A 
BRANCH  28  29
ATOM     29  N   UNL     1      -5.268   9.274   0.868  0.00  0.00    +0.057 N 
ATOM     30  O   UNL     1      -4.200   9.905   1.310  0.00  0.00    -0.126 OA
ATOM     31  O   UNL     1      -6.441   9.874   0.883  0.00  0.00    -0.126 OA
ENDBRANCH  28  29
ENDBRANCH  19  26
ENDBRANCH   1  20
TORSDOF 4
