REMARK  Name = ZINC08589334
REMARK  10 active torsions:
REMARK  status: ('A' for Active; 'I' for Inactive)
REMARK    1  A    between atoms: C_1  and  C_2
REMARK    2  A    between atoms: C_7  and  N_8
REMARK    3  A    between atoms: C_9  and  C_11
REMARK    4  A    between atoms: C_14  and  C_17
REMARK    5  A    between atoms: C_17  and  N_18
REMARK    6  A    between atoms: N_18  and  S_19
REMARK    7  A    between atoms: S_19  and  C_22
REMARK    8  A    between atoms: C_28  and  C_33
REMARK    9  A    between atoms: C_28  and  C_34
REMARK   10  A    between atoms: N_31  and  C_32
REMARK                            x       y       z     vdW  Elec       q    Type
REMARK                         _______ _______ _______ _____ _____    ______ ____
ROOT
ATOM      1  C   UNL     1      -1.734   1.431   8.673  0.00  0.00    +0.109 C 
ENDROOT
BRANCH   1   5
ATOM      2  C   UNL     1      -0.168   0.052   4.882  0.00  0.00    +0.075 C 
ATOM      3  C   UNL     1      -1.431   0.915   4.870  0.00  0.00    +0.013 C 
ATOM      4  C   UNL     1      -1.544   1.673   6.194  0.00  0.00    +0.005 C 
ATOM      5  C   UNL     1      -1.621   0.673   7.349  0.00  0.00    +0.005 C 
ATOM      6  C   UNL     1      -0.358  -0.190   7.362  0.00  0.00    +0.005 C 
ATOM      7  C   UNL     1      -0.245  -0.948   6.037  0.00  0.00    +0.013 C 
BRANCH   2   9
ATOM      8  N   UNL     1       0.025  -0.015   2.417  0.00  0.00    -0.285 N 
ATOM      9  C   UNL     1      -0.056  -0.694   3.578  0.00  0.00    +0.220 C 
ATOM     10  O   UNL     1      -0.040  -1.907   3.573  0.00  0.00    -0.275 OA
ATOM     11  H   UNL     1       0.078   0.954   2.425  0.00  0.00    +0.155 HD
BRANCH   8  18
ATOM     12  C   UNL     1      -1.264   1.184   0.181  0.00  0.00    +0.045 C 
ATOM     13  C   UNL     1      -0.584  -0.158   0.084  0.00  0.00    -0.029 A 
ATOM     14  C   UNL     1      -0.569  -0.840  -1.117  0.00  0.00    +0.005 A 
ATOM     15  C   UNL     1       0.055  -2.071  -1.206  0.00  0.00    +0.000 A 
ATOM     16  C   UNL     1       0.666  -2.622  -0.095  0.00  0.00    +0.002 A 
ATOM     17  C   UNL     1       0.655  -1.945   1.108  0.00  0.00    +0.023 A 
ATOM     18  C   UNL     1       0.034  -0.706   1.201  0.00  0.00    +0.036 A 
ENDBRANCH   8  18
ENDBRANCH   2   9
ENDBRANCH   1   5
BRANCH   1  19
ATOM     19  N   UNL     1      -1.928   0.477   9.768  0.00  0.00    -0.190 NA
ATOM     20  H   UNL     1      -2.181  -0.439   9.573  0.00  0.00    +0.148 HD
BRANCH  19  21
ATOM     21  S   UNL     1      -1.713   0.961  11.336  0.00  0.00    +0.058 S 
ATOM     22  O   UNL     1      -1.996  -0.167  12.152  0.00  0.00    -0.153 OA
ATOM     23  O   UNL     1      -0.467   1.643  11.384  0.00  0.00    -0.153 OA
BRANCH  21  24
ATOM     24  C   UNL     1      -2.957   2.160  11.686  0.00  0.00    +0.106 A 
ATOM     25  C   UNL     1      -2.713   3.501  11.449  0.00  0.00    +0.030 A 
ATOM     26  C   UNL     1      -3.682   4.444  11.721  0.00  0.00    +0.026 A 
ATOM     27  C   UNL     1      -4.916   4.051  12.237  0.00  0.00    +0.040 A 
ATOM     28  C   UNL     1      -5.148   2.702  12.470  0.00  0.00    -0.010 A 
ATOM     29  C   UNL     1      -4.181   1.762  12.193  0.00  0.00    +0.035 A 
ATOM     30  C   UNL     1      -6.552   2.601  13.019  0.00  0.00    +0.068 C 
ATOM     31  C   UNL     1      -7.038   4.034  13.053  0.00  0.00    +0.230 C 
ATOM     32  O   UNL     1      -8.126   4.418  13.430  0.00  0.00    -0.274 OA
ATOM     33  N   UNL     1      -6.039   4.802  12.588  0.00  0.00    -0.273 N 
ATOM     34  C   UNL     1      -6.118   6.259  12.463  0.00  0.00    +0.138 C 
ATOM     35  C   UNL     1      -7.432   1.758  12.093  0.00  0.00    +0.025 C 
ATOM     36  C   UNL     1      -6.535   2.007  14.430  0.00  0.00    +0.025 C 
ENDBRANCH  21  24
ENDBRANCH  19  21
ENDBRANCH   1  19
TORSDOF 6
