REMARK  Name = ZINC10013303
REMARK  15 active torsions:
REMARK  status: ('A' for Active; 'I' for Inactive)
REMARK    1  A    between atoms: C_1  and  C_2
REMARK    2  A    between atoms: C_2  and  C_3
REMARK    3  A    between atoms: C_3  and  N_73
REMARK    4  A    between atoms: C_4  and  C_5
REMARK    5  A    between atoms: C_4  and  N_73
REMARK    6  A    between atoms: C_5  and  C_6
REMARK    7  A    between atoms: C_7  and  C_8
REMARK    8  A    between atoms: C_7  and  N_73
REMARK    9  A    between atoms: C_8  and  C_9
REMARK   10  A    between atoms: C_9  and  N_10
REMARK   11  A    between atoms: C_11  and  C_13
REMARK   12  A    between atoms: C_14  and  C_34
REMARK   13  A    between atoms: N_20  and  C_23
REMARK   14  A    between atoms: C_23  and  C_24
REMARK   15  A    between atoms: C_31  and  C_33
REMARK                            x       y       z     vdW  Elec       q    Type
REMARK                         _______ _______ _______ _____ _____    ______ ____
ROOT
ATOM      1  C   UNL     1      -6.580   9.676   0.968  0.00  0.00    +0.079 A 
ATOM      2  C   UNL     1      -5.350   9.110   1.132  0.00  0.00    -0.017 A 
ATOM      3  C   UNL     1      -5.231   7.722   1.232  0.00  0.00    +0.076 A 
ATOM      4  C   UNL     1      -6.439   6.994   1.153  0.00  0.00    +0.116 A 
ATOM      5  S   UNL     1      -7.666   8.260   0.946  0.00  0.00    -0.064 S 
ATOM      6  N   UNL     1      -6.465   5.669   1.233  0.00  0.00    -0.230 NA
ATOM      7  C   UNL     1      -5.372   4.972   1.390  0.00  0.00    +0.203 A 
ATOM      8  N   UNL     1      -4.154   5.560   1.480  0.00  0.00    -0.290 N 
ATOM      9  C   UNL     1      -4.014   6.898   1.416  0.00  0.00    +0.263 A 
ATOM     10  O   UNL     1      -2.915   7.417   1.502  0.00  0.00    -0.267 OA
ATOM     11  C   UNL     1      -4.122   9.981   1.206  0.00  0.00    +0.046 C 
ENDROOT
BRANCH   1  13
ATOM     12  N   UNL     1      -8.212  11.465   0.685  0.00  0.00    -0.311 N 
ATOM     13  C   UNL     1      -6.925  11.096   0.842  0.00  0.00    +0.251 C 
ATOM     14  O   UNL     1      -6.050  11.940   0.880  0.00  0.00    -0.270 OA
ATOM     15  H   UNL     1      -8.909  10.792   0.655  0.00  0.00    +0.149 HD
BRANCH  12  16
ATOM     16  C   UNL     1      -8.556  12.883   0.559  0.00  0.00    +0.102 C 
BRANCH  16  17
ATOM     17  C   UNL     1     -10.070  13.027   0.393  0.00  0.00    +0.000 C 
BRANCH  17  18
ATOM     18  C   UNL     1     -10.430  14.509   0.261  0.00  0.00    -0.077 C 
BRANCH  18  19
ATOM     19  N   UNL     1     -11.892  14.630   0.080  0.00  0.00    +0.380 N 
ATOM     20  H   UNL     1     -12.185  14.013  -0.687  0.00  0.00    -0.082 HD
BRANCH  19  21
ATOM     21  C   UNL     1     -12.590  14.222   1.317  0.00  0.00    -0.079 C 
BRANCH  21  23
ATOM     22  C   UNL     1     -12.847  14.631   3.769  0.00  0.00    +0.002 C 
ATOM     23  C   UNL     1     -12.211  15.147   2.476  0.00  0.00    -0.022 C 
ENDBRANCH  21  23
ENDBRANCH  19  21
BRANCH  19  24
ATOM     24  C   UNL     1     -12.245  16.023  -0.264  0.00  0.00    -0.079 C 
BRANCH  24  25
ATOM     25  C   UNL     1     -13.681  16.052  -0.789  0.00  0.00    -0.022 C 
ATOM     26  C   UNL     1     -14.012  17.458  -1.294  0.00  0.00    +0.002 C 
ENDBRANCH  24  25
ENDBRANCH  19  24
ENDBRANCH  18  19
ENDBRANCH  17  18
ENDBRANCH  16  17
ENDBRANCH  12  16
ENDBRANCH   1  13
BRANCH   8  27
ATOM     27  C   UNL     1      -2.965   4.722   1.655  0.00  0.00    +0.222 C 
BRANCH  27  28
ATOM     28  C   UNL     1      -2.411   4.346   0.305  0.00  0.00    +0.236 C 
ATOM     29  O   UNL     1      -2.955   4.740  -0.705  0.00  0.00    -0.274 OA
ATOM     30  N   UNL     1      -1.310   3.574   0.220  0.00  0.00    -0.297 N 
ATOM     31  C   UNL     1      -0.700   3.003   1.429  0.00  0.00    +0.108 C 
ATOM     32  C   UNL     1      -0.564   1.488   1.243  0.00  0.00    +0.019 C 
ATOM     33  C   UNL     1       0.211   1.204  -0.045  0.00  0.00    +0.003 C 
ATOM     34  C   UNL     1      -0.559   1.769  -1.241  0.00  0.00    +0.022 C 
ATOM     35  C   UNL     1      -0.696   3.286  -1.084  0.00  0.00    +0.073 C 
ATOM     36  C   UNL     1      -1.583   3.840  -2.201  0.00  0.00    +0.028 C 
ENDBRANCH  27  28
ENDBRANCH   8  27
TORSDOF 11
