REMARK  Name = ZINC36600283
REMARK  16 active torsions:
REMARK  status: ('A' for Active; 'I' for Inactive)
REMARK    1  A    between atoms: C_1  and  C_2
REMARK    2  A    between atoms: C_5  and  C_7
REMARK    3  A    between atoms: C_7  and  N_8
REMARK    4  A    between atoms: N_8  and  C_9
REMARK    5  A    between atoms: C_9  and  C_11
REMARK    6  A    between atoms: C_9  and  C_20
REMARK    7  A    between atoms: C_14  and  N_17
REMARK    8  A    between atoms: N_17  and  C_18
REMARK    9  A    between atoms: N_17  and  C_19
REMARK   10  A    between atoms: N_22  and  C_23
REMARK   11  A    between atoms: C_23  and  C_24
REMARK   12  A    between atoms: C_23  and  C_25
REMARK   13  A    between atoms: C_23  and  C_26
REMARK   14  A    between atoms: C_27  and  C_29
REMARK   15  A    between atoms: C_29  and  C_30
REMARK   16  A    between atoms: C_29  and  C_36
REMARK                            x       y       z     vdW  Elec       q    Type
REMARK                         _______ _______ _______ _____ _____    ______ ____
ROOT
ATOM      1  N   UNL     1       1.992  -3.118  -2.495  0.00  0.00    -0.278 N 
ATOM      2  C   UNL     1       1.377  -4.271  -2.168  0.00  0.00    +0.229 C 
ATOM      3  O   UNL     1       0.643  -4.316  -1.204  0.00  0.00    -0.275 OA
ENDROOT
BRANCH   1   4
ATOM      4  C   UNL     1       1.677  -1.887  -1.764  0.00  0.00    +0.183 C 
BRANCH   4   9
ATOM      5  C   UNL     1      -2.106   0.582  -4.007  0.00  0.00    +0.086 C 
ATOM      6  C   UNL     1      -1.359  -0.359  -3.097  0.00  0.00    +0.102 A 
ATOM      7  C   UNL     1      -1.916  -1.189  -2.196  0.00  0.00    +0.045 A 
ATOM      8  C   UNL     1      -0.855  -1.881  -1.568  0.00  0.00    +0.046 A 
ATOM      9  C   UNL     1       0.285  -1.433  -2.122  0.00  0.00    +0.122 A 
ATOM     10  O   UNL     1      -0.026  -0.515  -3.051  0.00  0.00    -0.463 OA
ENDBRANCH   4   9
ENDBRANCH   1   4
BRANCH   1  11
ATOM     11  C   UNL     1       2.975  -3.094  -3.580  0.00  0.00    +0.193 C 
BRANCH  11  12
ATOM     12  C   UNL     1       4.351  -2.866  -3.007  0.00  0.00    -0.018 A 
ATOM     13  C   UNL     1       4.490  -2.303  -1.752  0.00  0.00    +0.008 A 
ATOM     14  C   UNL     1       5.749  -2.093  -1.224  0.00  0.00    +0.023 A 
ATOM     15  C   UNL     1       6.875  -2.449  -1.955  0.00  0.00    +0.029 A 
ATOM     16  C   UNL     1       6.731  -3.014  -3.215  0.00  0.00    +0.023 A 
ATOM     17  C   UNL     1       5.470  -3.226  -3.735  0.00  0.00    +0.008 A 
BRANCH  15  18
ATOM     18  N   UNL     1       8.150  -2.238  -1.424  0.00  0.00    -0.336 N 
ATOM     19  C   UNL     1       8.300  -1.641  -0.094  0.00  0.00    +0.129 C 
ATOM     20  C   UNL     1       9.337  -2.613  -2.196  0.00  0.00    +0.129 C 
ENDBRANCH  15  18
ENDBRANCH  11  12
BRANCH  11  21
ATOM     21  C   UNL     1       2.640  -1.979  -4.538  0.00  0.00    +0.238 C 
ATOM     22  O   UNL     1       1.884  -1.094  -4.197  0.00  0.00    -0.273 OA
ATOM     23  N   UNL     1       3.180  -1.966  -5.772  0.00  0.00    -0.309 N 
ATOM     24  H   UNL     1       3.785  -2.674  -6.045  0.00  0.00    +0.149 HD
BRANCH  23  25
ATOM     25  C   UNL     1       2.854  -0.883  -6.703  0.00  0.00    +0.026 C 
ATOM     26  C   UNL     1       3.282   0.456  -6.098  0.00  0.00    +0.031 C 
ATOM     27  C   UNL     1       3.593  -1.105  -8.024  0.00  0.00    +0.031 C 
ATOM     28  C   UNL     1       1.345  -0.868  -6.959  0.00  0.00    +0.031 C 
ENDBRANCH  23  25
ENDBRANCH  11  21
ENDBRANCH   1  11
BRANCH   2  29
ATOM     29  C   UNL     1       1.601  -5.507  -3.002  0.00  0.00    +0.135 C 
BRANCH  29  30
ATOM     30  C   UNL     1       2.834  -6.223  -2.516  0.00  0.00    -0.031 A 
ATOM     31  C   UNL     1       3.006  -6.468  -1.167  0.00  0.00    +0.005 A 
ATOM     32  C   UNL     1       4.137  -7.125  -0.721  0.00  0.00    +0.000 A 
ATOM     33  C   UNL     1       5.098  -7.538  -1.626  0.00  0.00    +0.000 A 
ATOM     34  C   UNL     1       4.926  -7.295  -2.976  0.00  0.00    +0.000 A 
ATOM     35  C   UNL     1       3.792  -6.641  -3.421  0.00  0.00    +0.005 A 
ENDBRANCH  29  30
BRANCH  29  36
ATOM     36  C   UNL     1       0.408  -6.420  -2.877  0.00  0.00    -0.031 A 
ATOM     37  C   UNL     1       0.072  -6.954  -1.648  0.00  0.00    +0.005 A 
ATOM     38  C   UNL     1      -1.022  -7.791  -1.534  0.00  0.00    +0.000 A 
ATOM     39  C   UNL     1      -1.780  -8.094  -2.650  0.00  0.00    +0.000 A 
ATOM     40  C   UNL     1      -1.444  -7.559  -3.879  0.00  0.00    +0.000 A 
ATOM     41  C   UNL     1      -0.353  -6.718  -3.992  0.00  0.00    +0.005 A 
ENDBRANCH  29  36
ENDBRANCH   2  29
TORSDOF 10
