REMARK  Name = ZINC40282696
REMARK  2 active torsions:
REMARK  status: ('A' for Active; 'I' for Inactive)
REMARK    1  A    between atoms: C_6  and  C_7
REMARK    2  A    between atoms: C_7  and  C_9
REMARK                            x       y       z     vdW  Elec       q    Type
REMARK                         _______ _______ _______ _____ _____    ______ ____
ROOT
ATOM      1  C   UNL     1      -0.117   1.436   0.015  0.00  0.00    +0.007 A 
ATOM      2  C   UNL     1       1.032   2.203  -0.015  0.00  0.00    +0.028 A 
ATOM      3  C   UNL     1       2.272   1.586  -0.085  0.00  0.00    +0.067 A 
ATOM      4  C   UNL     1       2.354   0.193  -0.124  0.00  0.00    +0.067 A 
ATOM      5  C   UNL     1       1.196  -0.568  -0.094  0.00  0.00    +0.033 A 
ATOM      6  C   UNL     1      -0.035   0.055  -0.023  0.00  0.00    -0.027 A 
ATOM      7  N   UNL     1       3.707  -0.129  -0.190  0.00  0.00    -0.306 N 
ATOM      8  H   UNL     1       4.077  -1.025  -0.229  0.00  0.00    +0.170 HD
ATOM      9  C   UNL     1       4.416   1.016  -0.191  0.00  0.00    +0.325 A 
ATOM     10  O   UNL     1       5.629   1.089  -0.242  0.00  0.00    -0.247 OA
ATOM     11  N   UNL     1       3.578   2.068  -0.128  0.00  0.00    -0.306 N 
ATOM     12  H   UNL     1       3.839   3.002  -0.116  0.00  0.00    +0.170 HD
ENDROOT
BRANCH   6  13
ATOM     13  C   UNL     1      -1.294  -0.772   0.011  0.00  0.00    +0.116 C 
ATOM     14 BR   UNL     1      -2.518  -0.162  -1.403  0.00  0.00    -0.078 Br
BRANCH  13  15
ATOM     15  C   UNL     1      -1.961  -0.617   1.353  0.00  0.00    -0.027 A 
ATOM     16  C   UNL     1      -2.505   0.600   1.718  0.00  0.00    +0.025 A 
ATOM     17  C   UNL     1      -3.116   0.743   2.951  0.00  0.00    +0.043 A 
ATOM     18  C   UNL     1      -3.184  -0.333   3.818  0.00  0.00    +0.040 A 
ATOM     19  C   UNL     1      -2.641  -1.551   3.452  0.00  0.00    +0.043 A 
ATOM     20  C   UNL     1      -2.034  -1.694   2.217  0.00  0.00    +0.025 A 
ATOM     21 CL   UNL     1      -2.725  -2.901   4.540  0.00  0.00    -0.083 Cl
ATOM     22 CL   UNL     1      -3.798   2.272   3.410  0.00  0.00    -0.083 Cl
ENDBRANCH  13  15
ENDBRANCH   6  13
TORSDOF 2
