REMARK  Name = ZINC45971377
REMARK  9 active torsions:
REMARK  status: ('A' for Active; 'I' for Inactive)
REMARK    1  A    between atoms: C_1  and  C_2
REMARK    2  A    between atoms: C_2  and  C_3
REMARK    3  A    between atoms: C_3  and  C_5
REMARK    4  A    between atoms: C_3  and  N_6
REMARK    5  A    between atoms: C_7  and  C_9
REMARK    6  A    between atoms: C_9  and  S_10
REMARK    7  A    between atoms: S_10  and  C_11
REMARK    8  A    between atoms: C_21  and  C_23
REMARK    9  A    between atoms: C_26  and  C_29
REMARK                            x       y       z     vdW  Elec       q    Type
REMARK                         _______ _______ _______ _____ _____    ______ ____
ROOT
ATOM      1  C   UNL     1      -6.513   0.845   3.974  0.00  0.00    +0.196 A 
ATOM      2  N   UNL     1      -5.802   1.083   5.055  0.00  0.00    -0.122 NA
ATOM      3  N   UNL     1      -6.576   1.390   6.037  0.00  0.00    -0.126 NA
ATOM      4  C   UNL     1      -7.826   1.366   5.642  0.00  0.00    +0.187 A 
ATOM      5  N   UNL     1      -7.822   1.021   4.305  0.00  0.00    -0.274 N 
ATOM      6  C   UNL     1      -9.017   0.923   3.616  0.00  0.00    +0.115 A 
ATOM      7  C   UNL     1     -10.181   1.157   4.207  0.00  0.00    +0.131 A 
ATOM      8  N   UNL     1     -10.262   1.511   5.545  0.00  0.00    -0.234 N 
ATOM      9  C   UNL     1      -9.116   1.619   6.291  0.00  0.00    +0.112 A 
ATOM     10  C   UNL     1      -9.484   1.977   7.567  0.00  0.00    +0.061 A 
ATOM     11  C   UNL     1     -10.883   2.073   7.591  0.00  0.00    +0.094 A 
ATOM     12  N   UNL     1     -11.343   1.804   6.384  0.00  0.00    -0.166 NA
ENDROOT
BRANCH  11  13
ATOM     13  C   UNL     1     -11.707   2.435   8.772  0.00  0.00    +0.002 A 
ATOM     14  C   UNL     1     -11.095   2.721   9.990  0.00  0.00    +0.010 A 
ATOM     15  C   UNL     1     -11.866   3.058  11.084  0.00  0.00    +0.004 A 
ATOM     16  C   UNL     1     -13.244   3.111  10.973  0.00  0.00    -0.050 A 
ATOM     17  C   UNL     1     -13.857   2.827   9.766  0.00  0.00    +0.004 A 
ATOM     18  C   UNL     1     -13.095   2.495   8.664  0.00  0.00    +0.010 A 
ATOM     19  C   UNL     1     -14.080   3.478  12.171  0.00  0.00    +0.044 C 
ENDBRANCH  11  13
BRANCH   1  20
ATOM     20  S   UNL     1      -5.887   0.391   2.391  0.00  0.00    -0.076 S 
BRANCH  20  21
ATOM     21  C   UNL     1      -4.090   0.329   2.630  0.00  0.00    +0.173 C 
BRANCH  21  23
ATOM     22  N   UNL     1      -2.082  -0.162   1.273  0.00  0.00    -0.312 N 
ATOM     23  C   UNL     1      -3.424  -0.053   1.334  0.00  0.00    +0.224 C 
ATOM     24  O   UNL     1      -4.095  -0.264   0.346  0.00  0.00    -0.275 OA
ATOM     25  H   UNL     1      -1.545   0.006   2.063  0.00  0.00    +0.149 HD
BRANCH  22  26
ATOM     26  C   UNL     1      -1.433  -0.534   0.013  0.00  0.00    +0.070 C 
ATOM     27  C   UNL     1      -1.416  -2.058  -0.121  0.00  0.00    +0.028 C 
BRANCH  26  29
ATOM     28  C   UNL     1      -0.019   1.526   0.010  0.00  0.00    +0.005 C 
ATOM     29  C   UNL     1       0.002  -0.004   0.002  0.00  0.00    +0.018 C 
ENDBRANCH  26  29
ENDBRANCH  22  26
ENDBRANCH  21  23
ENDBRANCH  20  21
ENDBRANCH   1  20
TORSDOF 6
