REMARK  Name = ZINC38845012
REMARK  9 active torsions:
REMARK  status: ('A' for Active; 'I' for Inactive)
REMARK    1  A    between atoms: C_1  and  C_2
REMARK    2  A    between atoms: C_2  and  C_3
REMARK    3  A    between atoms: C_2  and  C_4
REMARK    4  A    between atoms: C_2  and  N_5
REMARK    5  A    between atoms: C_6  and  C_8
REMARK    6  A    between atoms: C_8  and  N_9
REMARK    7  A    between atoms: C_14  and  C_16
REMARK    8  A    between atoms: N_25  and  C_26
REMARK    9  A    between atoms: N_25  and  C_27
REMARK                            x       y       z     vdW  Elec       q    Type
REMARK                         _______ _______ _______ _____ _____    ______ ____
ROOT
ATOM      1  N   UNL     1       3.530   0.068  -2.882  0.00  0.00    -0.218 N 
ATOM      2  C   UNL     1       4.312  -0.687  -2.095  0.00  0.00    +0.294 A 
ATOM      3  O   UNL     1       3.867  -1.704  -1.589  0.00  0.00    -0.264 OA
ATOM      4  C   UNL     1       5.711  -0.287  -1.841  0.00  0.00    +0.148 A 
ATOM      5  C   UNL     1       6.116   0.902  -2.475  0.00  0.00    +0.074 A 
ATOM      6  C   UNL     1       5.217   1.662  -3.308  0.00  0.00    +0.107 A 
ATOM      7  N   UNL     1       3.983   1.239  -3.493  0.00  0.00    -0.167 NA
ATOM      8  S   UNL     1       7.804   1.057  -1.953  0.00  0.00    -0.050 S 
ATOM      9  C   UNL     1       7.864  -0.425  -0.954  0.00  0.00    +0.166 A 
ATOM     10  N   UNL     1       6.645  -0.900  -1.091  0.00  0.00    -0.219 NA
ATOM     11  N   UNL     1       8.919  -0.939  -0.224  0.00  0.00    -0.283 N 
ATOM     12  C   UNL     1      10.164  -0.176  -0.099  0.00  0.00    +0.137 C 
ENDROOT
BRANCH   6  13
ATOM     13  C   UNL     1       5.681   2.911  -3.959  0.00  0.00    +0.003 A 
ATOM     14  C   UNL     1       5.053   3.372  -5.115  0.00  0.00    +0.010 A 
ATOM     15  C   UNL     1       5.490   4.535  -5.716  0.00  0.00    +0.001 A 
ATOM     16  C   UNL     1       6.548   5.242  -5.175  0.00  0.00    +0.000 A 
ATOM     17  C   UNL     1       7.175   4.788  -4.028  0.00  0.00    +0.001 A 
ATOM     18  C   UNL     1       6.743   3.631  -3.414  0.00  0.00    +0.010 A 
ENDBRANCH   6  13
BRANCH  11  19
ATOM     19  C   UNL     1       8.799  -2.187   0.395  0.00  0.00    +0.035 A 
ATOM     20  C   UNL     1       9.801  -2.643   1.242  0.00  0.00    +0.023 A 
ATOM     21  C   UNL     1       9.679  -3.876   1.852  0.00  0.00    +0.002 A 
ATOM     22  C   UNL     1       8.561  -4.657   1.620  0.00  0.00    +0.000 A 
ATOM     23  C   UNL     1       7.562  -4.206   0.776  0.00  0.00    +0.002 A 
ATOM     24  C   UNL     1       7.675  -2.971   0.168  0.00  0.00    +0.023 A 
ENDBRANCH  11  19
BRANCH   1  25
ATOM     25  C   UNL     1       2.147  -0.356  -3.114  0.00  0.00    +0.243 C 
BRANCH  25  27
ATOM     26  N   UNL     1      -0.071  -0.002  -2.078  0.00  0.00    -0.309 N 
ATOM     27  C   UNL     1       1.253   0.251  -2.064  0.00  0.00    +0.235 C 
ATOM     28  O   UNL     1       1.724   0.967  -1.207  0.00  0.00    -0.274 OA
ATOM     29  H   UNL     1      -0.448  -0.575  -2.764  0.00  0.00    +0.149 HD
BRANCH  26  31
ATOM     30  C   UNL     1      -0.855   2.114  -1.135  0.00  0.00    +0.031 C 
ATOM     31  C   UNL     1      -0.941   0.588  -1.058  0.00  0.00    +0.026 C 
ATOM     32  C   UNL     1      -0.490   0.121   0.328  0.00  0.00    +0.031 C 
ATOM     33  C   UNL     1      -2.385   0.145  -1.300  0.00  0.00    +0.031 C 
ENDBRANCH  26  31
ENDBRANCH  25  27
ENDBRANCH   1  25
TORSDOF 5
