REMARK  Name = ZINC50901435
REMARK  9 active torsions:
REMARK  status: ('A' for Active; 'I' for Inactive)
REMARK    1  A    between atoms: C_1  and  C_2
REMARK    2  A    between atoms: C_2  and  C_3
REMARK    3  A    between atoms: C_3  and  C_4
REMARK    4  A    between atoms: C_4  and  C_6
REMARK    5  A    between atoms: C_4  and  N_7
REMARK    6  A    between atoms: C_8  and  C_10
REMARK    7  A    between atoms: N_15  and  C_17
REMARK    8  A    between atoms: C_17  and  N_18
REMARK    9  A    between atoms: C_24  and  C_27
REMARK                            x       y       z     vdW  Elec       q    Type
REMARK                         _______ _______ _______ _____ _____    ______ ____
ROOT
ATOM      1  C   UNL     1      -2.345  -4.283  -1.025  0.00  0.00    +0.058 C 
ATOM      2  C   UNL     1      -2.754  -4.335  -2.500  0.00  0.00    +0.009 C 
ATOM      3  C   UNL     1      -4.157  -4.938  -2.610  0.00  0.00    -0.018 C 
ATOM      4  C   UNL     1      -4.163  -6.322  -1.957  0.00  0.00    -0.077 C 
ATOM      5  N   UNL     1      -3.789  -6.203  -0.543  0.00  0.00    +0.391 N 
ATOM      6  C   UNL     1      -2.418  -5.691  -0.431  0.00  0.00    -0.064 C 
ATOM      7  H   UNL     1      -4.423  -5.567  -0.082  0.00  0.00    -0.079 HD
ENDROOT
BRANCH   1   9
ATOM      8  N   UNL     1      -0.631  -2.534  -1.375  0.00  0.00    -0.313 N 
ATOM      9  C   UNL     1      -0.935  -3.763  -0.912  0.00  0.00    +0.215 C 
ATOM     10  O   UNL     1      -0.074  -4.449  -0.404  0.00  0.00    -0.276 OA
ATOM     11  H   UNL     1      -1.320  -1.985  -1.781  0.00  0.00    +0.149 HD
BRANCH   8  12
ATOM     12  C   UNL     1       0.739  -2.027  -1.265  0.00  0.00    +0.070 C 
ATOM     13  C   UNL     1       1.562  -2.520  -2.457  0.00  0.00    +0.028 C 
BRANCH  12  14
ATOM     14  C   UNL     1       0.718  -0.497  -1.257  0.00  0.00    +0.022 C 
BRANCH  14  16
ATOM     15  C   UNL     1      -0.019   1.526   0.010  0.00  0.00    +0.004 C 
ATOM     16  C   UNL     1       0.002  -0.004   0.002  0.00  0.00    -0.002 C 
ENDBRANCH  14  16
ENDBRANCH  12  14
ENDBRANCH   8  12
ENDBRANCH   1   9
BRANCH   5  17
ATOM     17  C   UNL     1      -3.873  -7.522   0.097  0.00  0.00    +0.043 C 
BRANCH  17  18
ATOM     18  N   UNL     1      -5.265  -7.976   0.101  0.00  0.00    -0.241 N 
ATOM     19  C   UNL     1      -6.145  -7.717   1.090  0.00  0.00    +0.245 C 
ATOM     20  O   UNL     1      -5.942  -7.088   2.107  0.00  0.00    -0.273 OA
ATOM     21  C   UNL     1      -7.437  -8.375   0.664  0.00  0.00    +0.112 C 
ATOM     22  C   UNL     1      -8.537  -7.332   0.505  0.00  0.00    +0.035 C 
ATOM     23  C   UNL     1      -8.825  -6.681   1.861  0.00  0.00    +0.006 C 
ATOM     24  C   UNL     1      -9.258  -7.756   2.860  0.00  0.00    -0.014 C 
ATOM     25  C   UNL     1      -8.137  -8.784   3.025  0.00  0.00    +0.006 C 
ATOM     26  C   UNL     1      -7.847  -9.442   1.673  0.00  0.00    +0.035 C 
ATOM     27  C   UNL     1      -9.556  -7.105   4.212  0.00  0.00    +0.007 C 
ATOM     28  N   UNL     1      -7.116  -8.987  -0.631  0.00  0.00    -0.285 N 
ATOM     29  C   UNL     1      -5.824  -8.696  -0.880  0.00  0.00    +0.308 C 
ATOM     30  O   UNL     1      -5.232  -9.050  -1.881  0.00  0.00    -0.252 OA
ATOM     31  H   UNL     1      -7.716  -9.497  -1.197  0.00  0.00    +0.151 HD
ENDBRANCH  17  18
ENDBRANCH   5  17
TORSDOF 6
