REMARK  Name = ZINC39970634
REMARK  10 active torsions:
REMARK  status: ('A' for Active; 'I' for Inactive)
REMARK    1  A    between atoms: C_1  and  C_2
REMARK    2  A    between atoms: C_7  and  C_37
REMARK    3  A    between atoms: N_9  and  S_10
REMARK    4  A    between atoms: S_10  and  C_13
REMARK    5  A    between atoms: C_16  and  N_19
REMARK    6  A    between atoms: N_19  and  C_20
REMARK    7  A    between atoms: C_20  and  N_22
REMARK    8  A    between atoms: N_25  and  C_28
REMARK    9  A    between atoms: C_28  and  C_29
REMARK   10  A    between atoms: C_30  and  C_31
REMARK                            x       y       z     vdW  Elec       q    Type
REMARK                         _______ _______ _______ _____ _____    ______ ____
ROOT
ATOM      1  N   UNL     1       2.706  -7.189   0.503  0.00  0.00    -0.297 N 
ATOM      2  H   UNL     1       2.236  -7.705  -0.170  0.00  0.00    +0.154 HD
ENDROOT
BRANCH   1   6
ATOM      3  C   UNL     1       1.252  -3.461   1.660  0.00  0.00    +0.106 A 
ATOM      4  C   UNL     1       2.615  -3.667   1.556  0.00  0.00    +0.030 A 
ATOM      5  C   UNL     1       3.100  -4.902   1.173  0.00  0.00    +0.025 A 
ATOM      6  C   UNL     1       2.218  -5.937   0.892  0.00  0.00    +0.033 A 
ATOM      7  C   UNL     1       0.849  -5.726   0.997  0.00  0.00    +0.025 A 
ATOM      8  C   UNL     1       0.370  -4.491   1.386  0.00  0.00    +0.030 A 
BRANCH   3   9
ATOM      9  S   UNL     1       0.636  -1.884   2.149  0.00  0.00    +0.061 S 
ATOM     10  O   UNL     1      -0.627  -1.728   1.518  0.00  0.00    -0.153 OA
ATOM     11  O   UNL     1       1.699  -0.959   1.966  0.00  0.00    -0.153 OA
BRANCH   9  18
ATOM     12  C   UNL     1      -1.077  -3.539   4.991  0.00  0.00    +0.026 C 
ATOM     13  C   UNL     1      -1.013  -2.182   4.287  0.00  0.00    +0.077 C 
ATOM     14  C   UNL     1      -1.363  -1.071   5.282  0.00  0.00    +0.020 C 
ATOM     15  C   UNL     1      -0.289  -1.010   6.370  0.00  0.00    +0.003 C 
ATOM     16  C   UNL     1       1.065  -0.683   5.736  0.00  0.00    +0.020 C 
ATOM     17  C   UNL     1       1.442  -1.790   4.747  0.00  0.00    +0.077 C 
ATOM     18  N   UNL     1       0.346  -1.955   3.778  0.00  0.00    -0.171 NA
ATOM     19  C   UNL     1       2.726  -1.405   4.011  0.00  0.00    +0.026 C 
ENDBRANCH   9  18
ENDBRANCH   3   9
ENDBRANCH   1   6
BRANCH   1  20
ATOM     20  C   UNL     1       3.830  -7.677   1.063  0.00  0.00    +0.137 C 
ATOM     21  S   UNL     1       4.584  -6.832   2.348  0.00  0.00    -0.018 S 
BRANCH  20  22
ATOM     22  N   UNL     1       4.362  -8.831   0.613  0.00  0.00    -0.316 N 
ATOM     23  C   UNL     1       3.798  -9.516  -0.561  0.00  0.00    +0.088 C 
ATOM     24  C   UNL     1       3.562 -10.986  -0.199  0.00  0.00    -0.059 C 
ATOM     25  N   UNL     1       4.810 -11.572   0.303  0.00  0.00    +0.384 N 
ATOM     26  C   UNL     1       5.203 -10.915   1.556  0.00  0.00    -0.059 C 
ATOM     27  C   UNL     1       5.524  -9.439   1.278  0.00  0.00    +0.088 C 
ATOM     28  H   UNL     1       5.539 -11.448  -0.383  0.00  0.00    -0.081 HD
BRANCH  25  29
ATOM     29  C   UNL     1       4.612 -13.008   0.546  0.00  0.00    -0.051 C 
BRANCH  29  30
ATOM     30  C   UNL     1       5.923 -13.636   0.944  0.00  0.00    -0.045 C 
ATOM     31  C   UNL     1       6.014 -14.318   2.077  0.00  0.00    +0.002 C 
BRANCH  31  32
ATOM     32  C   UNL     1       7.300 -14.934   2.467  0.00  0.00    -0.025 A 
ATOM     33  C   UNL     1       8.421 -14.794   1.648  0.00  0.00    +0.008 A 
ATOM     34  C   UNL     1       9.618 -15.372   2.018  0.00  0.00    +0.001 A 
ATOM     35  C   UNL     1       9.708 -16.088   3.198  0.00  0.00    +0.000 A 
ATOM     36  C   UNL     1       8.600 -16.231   4.014  0.00  0.00    +0.001 A 
ATOM     37  C   UNL     1       7.399 -15.653   3.659  0.00  0.00    +0.008 A 
ENDBRANCH  31  32
ENDBRANCH  29  30
ENDBRANCH  25  29
ENDBRANCH  20  22
ENDBRANCH   1  20
TORSDOF 8
