REMARK  Name = ZINC39760170
REMARK  9 active torsions:
REMARK  status: ('A' for Active; 'I' for Inactive)
REMARK    1  A    between atoms: C_1  and  C_2
REMARK    2  A    between atoms: C_10  and  C_11
REMARK    3  A    between atoms: C_15  and  S_22
REMARK    4  A    between atoms: N_17  and  C_18
REMARK    5  A    between atoms: C_18  and  C_19
REMARK    6  A    between atoms: C_19  and  C_20
REMARK    7  A    between atoms: C_19  and  C_21
REMARK    8  A    between atoms: S_22  and  C_23
REMARK    9  A    between atoms: C_23  and  C_24
REMARK                            x       y       z     vdW  Elec       q    Type
REMARK                         _______ _______ _______ _____ _____    ______ ____
ROOT
ATOM      1  C   UNL     1       0.135  -0.392   2.571  0.00  0.00    +0.147 C 
ATOM      2  N   UNL     1      -0.483   0.939   2.627  0.00  0.00    -0.201 NA
ATOM      3  N   UNL     1      -1.663   0.870   2.985  0.00  0.00    -0.198 NA
ATOM      4  C   UNL     1      -2.060  -0.522   3.237  0.00  0.00    +0.138 C 
ATOM      5  N   UNL     1      -0.778  -1.269   3.346  0.00  0.00    +0.423 N 
ATOM      6  H   UNL     1      -0.481  -1.341   4.308  0.00  0.00    -0.073 HD
ENDROOT
BRANCH   1  16
ATOM      7  C   UNL     1       2.678  -1.570   1.228  0.00  0.00    +0.048 C 
ATOM      8  C   UNL     1       1.334  -1.372   0.576  0.00  0.00    -0.002 A 
ATOM      9  C   UNL     1       0.968  -1.701  -0.807  0.00  0.00    +0.023 A 
ATOM     10  C   UNL     1       1.651  -2.251  -1.892  0.00  0.00    +0.012 A 
ATOM     11  C   UNL     1       1.000  -2.432  -3.081  0.00  0.00    +0.001 A 
ATOM     12  C   UNL     1      -0.333  -2.072  -3.214  0.00  0.00    +0.004 A 
ATOM     13  C   UNL     1      -1.024  -1.527  -2.153  0.00  0.00    +0.047 A 
ATOM     14  C   UNL     1      -0.382  -1.335  -0.936  0.00  0.00    +0.135 A 
ATOM     15  O   UNL     1      -0.777  -0.838   0.254  0.00  0.00    -0.459 OA
ATOM     16  C   UNL     1       0.231  -0.866   1.143  0.00  0.00    +0.119 A 
ENDBRANCH   1  16
BRANCH   5  17
ATOM     17  C   UNL     1      -0.885  -2.597   2.728  0.00  0.00    -0.068 C 
BRANCH  17  18
ATOM     18  C   UNL     1      -1.724  -3.511   3.624  0.00  0.00    -0.034 C 
ATOM     19  C   UNL     1      -1.940  -4.853   2.923  0.00  0.00    +0.005 C 
ATOM     20  C   UNL     1      -0.992  -3.738   4.948  0.00  0.00    +0.005 C 
ENDBRANCH  17  18
ENDBRANCH   5  17
BRANCH   4  21
ATOM     21  S   UNL     1      -2.997  -0.641   4.785  0.00  0.00    -0.144 S 
BRANCH  21  22
ATOM     22  C   UNL     1      -1.858   0.008   6.039  0.00  0.00    +0.143 C 
BRANCH  22  23
ATOM     23  C   UNL     1      -2.522  -0.035   7.391  0.00  0.00    +0.120 A 
ATOM     24  N   UNL     1      -1.824   0.417   8.466  0.00  0.00    -0.310 N 
ATOM     25  H   UNL     1      -0.923   0.755   8.346  0.00  0.00    +0.170 HD
ATOM     26  C   UNL     1      -2.376   0.400   9.702  0.00  0.00    +0.259 A 
ATOM     27  O   UNL     1      -1.763   0.803  10.673  0.00  0.00    -0.267 OA
ATOM     28  C   UNL     1      -3.744  -0.124   9.825  0.00  0.00    +0.065 A 
ATOM     29  C   UNL     1      -4.402  -0.185  11.052  0.00  0.00    +0.015 A 
ATOM     30  C   UNL     1      -5.684  -0.686  11.110  0.00  0.00    +0.001 A 
ATOM     31  C   UNL     1      -6.323  -1.128   9.959  0.00  0.00    +0.002 A 
ATOM     32  C   UNL     1      -5.690  -1.076   8.737  0.00  0.00    +0.028 A 
ATOM     33  C   UNL     1      -4.391  -0.573   8.652  0.00  0.00    +0.078 A 
ATOM     34  N   UNL     1      -3.732  -0.498   7.469  0.00  0.00    -0.233 NA
ENDBRANCH  22  23
ENDBRANCH  21  22
ENDBRANCH   4  21
TORSDOF 6
