REMARK  Name = ZINC13327999
REMARK  8 active torsions:
REMARK  status: ('A' for Active; 'I' for Inactive)
REMARK    1  A    between atoms: C_1  and  C_2
REMARK    2  A    between atoms: C_2  and  C_3
REMARK    3  A    between atoms: C_4  and  C_9
REMARK    4  A    between atoms: C_5  and  C_8
REMARK    5  A    between atoms: N_11  and  C_12
REMARK    6  A    between atoms: C_13  and  C_25
REMARK    7  A    between atoms: C_14  and  C_18
REMARK    8  A    between atoms: C_15  and  C_17
REMARK                            x       y       z     vdW  Elec       q    Type
REMARK                         _______ _______ _______ _____ _____    ______ ____
ROOT
ATOM      1  C   UNL     1      -1.211   3.809   1.210  0.00  0.00    +0.085 A 
ATOM      2  C   UNL     1      -1.207   3.088   0.025  0.00  0.00    +0.073 A 
ATOM      3  C   UNL     1      -1.218   3.855  -1.206  0.00  0.00    +0.006 A 
ATOM      4  C   UNL     1      -1.241   5.207  -1.083  0.00  0.00    -0.003 A 
ATOM      5  S   UNL     1      -1.235   5.457   0.680  0.00  0.00    -0.077 S 
ATOM      6  C   UNL     1      -1.260   6.246  -2.175  0.00  0.00    +0.052 C 
ENDROOT
BRANCH   3   7
ATOM      7  C   UNL     1      -1.209   3.196  -2.534  0.00  0.00    -0.016 A 
ATOM      8  C   UNL     1      -0.103   2.448  -2.936  0.00  0.00    +0.011 A 
ATOM      9  C   UNL     1      -0.102   1.831  -4.170  0.00  0.00    +0.039 A 
ATOM     10  C   UNL     1      -1.192   1.963  -5.014  0.00  0.00    +0.123 A 
ATOM     11  C   UNL     1      -2.291   2.711  -4.621  0.00  0.00    +0.039 A 
ATOM     12  C   UNL     1      -2.304   3.326  -3.387  0.00  0.00    +0.011 A 
ATOM     13  F   UNL     1      -1.185   1.362  -6.224  0.00  0.00    -0.205 F 
ENDBRANCH   3   7
BRANCH   2  14
ATOM     14  C   UNL     1      -1.187   1.624   0.017  0.00  0.00    +0.244 C 
ATOM     15  O   UNL     1      -2.233   1.001   0.018  0.00  0.00    -0.270 OA
ATOM     16  N   UNL     1      -0.011   0.966   0.007  0.00  0.00    -0.325 N 
ATOM     17  H   UNL     1       0.002  -0.004   0.002  0.00  0.00    +0.145 HD
ATOM     18  H   UNL     1       0.822   1.462   0.002  0.00  0.00    +0.145 HD
ENDBRANCH   2  14
BRANCH   1  21
ATOM     19  C   UNL     1      -1.205   4.185   3.547  0.00  0.00    +0.254 C 
ATOM     20  O   UNL     1      -1.221   5.384   3.345  0.00  0.00    -0.270 OA
ATOM     21  N   UNL     1      -1.199   3.326   2.509  0.00  0.00    -0.275 N 
ATOM     22  H   UNL     1      -1.185   2.370   2.670  0.00  0.00    +0.156 HD
BRANCH  19  24
ATOM     23  C   UNL     1      -0.033   3.360   5.780  0.00  0.00    +0.096 A 
ATOM     24  C   UNL     1      -1.192   3.671   4.928  0.00  0.00    +0.102 A 
ATOM     25  C   UNL     1      -2.258   3.357   5.736  0.00  0.00    +0.147 A 
ATOM     26  O   UNL     1      -1.742   2.933   6.891  0.00  0.00    -0.359 OA
ATOM     27  N   UNL     1      -0.535   2.942   6.904  0.00  0.00    -0.082 NA
ATOM     28  C   UNL     1      -3.720   3.471   5.387  0.00  0.00    +0.090 C 
BRANCH  23  30
ATOM     29  C   UNL     1       1.911   4.899   5.811  0.00  0.00    +0.010 C 
ATOM     30  C   UNL     1       1.425   3.500   5.427  0.00  0.00    +0.056 C 
ENDBRANCH  23  30
ENDBRANCH  19  24
ENDBRANCH   1  21
TORSDOF 5
