REMARK  Name = ZINC45631920
REMARK  10 active torsions:
REMARK  status: ('A' for Active; 'I' for Inactive)
REMARK    1  A    between atoms: C_1  and  C_2
REMARK    2  A    between atoms: C_2  and  C_3
REMARK    3  A    between atoms: C_3  and  C_30
REMARK    4  A    between atoms: N_6  and  C_10
REMARK    5  A    between atoms: C_10  and  C_11
REMARK    6  A    between atoms: C_12  and  C_25
REMARK    7  A    between atoms: C_13  and  C_19
REMARK    8  A    between atoms: C_25  and  O_27
REMARK    9  A    between atoms: O_27  and  C_28
REMARK   10  A    between atoms: C_28  and  C_29
REMARK                            x       y       z     vdW  Elec       q    Type
REMARK                         _______ _______ _______ _____ _____    ______ ____
ROOT
ATOM      1  C   UNL     1      -3.823   2.893   1.736  0.00  0.00    +0.042 C 
ATOM      2  C   UNL     1      -4.382   3.901   1.032  0.00  0.00    +0.080 C 
ATOM      3  C   UNL     1      -3.801   5.290   1.206  0.00  0.00    +0.144 C 
ATOM      4  N   UNL     1      -2.666   5.426   2.135  0.00  0.00    -0.288 N 
ATOM      5  C   UNL     1      -2.218   4.324   2.767  0.00  0.00    +0.304 C 
ATOM      6  O   UNL     1      -1.282   4.426   3.536  0.00  0.00    -0.252 OA
ATOM      7  N   UNL     1      -2.774   3.120   2.580  0.00  0.00    -0.271 N 
ATOM      8  H   UNL     1      -2.251   6.290   2.289  0.00  0.00    +0.151 HD
ATOM      9  H   UNL     1      -2.407   2.365   3.067  0.00  0.00    +0.156 HD
ENDROOT
BRANCH   3  10
ATOM     10  C   UNL     1      -3.354   5.779  -0.147  0.00  0.00    -0.022 A 
ATOM     11  C   UNL     1      -2.149   5.352  -0.673  0.00  0.00    +0.006 A 
ATOM     12  C   UNL     1      -1.739   5.801  -1.914  0.00  0.00    +0.000 A 
ATOM     13  C   UNL     1      -2.534   6.678  -2.630  0.00  0.00    +0.000 A 
ATOM     14  C   UNL     1      -3.739   7.104  -2.104  0.00  0.00    +0.000 A 
ATOM     15  C   UNL     1      -4.151   6.652  -0.864  0.00  0.00    +0.006 A 
ENDBRANCH   3  10
BRANCH   2  16
ATOM     16  C   UNL     1      -5.473   3.669   0.162  0.00  0.00    +0.339 C 
ATOM     17  O   UNL     1      -5.285   3.573  -1.037  0.00  0.00    -0.245 OA
BRANCH  16  18
ATOM     18  O   UNL     1      -6.721   3.554   0.660  0.00  0.00    -0.462 OA
BRANCH  18  19
ATOM     19  C   UNL     1      -7.775   3.320  -0.276  0.00  0.00    +0.229 C 
ATOM     20  C   UNL     1      -9.107   3.219   0.469  0.00  0.00    +0.048 C 
ENDBRANCH  18  19
ENDBRANCH  16  18
ENDBRANCH   2  16
BRANCH   1  21
ATOM     21  C   UNL     1      -4.371   1.496   1.592  0.00  0.00    +0.169 C 
BRANCH  21  25
ATOM     22  C   UNL     1      -1.602  -0.815   0.704  0.00  0.00    +0.138 C 
ATOM     23  C   UNL     1      -2.445  -0.071   1.721  0.00  0.00    +0.251 C 
ATOM     24  O   UNL     1      -2.331  -0.099   2.928  0.00  0.00    -0.272 OA
ATOM     25  N   UNL     1      -3.347   0.629   1.004  0.00  0.00    -0.218 N 
ATOM     26  C   UNL     1      -3.192   0.432  -0.310  0.00  0.00    +0.310 C 
ATOM     27  O   UNL     1      -3.888   0.956  -1.158  0.00  0.00    -0.252 OA
ATOM     28  N   UNL     1      -2.181  -0.410  -0.589  0.00  0.00    -0.281 N 
ATOM     29  H   UNL     1      -1.890  -0.695  -1.469  0.00  0.00    +0.152 HD
BRANCH  22  30
ATOM     30  C   UNL     1      -1.724  -2.304   0.897  0.00  0.00    -0.015 A 
ATOM     31  C   UNL     1      -0.818  -2.974   1.697  0.00  0.00    +0.009 A 
ATOM     32  C   UNL     1      -0.930  -4.340   1.875  0.00  0.00    +0.039 A 
ATOM     33  C   UNL     1      -1.950  -5.037   1.251  0.00  0.00    +0.123 A 
ATOM     34  C   UNL     1      -2.857  -4.365   0.450  0.00  0.00    +0.039 A 
ATOM     35  C   UNL     1      -2.747  -2.999   0.278  0.00  0.00    +0.009 A 
ATOM     36  F   UNL     1      -2.060  -6.373   1.424  0.00  0.00    -0.205 F 
ENDBRANCH  22  30
BRANCH  22  38
ATOM     37  C   UNL     1      -0.047   1.140   0.652  0.00  0.00    +0.007 C 
ATOM     38  C   UNL     1      -0.138  -0.380   0.798  0.00  0.00    +0.037 C 
ENDBRANCH  22  38
ENDBRANCH  21  25
ENDBRANCH   1  21
TORSDOF 8
