REMARK  Name = ZINC13076231
REMARK  14 active torsions:
REMARK  status: ('A' for Active; 'I' for Inactive)
REMARK    1  A    between atoms: C_1  and  C_2
REMARK    2  A    between atoms: C_5  and  C_8
REMARK    3  A    between atoms: C_8  and  N_9
REMARK    4  A    between atoms: N_14  and  C_15
REMARK    5  A    between atoms: C_15  and  C_17
REMARK    6  A    between atoms: C_17  and  O_18
REMARK    7  A    between atoms: O_18  and  C_19
REMARK    8  A    between atoms: C_19  and  C_21
REMARK    9  A    between atoms: C_21  and  C_23
REMARK   10  A    between atoms: C_21  and  N_24
REMARK   11  A    between atoms: N_24  and  S_25
REMARK   12  A    between atoms: S_25  and  C_28
REMARK   13  A    between atoms: C_31  and  O_34
REMARK   14  A    between atoms: O_34  and  C_35
REMARK                            x       y       z     vdW  Elec       q    Type
REMARK                         _______ _______ _______ _____ _____    ______ ____
ROOT
ATOM      1  O   UNL     1       0.583  -0.662  -1.014  0.00  0.00    -0.454 OA
ENDROOT
BRANCH   1   2
ATOM      2  C   UNL     1       0.002  -0.004   0.002  0.00  0.00    +0.326 C 
ATOM      3  O   UNL     1      -0.504  -0.620   0.910  0.00  0.00    -0.249 OA
BRANCH   2   4
ATOM      4  C   UNL     1      -0.018   1.503   0.010  0.00  0.00    +0.182 C 
ATOM      5  C   UNL     1       1.417   2.032  -0.001  0.00  0.00    +0.037 C 
BRANCH   4   6
ATOM      6  N   UNL     1      -0.704   1.975   1.216  0.00  0.00    -0.176 NA
ATOM      7  H   UNL     1      -0.616   1.485   2.048  0.00  0.00    +0.149 HD
BRANCH   6   8
ATOM      8  S   UNL     1      -1.630   3.347   1.157  0.00  0.00    +0.059 S 
ATOM      9  O   UNL     1      -2.175   3.524   2.458  0.00  0.00    -0.153 OA
ATOM     10  O   UNL     1      -0.842   4.342   0.519  0.00  0.00    -0.153 OA
BRANCH   8  11
ATOM     11  C   UNL     1      -2.987   3.014   0.084  0.00  0.00    +0.105 A 
ATOM     12  C   UNL     1      -2.879   3.282  -1.268  0.00  0.00    +0.032 A 
ATOM     13  C   UNL     1      -3.940   3.017  -2.113  0.00  0.00    +0.047 A 
ATOM     14  C   UNL     1      -5.118   2.491  -1.602  0.00  0.00    +0.120 A 
ATOM     15  C   UNL     1      -5.225   2.228  -0.244  0.00  0.00    +0.047 A 
ATOM     16  C   UNL     1      -4.160   2.490   0.596  0.00  0.00    +0.032 A 
BRANCH  14  17
ATOM     17  O   UNL     1      -6.164   2.234  -2.430  0.00  0.00    -0.495 OA
ATOM     18  C   UNL     1      -5.982   2.530  -3.816  0.00  0.00    +0.277 C 
ENDBRANCH  14  17
ENDBRANCH   8  11
ENDBRANCH   6   8
ENDBRANCH   4   6
ENDBRANCH   2   4
ENDBRANCH   1   2
BRANCH   1  19
ATOM     19  C   UNL     1       0.565  -2.112  -0.956  0.00  0.00    +0.329 C 
BRANCH  19  20
ATOM     20  C   UNL     1       1.258  -2.672  -2.171  0.00  0.00    +0.276 C 
ATOM     21  O   UNL     1       1.722  -1.921  -3.007  0.00  0.00    -0.270 OA
BRANCH  20  27
ATOM     22  N   UNL     1       2.186  -5.785  -3.747  0.00  0.00    -0.324 N 
ATOM     23  C   UNL     1       2.838  -6.064  -4.905  0.00  0.00    +0.095 A 
ATOM     24  C   UNL     1       3.258  -5.048  -5.667  0.00  0.00    +0.066 A 
ATOM     25  S   UNL     1       2.712  -3.633  -4.728  0.00  0.00    -0.061 S 
ATOM     26  C   UNL     1       1.974  -4.482  -3.407  0.00  0.00    +0.166 A 
ATOM     27  N   UNL     1       1.361  -3.986  -2.330  0.00  0.00    -0.153 NA
BRANCH  22  28
ATOM     28  C   UNL     1       1.715  -6.866  -2.878  0.00  0.00    +0.158 C 
BRANCH  28  33
ATOM     29  C   UNL     1      -3.653  -8.366  -4.406  0.00  0.00    +0.044 C 
ATOM     30  C   UNL     1      -2.253  -7.974  -4.008  0.00  0.00    -0.050 A 
ATOM     31  C   UNL     1      -1.168  -8.602  -4.590  0.00  0.00    +0.004 A 
ATOM     32  C   UNL     1       0.116  -8.243  -4.225  0.00  0.00    +0.005 A 
ATOM     33  C   UNL     1       0.315  -7.257  -3.277  0.00  0.00    -0.028 A 
ATOM     34  C   UNL     1      -0.770  -6.633  -2.691  0.00  0.00    +0.005 A 
ATOM     35  C   UNL     1      -2.054  -6.988  -3.060  0.00  0.00    +0.004 A 
ENDBRANCH  28  33
ENDBRANCH  22  28
ENDBRANCH  20  27
ENDBRANCH  19  20
ENDBRANCH   1  19
TORSDOF 11
