REMARK  Name = ZINC11820273
REMARK  14 active torsions:
REMARK  status: ('A' for Active; 'I' for Inactive)
REMARK    1  A    between atoms: C_1  and  C_2
REMARK    2  A    between atoms: C_2  and  C_3
REMARK    3  A    between atoms: C_3  and  C_4
REMARK    4  A    between atoms: C_4  and  N_5
REMARK    5  A    between atoms: C_6  and  C_18
REMARK    6  A    between atoms: C_9  and  S_10
REMARK    7  A    between atoms: S_10  and  C_13
REMARK    8  A    between atoms: C_13  and  C_14
REMARK    9  A    between atoms: C_18  and  N_58
REMARK   10  A    between atoms: C_19  and  C_20
REMARK   11  A    between atoms: C_19  and  N_58
REMARK   12  A    between atoms: C_21  and  C_22
REMARK   13  A    between atoms: C_21  and  N_58
REMARK   14  A    between atoms: C_22  and  C_24
REMARK                            x       y       z     vdW  Elec       q    Type
REMARK                         _______ _______ _______ _____ _____    ______ ____
ROOT
ATOM      1  N   UNL     1      -0.540   2.125  -0.827  0.00  0.00    -0.315 N 
ATOM      2  C   UNL     1      -0.455   0.860  -0.311  0.00  0.00    +0.023 A 
ATOM      3  C   UNL     1       0.693   0.802   0.392  0.00  0.00    +0.133 A 
ATOM      4  N   UNL     1       1.292   1.998   0.306  0.00  0.00    -0.220 NA
ATOM      5  C   UNL     1       0.560   2.796  -0.423  0.00  0.00    +0.251 A 
ENDROOT
BRANCH   5   6
ATOM      6  S   UNL     1       0.943   4.471  -0.814  0.00  0.00    +0.030 S 
ATOM      7  O   UNL     1       2.360   4.546  -0.737  0.00  0.00    -0.166 OA
ATOM      8  O   UNL     1       0.270   4.720  -2.040  0.00  0.00    -0.166 OA
BRANCH   6   9
ATOM      9  C   UNL     1       0.192   5.444   0.520  0.00  0.00    +0.179 C 
BRANCH   9  10
ATOM     10  C   UNL     1       0.464   6.931   0.282  0.00  0.00    +0.011 C 
ATOM     11  C   UNL     1       1.795   7.417   0.878  0.00  0.00    +0.005 C 
ATOM     12  C   UNL     1       1.052   8.697   1.295  0.00  0.00    +0.001 C 
ATOM     13  C   UNL     1      -0.235   7.855   1.293  0.00  0.00    +0.005 C 
ENDBRANCH   9  10
ENDBRANCH   6   9
ENDBRANCH   5   6
BRANCH   1  14
ATOM     14  C   UNL     1      -1.619   2.650  -1.667  0.00  0.00    +0.125 C 
BRANCH  14  15
ATOM     15  C   UNL     1      -2.642   3.373  -0.790  0.00  0.00    +0.021 C 
BRANCH  15  17
ATOM     16  C   UNL     1      -4.856   4.532  -0.770  0.00  0.00    +0.004 C 
ATOM     17  C   UNL     1      -3.832   3.809  -1.648  0.00  0.00    -0.002 C 
ENDBRANCH  15  17
ENDBRANCH  14  15
ENDBRANCH   1  14
BRANCH   2  18
ATOM     18  C   UNL     1      -1.455  -0.253  -0.492  0.00  0.00    -0.022 C 
BRANCH  18  19
ATOM     19  N   UNL     1      -1.181  -0.933  -1.775  0.00  0.00    +0.386 N 
ATOM     20  H   UNL     1      -1.030  -0.224  -2.503  0.00  0.00    -0.081 HD
BRANCH  19  21
ATOM     21  C   UNL     1       0.036  -1.765  -1.657  0.00  0.00    -0.081 C 
ATOM     22  C   UNL     1      -0.159  -2.852  -0.598  0.00  0.00    -0.017 C 
ENDBRANCH  19  21
BRANCH  19  23
ATOM     23  C   UNL     1      -2.333  -1.776  -2.157  0.00  0.00    -0.048 C 
BRANCH  23  24
ATOM     24  C   UNL     1      -2.185  -2.174  -3.603  0.00  0.00    -0.096 C 
ATOM     25  C   UNL     1      -1.666  -3.336  -3.912  0.00  0.00    +0.005 C 
ATOM     26  C   UNL     1      -2.633  -1.235  -4.693  0.00  0.00    +0.036 C 
ENDBRANCH  23  24
ENDBRANCH  19  23
ENDBRANCH  18  19
ENDBRANCH   2  18
TORSDOF 11
