REMARK  Name = ZINC01352219
REMARK  8 active torsions:
REMARK  status: ('A' for Active; 'I' for Inactive)
REMARK    1  A    between atoms: C_1  and  C_2
REMARK    2  A    between atoms: C_5  and  S_8
REMARK    3  A    between atoms: S_8  and  C_11
REMARK    4  A    between atoms: C_11  and  N_12
REMARK    5  A    between atoms: C_13  and  C_17
REMARK    6  A    between atoms: C_17  and  C_19
REMARK    7  A    between atoms: C_17  and  N_26
REMARK    8  A    between atoms: C_29  and  C_32
REMARK                            x       y       z     vdW  Elec       q    Type
REMARK                         _______ _______ _______ _____ _____    ______ ____
ROOT
ATOM      1  C   UNL     1       1.993  -6.807   2.479  0.00  0.00    +0.033 C 
ENDROOT
BRANCH   1   2
ATOM      2  C   UNL     1       3.379  -6.889   3.065  0.00  0.00    -0.053 A 
ATOM      3  C   UNL     1       3.887  -8.109   3.470  0.00  0.00    +0.005 A 
ATOM      4  C   UNL     1       5.158  -8.185   4.007  0.00  0.00    +0.038 A 
ATOM      5  C   UNL     1       5.923  -7.039   4.139  0.00  0.00    +0.123 A 
ATOM      6  C   UNL     1       5.414  -5.817   3.733  0.00  0.00    +0.038 A 
ATOM      7  C   UNL     1       4.144  -5.744   3.191  0.00  0.00    +0.005 A 
ATOM      8  F   UNL     1       7.166  -7.112   4.664  0.00  0.00    -0.205 F 
ENDBRANCH   1   2
BRANCH   1   9
ATOM      9  N   UNL     1       1.092  -7.693   3.228  0.00  0.00    +0.389 N 
ATOM     10  C   UNL     1      -0.256  -7.619   2.651  0.00  0.00    -0.077 C 
ATOM     11  C   UNL     1      -1.179  -8.600   3.375  0.00  0.00    -0.006 C 
ATOM     12  C   UNL     1      -1.238  -8.235   4.861  0.00  0.00    +0.071 C 
ATOM     13  C   UNL     1       0.181  -8.243   5.435  0.00  0.00    -0.006 C 
ATOM     14  C   UNL     1       1.055  -7.275   4.634  0.00  0.00    -0.077 C 
ATOM     15  H   UNL     1       1.429  -8.642   3.169  0.00  0.00    -0.080 HD
BRANCH  12  16
ATOM     16  C   UNL     1      -2.084  -9.244   5.595  0.00  0.00    +0.213 C 
ATOM     17  O   UNL     1      -2.591 -10.165   4.990  0.00  0.00    -0.276 OA
ATOM     18  N   UNL     1      -2.277  -9.123   6.923  0.00  0.00    -0.329 N 
ATOM     19  H   UNL     1      -1.872  -8.386   7.407  0.00  0.00    +0.145 HD
ATOM     20  H   UNL     1      -2.822  -9.772   7.395  0.00  0.00    +0.145 HD
ENDBRANCH  12  16
ENDBRANCH   1   9
BRANCH   1  22
ATOM     21  N   UNL     1       1.958  -6.432  -0.044  0.00  0.00    -0.209 N 
ATOM     22  C   UNL     1       2.032  -7.235   1.034  0.00  0.00    +0.144 A 
ATOM     23  N   UNL     1       2.146  -8.460   0.584  0.00  0.00    -0.115 NA
ATOM     24  N   UNL     1       2.142  -8.413  -0.704  0.00  0.00    -0.023 NA
ATOM     25  N   UNL     1       2.022  -7.190  -1.086  0.00  0.00    -0.042 NA
BRANCH  21  26
ATOM     26  C   UNL     1       1.822  -4.974  -0.035  0.00  0.00    +0.318 C 
BRANCH  26  27
ATOM     27  S   UNL     1       0.063  -4.530  -0.023  0.00  0.00    +0.017 S 
ATOM     28  O   UNL     1      -0.528  -4.907   1.213  0.00  0.00    -0.168 OA
ATOM     29  O   UNL     1      -0.542  -4.894  -1.256  0.00  0.00    -0.168 OA
BRANCH  27  34
ATOM     30  C   UNL     1      -0.018   1.503   0.010  0.00  0.00    +0.044 C 
ATOM     31  C   UNL     1       0.002  -0.004   0.002  0.00  0.00    -0.050 A 
ATOM     32  C   UNL     1       0.006  -0.689  -1.199  0.00  0.00    +0.005 A 
ATOM     33  C   UNL     1       0.025  -2.071  -1.206  0.00  0.00    +0.027 A 
ATOM     34  C   UNL     1       0.040  -2.768  -0.013  0.00  0.00    +0.090 A 
ATOM     35  C   UNL     1       0.037  -2.084   1.188  0.00  0.00    +0.027 A 
ATOM     36  C   UNL     1       0.023  -0.702   1.195  0.00  0.00    +0.005 A 
ENDBRANCH  27  34
ENDBRANCH  26  27
ENDBRANCH  21  26
ENDBRANCH   1  22
TORSDOF 7
