REMARK  Name = ZINC21502178
REMARK  5 active torsions:
REMARK  status: ('A' for Active; 'I' for Inactive)
REMARK    1  A    between atoms: C_1  and  C_2
REMARK    2  A    between atoms: C_4  and  C_11
REMARK    3  A    between atoms: C_6  and  N_8
REMARK    4  A    between atoms: C_11  and  C_13
REMARK    5  A    between atoms: C_11  and  N_21
REMARK                            x       y       z     vdW  Elec       q    Type
REMARK                         _______ _______ _______ _____ _____    ______ ____
ROOT
ATOM      1  C   UNL     1       3.715  -0.704  -0.038  0.00  0.00    +0.113 C 
ENDROOT
BRANCH   1   2
ATOM      2  C   UNL     1       2.398   0.030  -0.021  0.00  0.00    -0.007 A 
ATOM      3  C   UNL     1       2.378   1.412  -0.013  0.00  0.00    +0.007 A 
ATOM      4  C   UNL     1       1.171   2.086   0.002  0.00  0.00    +0.002 A 
ATOM      5  C   UNL     1      -0.017   1.379   0.010  0.00  0.00    +0.021 A 
ATOM      6  C   UNL     1       0.002  -0.004   0.002  0.00  0.00    +0.060 A 
ATOM      7  C   UNL     1       1.211  -0.679  -0.013  0.00  0.00    +0.064 A 
ATOM      8 CL   UNL     1       1.236  -2.415  -0.022  0.00  0.00    -0.082 Cl
ATOM      9 CL   UNL     1      -1.489  -0.893   0.011  0.00  0.00    -0.082 Cl
ENDBRANCH   1   2
BRANCH   1  13
ATOM     10  C   UNL     1       3.936  -4.030  -3.770  0.00  0.00    +0.044 C 
ATOM     11  C   UNL     1       4.185  -2.640  -3.245  0.00  0.00    -0.048 A 
ATOM     12  C   UNL     1       3.850  -2.323  -1.941  0.00  0.00    +0.009 A 
ATOM     13  C   UNL     1       4.079  -1.049  -1.459  0.00  0.00    -0.024 A 
ATOM     14  C   UNL     1       4.637  -0.088  -2.282  0.00  0.00    +0.038 A 
ATOM     15  C   UNL     1       4.976  -0.405  -3.583  0.00  0.00    +0.127 A 
ATOM     16  C   UNL     1       4.748  -1.681  -4.066  0.00  0.00    +0.036 A 
BRANCH  15  17
ATOM     17  N   UNL     1       5.579   0.621  -4.463  0.00  0.00    +0.056 N 
ATOM     18  O   UNL     1       5.875   0.342  -5.611  0.00  0.00    -0.126 OA
ATOM     19  O   UNL     1       5.780   1.745  -4.038  0.00  0.00    -0.126 OA
ENDBRANCH  15  17
ENDBRANCH   1  13
BRANCH   1  20
ATOM     20  N   UNL     1       4.759   0.151   0.542  0.00  0.00    -0.320 NA
ATOM     21  H   UNL     1       4.493   0.402   1.580  0.00  0.00    +0.119 HD
ATOM     22  H   UNL     1       5.720  -0.385   0.530  0.00  0.00    +0.119 HD
ENDBRANCH   1  20
TORSDOF 4
