REMARK  Name = ZINC15970275
REMARK  11 active torsions:
REMARK  status: ('A' for Active; 'I' for Inactive)
REMARK    1  A    between atoms: C_1  and  C_2
REMARK    2  A    between atoms: C_2  and  C_4
REMARK    3  A    between atoms: C_2  and  N_14
REMARK    4  A    between atoms: N_6  and  C_7
REMARK    5  A    between atoms: C_7  and  C_8
REMARK    6  A    between atoms: C_8  and  C_9
REMARK    7  A    between atoms: C_9  and  O_10
REMARK    8  A    between atoms: O_10  and  C_11
REMARK    9  A    between atoms: C_11  and  C_12
REMARK   10  A    between atoms: C_11  and  C_13
REMARK   11  A    between atoms: C_15  and  C_17
REMARK                            x       y       z     vdW  Elec       q    Type
REMARK                         _______ _______ _______ _____ _____    ______ ____
ROOT
ATOM      1  C   UNL     1       2.736  -1.073  -2.455  0.00  0.00    +0.167 C 
ATOM      2  C   UNL     1       2.353  -0.190  -3.651  0.00  0.00    +0.069 C 
ATOM      3  C   UNL     1       3.383  -0.316  -4.744  0.00  0.00    -0.015 A 
ATOM      4  C   UNL     1       3.245   0.085  -6.133  0.00  0.00    +0.003 A 
ATOM      5  C   UNL     1       2.190   0.660  -6.848  0.00  0.00    +0.010 A 
ATOM      6  C   UNL     1       2.410   0.913  -8.179  0.00  0.00    +0.001 A 
ATOM      7  C   UNL     1       3.615   0.619  -8.796  0.00  0.00    +0.002 A 
ATOM      8  C   UNL     1       4.675   0.049  -8.111  0.00  0.00    +0.026 A 
ATOM      9  C   UNL     1       4.480  -0.221  -6.758  0.00  0.00    +0.047 A 
ATOM     10  N   UNL     1       5.291  -0.769  -5.808  0.00  0.00    -0.356 N 
ATOM     11  H   UNL     1       6.201  -1.070  -5.957  0.00  0.00    +0.166 HD
ATOM     12  C   UNL     1       4.627  -0.831  -4.613  0.00  0.00    +0.046 A 
ATOM     13  C   UNL     1       5.149  -1.399  -3.316  0.00  0.00    +0.155 C 
ATOM     14  N   UNL     1       4.188  -0.977  -2.270  0.00  0.00    -0.273 N 
ATOM     15  C   UNL     1       4.879  -0.494  -1.229  0.00  0.00    +0.248 C 
ATOM     16  O   UNL     1       4.422  -0.274  -0.125  0.00  0.00    -0.270 OA
ATOM     17  C   UNL     1       6.273  -0.271  -1.627  0.00  0.00    +0.042 A 
ATOM     18  C   UNL     1       6.470  -0.827  -2.931  0.00  0.00    -0.009 A 
ATOM     19  C   UNL     1       7.680  -0.774  -3.585  0.00  0.00    +0.006 A 
ATOM     20  C   UNL     1       8.737  -0.165  -2.915  0.00  0.00    +0.000 A 
ATOM     21  C   UNL     1       8.587   0.363  -1.648  0.00  0.00    +0.001 A 
ATOM     22  C   UNL     1       7.331   0.337  -0.947  0.00  0.00    +0.013 A 
ENDROOT
BRANCH   1  24
ATOM     23  N   UNL     1       1.048  -1.327  -0.665  0.00  0.00    -0.303 N 
ATOM     24  C   UNL     1       2.031  -0.587  -1.215  0.00  0.00    +0.235 C 
ATOM     25  O   UNL     1       2.348   0.470  -0.712  0.00  0.00    -0.274 OA
ATOM     26  H   UNL     1       0.795  -2.173  -1.067  0.00  0.00    +0.149 HD
BRANCH  23  28
ATOM     27  C   UNL     1      -0.773   0.091   0.144  0.00  0.00    +0.038 C 
ATOM     28  C   UNL     1       0.362  -0.855   0.540  0.00  0.00    +0.156 C 
BRANCH  28  29
ATOM     29  C   UNL     1      -0.204  -2.033   1.290  0.00  0.00    +0.233 C 
ATOM     30  O   UNL     1      -0.051  -3.156   0.860  0.00  0.00    -0.274 OA
ATOM     31  N   UNL     1      -0.882  -1.838   2.439  0.00  0.00    -0.314 N 
ATOM     32  H   UNL     1      -1.005  -0.939   2.783  0.00  0.00    +0.149 HD
BRANCH  31  33
ATOM     33  C   UNL     1      -1.433  -2.983   3.168  0.00  0.00    +0.106 C 
BRANCH  33  34
ATOM     34  C   UNL     1      -2.150  -2.489   4.426  0.00  0.00    +0.047 C 
BRANCH  34  35
ATOM     35  C   UNL     1      -2.725  -3.685   5.188  0.00  0.00    +0.161 C 
BRANCH  35  36
ATOM     36  O   UNL     1      -3.394  -3.224   6.363  0.00  0.00    -0.377 OA
BRANCH  36  37
ATOM     37  C   UNL     1      -3.971  -4.268   7.151  0.00  0.00    +0.112 C 
ATOM     38  C   UNL     1      -2.947  -4.758   8.177  0.00  0.00    +0.037 C 
ATOM     39  C   UNL     1      -5.207  -3.735   7.878  0.00  0.00    +0.037 C 
ENDBRANCH  36  37
ENDBRANCH  35  36
ENDBRANCH  34  35
ENDBRANCH  33  34
ENDBRANCH  31  33
ENDBRANCH  28  29
ENDBRANCH  23  28
ENDBRANCH   1  24
TORSDOF 8
