REMARK  Name = ZINC16537185
REMARK  10 active torsions:
REMARK  status: ('A' for Active; 'I' for Inactive)
REMARK    1  A    between atoms: C_1  and  C_2
REMARK    2  A    between atoms: C_2  and  C_4
REMARK    3  A    between atoms: C_2  and  O_13
REMARK    4  A    between atoms: C_4  and  C_6
REMARK    5  A    between atoms: O_13  and  C_14
REMARK    6  A    between atoms: C_14  and  C_16
REMARK    7  A    between atoms: C_16  and  C_17
REMARK    8  A    between atoms: C_17  and  N_18
REMARK    9  A    between atoms: C_22  and  S_28
REMARK   10  A    between atoms: S_28  and  N_31
REMARK                            x       y       z     vdW  Elec       q    Type
REMARK                         _______ _______ _______ _____ _____    ______ ____
ROOT
ATOM      1  N   UNL     1      -3.200   2.759   4.786  0.00  0.00    -0.274 N 
ATOM      2  C   UNL     1      -2.349   2.668   3.685  0.00  0.00    +0.090 A 
ATOM      3  C   UNL     1      -1.427   3.535   3.119  0.00  0.00    +0.031 A 
ATOM      4  C   UNL     1      -0.714   3.147   2.002  0.00  0.00    +0.031 A 
ATOM      5  C   UNL     1      -0.927   1.900   1.439  0.00  0.00    +0.109 A 
ATOM      6  C   UNL     1      -1.844   1.031   1.997  0.00  0.00    +0.077 A 
ATOM      7  C   UNL     1      -2.560   1.410   3.122  0.00  0.00    +0.159 A 
ATOM      8  O   UNL     1      -3.503   0.787   3.870  0.00  0.00    -0.407 OA
ATOM      9  C   UNL     1      -3.883   1.601   4.868  0.00  0.00    +0.421 A 
ATOM     10  O   UNL     1      -4.715   1.334   5.713  0.00  0.00    -0.223 OA
ENDROOT
BRANCH   5  11
ATOM     11  S   UNL     1      -0.017   1.417   0.010  0.00  0.00    +0.061 S 
ATOM     12  O   UNL     1       0.002  -0.004   0.002  0.00  0.00    -0.153 OA
ATOM     13  O   UNL     1       1.172   2.195   0.003  0.00  0.00    -0.153 OA
BRANCH  11  14
ATOM     14  N   UNL     1      -0.897   1.885  -1.312  0.00  0.00    -0.177 NA
ATOM     15  C   UNL     1      -1.909   1.071  -2.000  0.00  0.00    +0.109 C 
ATOM     16  C   UNL     1      -2.444   1.906  -3.183  0.00  0.00    +0.018 C 
ATOM     17  C   UNL     1      -1.295   2.918  -3.438  0.00  0.00    +0.018 C 
ATOM     18  C   UNL     1      -0.792   3.186  -1.998  0.00  0.00    +0.109 C 
ENDBRANCH  11  14
ENDBRANCH   5  11
BRANCH   1  19
ATOM     19  C   UNL     1      -3.327   3.906   5.690  0.00  0.00    +0.140 C 
BRANCH  19  20
ATOM     20  C   UNL     1      -2.338   3.754   6.848  0.00  0.00    +0.142 C 
BRANCH  20  21
ATOM     21  C   UNL     1      -2.469   4.933   7.777  0.00  0.00    +0.309 C 
ATOM     22  O   UNL     1      -3.271   5.805   7.538  0.00  0.00    -0.251 OA
BRANCH  21  23
ATOM     23  O   UNL     1      -1.696   5.015   8.871  0.00  0.00    -0.454 OA
BRANCH  23  25
ATOM     24  C   UNL     1      -2.939   5.877  10.780  0.00  0.00    +0.061 C 
ATOM     25  C   UNL     1      -1.876   6.178   9.721  0.00  0.00    +0.244 C 
BRANCH  25  26
ATOM     26  C   UNL     1      -0.572   6.512  10.399  0.00  0.00    +0.203 C 
ATOM     27  O   UNL     1       0.330   5.702  10.411  0.00  0.00    -0.288 OA
BRANCH  26  28
ATOM     28  C   UNL     1      -0.394   7.820  11.046  0.00  0.00    +0.021 A 
ATOM     29  C   UNL     1      -1.430   8.760  11.028  0.00  0.00    +0.014 A 
ATOM     30  C   UNL     1      -1.259   9.982  11.641  0.00  0.00    +0.039 A 
ATOM     31  C   UNL     1      -0.057  10.286  12.264  0.00  0.00    +0.123 A 
ATOM     32  C   UNL     1       0.977   9.361  12.280  0.00  0.00    +0.039 A 
ATOM     33  C   UNL     1       0.816   8.133  11.676  0.00  0.00    +0.014 A 
ATOM     34  F   UNL     1       0.107  11.488  12.859  0.00  0.00    -0.205 F 
ENDBRANCH  26  28
ENDBRANCH  25  26
ENDBRANCH  23  25
ENDBRANCH  21  23
ENDBRANCH  20  21
ENDBRANCH  19  20
ENDBRANCH   1  19
TORSDOF 9
