REMARK  Name = ZINC62610018
REMARK  3 active torsions:
REMARK  status: ('A' for Active; 'I' for Inactive)
REMARK    1  A    between atoms: C_3  and  C_9
REMARK    2  A    between atoms: C_10  and  C_15
REMARK    3  A    between atoms: C_13  and  N_14
REMARK                            x       y       z     vdW  Elec       q    Type
REMARK                         _______ _______ _______ _____ _____    ______ ____
ROOT
ATOM      1  C   UNL     1       3.659   2.168  -0.022  0.00  0.00    +0.068 A 
ATOM      2  C   UNL     1       4.363   2.604  -1.164  0.00  0.00    +0.097 A 
ATOM      3  N   UNL     1       5.433   3.233  -0.768  0.00  0.00    -0.080 NA
ATOM      4  O   UNL     1       5.463   3.228   0.647  0.00  0.00    -0.339 OA
ATOM      5  C   UNL     1       4.372   2.580   1.087  0.00  0.00    +0.223 A 
ENDROOT
BRANCH   1   8
ATOM      6  C   UNL     1      -0.017   1.381   0.010  0.00  0.00    +0.039 A 
ATOM      7  C   UNL     1       1.168   2.090   0.002  0.00  0.00    +0.013 A 
ATOM      8  C   UNL     1       2.384   1.410  -0.013  0.00  0.00    +0.007 A 
ATOM      9  C   UNL     1       2.399   0.015  -0.021  0.00  0.00    +0.052 A 
ATOM     10  C   UNL     1       1.209  -0.685  -0.013  0.00  0.00    +0.059 A 
ATOM     11  C   UNL     1       0.002  -0.004   0.002  0.00  0.00    +0.125 A 
ATOM     12  F   UNL     1      -1.160  -0.693   0.009  0.00  0.00    -0.205 F 
ATOM     13 CL   UNL     1       3.910  -0.839  -0.040  0.00  0.00    -0.083 Cl
ENDBRANCH   1   8
BRANCH   2  14
ATOM     14  C   UNL     1       3.949   2.382  -2.596  0.00  0.00    +0.045 C 
ATOM     15  C   UNL     1       5.064   1.644  -3.371  0.00  0.00    +0.013 C 
ATOM     16  C   UNL     1       5.475   2.632  -4.506  0.00  0.00    -0.010 C 
ATOM     17  C   UNL     1       4.266   2.622  -5.489  0.00  0.00    +0.004 C 
ATOM     18  C   UNL     1       3.136   3.351  -4.727  0.00  0.00    +0.004 C 
ATOM     19  C   UNL     1       3.788   3.746  -3.334  0.00  0.00    -0.002 C 
ATOM     20  C   UNL     1       5.273   4.008  -3.779  0.00  0.00    +0.007 C 
ENDBRANCH   2  14
BRANCH   5  21
ATOM     21  N   UNL     1       4.029   2.362   2.405  0.00  0.00    -0.327 N 
ATOM     22  H   UNL     1       3.217   1.878   2.622  0.00  0.00    +0.145 HD
ATOM     23  H   UNL     1       4.599   2.694   3.116  0.00  0.00    +0.145 HD
ENDBRANCH   5  21
TORSDOF 3
