REMARK  Name = ZINC36598093
REMARK  16 active torsions:
REMARK  status: ('A' for Active; 'I' for Inactive)
REMARK    1  A    between atoms: C_1  and  C_2
REMARK    2  A    between atoms: C_2  and  C_3
REMARK    3  A    between atoms: C_3  and  C_4
REMARK    4  A    between atoms: C_4  and  N_5
REMARK    5  A    between atoms: C_6  and  C_8
REMARK    6  A    between atoms: C_8  and  C_10
REMARK    7  A    between atoms: C_8  and  N_19
REMARK    8  A    between atoms: C_13  and  N_16
REMARK    9  A    between atoms: N_19  and  C_20
REMARK   10  A    between atoms: C_20  and  C_21
REMARK   11  A    between atoms: C_24  and  C_26
REMARK   12  A    between atoms: C_27  and  C_29
REMARK   13  A    between atoms: C_29  and  C_30
REMARK   14  A    between atoms: C_30  and  C_31
REMARK   15  A    between atoms: C_34  and  O_37
REMARK   16  A    between atoms: O_37  and  C_38
REMARK                            x       y       z     vdW  Elec       q    Type
REMARK                         _______ _______ _______ _____ _____    ______ ____
ROOT
ATOM      1  N   UNL     1      -4.332  -5.590  -0.153  0.00  0.00    -0.279 N 
ATOM      2  C   UNL     1      -5.092  -6.177  -1.099  0.00  0.00    +0.217 C 
ATOM      3  O   UNL     1      -5.485  -5.531  -2.047  0.00  0.00    -0.276 OA
ENDROOT
BRANCH   1   4
ATOM      4  C   UNL     1      -3.982  -4.172  -0.270  0.00  0.00    +0.193 C 
BRANCH   4   5
ATOM      5  C   UNL     1      -5.238  -3.356  -0.432  0.00  0.00    -0.018 A 
ATOM      6  C   UNL     1      -6.348  -3.635   0.343  0.00  0.00    +0.008 A 
ATOM      7  C   UNL     1      -7.501  -2.886   0.194  0.00  0.00    +0.033 A 
ATOM      8  C   UNL     1      -7.543  -1.858  -0.729  0.00  0.00    +0.126 A 
ATOM      9  C   UNL     1      -6.433  -1.578  -1.503  0.00  0.00    +0.033 A 
ATOM     10  C   UNL     1      -5.279  -2.324  -1.352  0.00  0.00    +0.008 A 
BRANCH   8  11
ATOM     11  N   UNL     1      -8.777  -1.057  -0.889  0.00  0.00    +0.056 N 
ATOM     12  O   UNL     1      -9.749  -1.302  -0.212  0.00  0.00    -0.126 OA
ATOM     13  O   UNL     1      -8.814  -0.158  -1.696  0.00  0.00    -0.126 OA
ENDBRANCH   8  11
ENDBRANCH   4   5
BRANCH   4  15
ATOM     14  N   UNL     1      -2.091  -3.055   0.867  0.00  0.00    -0.313 N 
ATOM     15  C   UNL     1      -3.252  -3.730   0.972  0.00  0.00    +0.238 C 
ATOM     16  O   UNL     1      -3.711  -3.982   2.066  0.00  0.00    -0.273 OA
ATOM     17  H   UNL     1      -1.724  -2.854  -0.008  0.00  0.00    +0.149 HD
BRANCH  14  18
ATOM     18  C   UNL     1      -1.381  -2.626   2.075  0.00  0.00    +0.104 C 
BRANCH  18  19
ATOM     19  C   UNL     1      -0.102  -1.886   1.679  0.00  0.00    +0.018 C 
BRANCH  19  21
ATOM     20  C   UNL     1       1.919  -0.698   2.545  0.00  0.00    +0.004 C 
ATOM     21  C   UNL     1       0.639  -1.437   2.941  0.00  0.00    -0.002 C 
ENDBRANCH  19  21
ENDBRANCH  18  19
ENDBRANCH  14  18
ENDBRANCH   4  15
ENDBRANCH   1   4
BRANCH   1  22
ATOM     22  C   UNL     1      -3.857  -6.369   0.993  0.00  0.00    +0.183 C 
BRANCH  22  23
ATOM     23  C   UNL     1      -4.953  -6.467   2.023  0.00  0.00    +0.122 A 
ATOM     24  C   UNL     1      -5.795  -7.504   2.178  0.00  0.00    +0.046 A 
ATOM     25  C   UNL     1      -6.654  -7.177   3.253  0.00  0.00    +0.045 A 
ATOM     26  C   UNL     1      -6.285  -5.960   3.690  0.00  0.00    +0.102 A 
ATOM     27  O   UNL     1      -5.250  -5.537   2.945  0.00  0.00    -0.463 OA
ATOM     28  C   UNL     1      -6.920  -5.201   4.826  0.00  0.00    +0.086 C 
ENDBRANCH  22  23
ENDBRANCH   1  22
BRANCH   2  29
ATOM     29  C   UNL     1      -5.452  -7.635  -0.978  0.00  0.00    +0.100 C 
BRANCH  29  30
ATOM     30  C   UNL     1      -6.314  -8.048  -2.173  0.00  0.00    +0.044 C 
BRANCH  30  31
ATOM     31  C   UNL     1      -6.674  -9.506  -2.052  0.00  0.00    -0.047 A 
ATOM     32  C   UNL     1      -5.848 -10.469  -2.602  0.00  0.00    +0.007 A 
ATOM     33  C   UNL     1      -6.177 -11.807  -2.493  0.00  0.00    +0.046 A 
ATOM     34  C   UNL     1      -7.336 -12.183  -1.830  0.00  0.00    +0.120 A 
ATOM     35  C   UNL     1      -8.163 -11.215  -1.279  0.00  0.00    +0.046 A 
ATOM     36  C   UNL     1      -7.827  -9.879  -1.386  0.00  0.00    +0.007 A 
BRANCH  34  37
ATOM     37  O   UNL     1      -7.662 -13.498  -1.722  0.00  0.00    -0.495 OA
ATOM     38  C   UNL     1      -8.870 -13.812  -1.026  0.00  0.00    +0.277 C 
ENDBRANCH  34  37
ENDBRANCH  30  31
ENDBRANCH  29  30
ENDBRANCH   2  29
TORSDOF 13
