REMARK  Name = ZINC15015766
REMARK  8 active torsions:
REMARK  status: ('A' for Active; 'I' for Inactive)
REMARK    1  A    between atoms: C_1  and  C_2
REMARK    2  A    between atoms: C_2  and  C_3
REMARK    3  A    between atoms: C_3  and  C_4
REMARK    4  A    between atoms: C_4  and  S_5
REMARK    5  A    between atoms: S_5  and  C_6
REMARK    6  A    between atoms: C_19  and  C_22
REMARK    7  A    between atoms: C_23  and  C_24
REMARK    8  A    between atoms: C_27  and  N_29
REMARK                            x       y       z     vdW  Elec       q    Type
REMARK                         _______ _______ _______ _____ _____    ______ ____
ROOT
ATOM      1  C   UNL     1       2.267   1.377  -0.013  0.00  0.00    +0.212 A 
ATOM      2  N   UNL     1       2.355   0.049  -0.019  0.00  0.00    -0.184 NA
ATOM      3  C   UNL     1       1.248  -0.672  -0.008  0.00  0.00    +0.248 A 
ATOM      4  C   UNL     1       0.002  -0.004   0.002  0.00  0.00    +0.156 A 
ATOM      5  N   UNL     1      -0.016   1.320   0.009  0.00  0.00    -0.141 NA
ATOM      6  N   UNL     1       1.088   1.984   0.002  0.00  0.00    -0.122 NA
ATOM      7  C   UNL     1      -1.248  -0.791   0.002  0.00  0.00    +0.029 A 
ATOM      8  C   UNL     1      -2.285  -0.511   0.884  0.00  0.00    +0.027 A 
ATOM      9  C   UNL     1      -3.444  -1.263   0.842  0.00  0.00    +0.019 A 
ATOM     10  C   UNL     1      -3.579  -2.292  -0.075  0.00  0.00    +0.017 A 
ATOM     11  C   UNL     1      -2.553  -2.585  -0.955  0.00  0.00    +0.025 A 
ATOM     12  C   UNL     1      -1.385  -1.846  -0.920  0.00  0.00    +0.040 A 
ATOM     13  N   UNL     1      -0.313  -2.137  -1.771  0.00  0.00    -0.306 N 
ATOM     14  C   UNL     1       0.908  -2.697  -1.199  0.00  0.00    +0.287 C 
ATOM     15  O   UNL     1       1.286  -2.026  -0.002  0.00  0.00    -0.449 OA
ATOM     16 BR   UNL     1      -4.854  -0.883   2.043  0.00  0.00    -0.050 Br
ATOM     17  H   UNL     1      -0.380  -1.970  -2.724  0.00  0.00    +0.150 HD
ENDROOT
BRANCH  14  18
ATOM     18  C   UNL     1       0.683  -4.155  -0.894  0.00  0.00    +0.041 C 
ATOM     19  C   UNL     1       1.442  -5.080  -1.474  0.00  0.00    +0.047 C 
BRANCH  19  20
ATOM     20  C   UNL     1       1.223  -6.504  -1.177  0.00  0.00    +0.131 A 
ATOM     21  C   UNL     1       1.921  -7.548  -1.704  0.00  0.00    +0.051 A 
ATOM     22  C   UNL     1       1.381  -8.721  -1.143  0.00  0.00    +0.076 A 
ATOM     23  C   UNL     1       0.386  -8.343  -0.316  0.00  0.00    +0.280 A 
ATOM     24  O   UNL     1       0.293  -7.003  -0.339  0.00  0.00    -0.435 OA
BRANCH  23  25
ATOM     25  N   UNL     1      -0.464  -9.253   0.484  0.00  0.00    +0.093 N 
ATOM     26  O   UNL     1      -0.289 -10.457   0.427  0.00  0.00    -0.123 OA
ATOM     27  O   UNL     1      -1.337  -8.798   1.200  0.00  0.00    -0.123 OA
ENDBRANCH  23  25
ENDBRANCH  19  20
ENDBRANCH  14  18
BRANCH   1  28
ATOM     28  S   UNL     1       3.741   2.343  -0.027  0.00  0.00    -0.084 S 
BRANCH  28  29
ATOM     29  C   UNL     1       3.026   4.006  -0.013  0.00  0.00    +0.077 C 
BRANCH  29  30
ATOM     30  C   UNL     1       4.149   5.044  -0.023  0.00  0.00    +0.011 C 
BRANCH  30  32
ATOM     31  C   UNL     1       4.669   7.488  -0.021  0.00  0.00    +0.004 C 
ATOM     32  C   UNL     1       3.545   6.450  -0.011  0.00  0.00    -0.003 C 
ENDBRANCH  30  32
ENDBRANCH  29  30
ENDBRANCH  28  29
ENDBRANCH   1  28
TORSDOF 7
