REMARK  Name = ZINC40590797
REMARK  6 active torsions:
REMARK  status: ('A' for Active; 'I' for Inactive)
REMARK    1  A    between atoms: C_1  and  C_2
REMARK    2  A    between atoms: C_2  and  C_3
REMARK    3  A    between atoms: C_3  and  C_4
REMARK    4  A    between atoms: C_4  and  CA_5
REMARK    5  A    between atoms: CA_5  and  C_7
REMARK    6  A    between atoms: CA_5  and  N_10
REMARK                            x       y       z     vdW  Elec       q    Type
REMARK                         _______ _______ _______ _____ _____    ______ ____
ROOT
ATOM      1  N   UNL     1       2.860  -2.110  -2.477  0.00  0.00    -0.286 N 
ATOM      2  C   UNL     1       3.561  -1.972  -3.620  0.00  0.00    +0.303 C 
ATOM      3  O   UNL     1       3.054  -2.271  -4.684  0.00  0.00    -0.253 OA
ATOM      4  N   UNL     1       4.823  -1.501  -3.584  0.00  0.00    -0.285 N 
ATOM      5  C   UNL     1       5.492  -1.248  -2.300  0.00  0.00    +0.109 C 
ATOM      6  C   UNL     1       6.827  -2.001  -2.285  0.00  0.00    +0.023 C 
ATOM      7  C   UNL     1       7.651  -1.598  -3.510  0.00  0.00    -0.005 C 
ATOM      8  C   UNL     1       8.995  -2.328  -3.475  0.00  0.00    +0.004 C 
ATOM      9  C   UNL     1       9.824  -1.936  -4.699  0.00  0.00    +0.000 C 
ATOM     10  C   UNL     1       9.068  -2.326  -5.971  0.00  0.00    +0.000 C 
ATOM     11  C   UNL     1       7.726  -1.593  -6.009  0.00  0.00    +0.005 C 
ATOM     12  C   UNL     1       6.893  -1.979  -4.785  0.00  0.00    +0.010 C 
ATOM     13  C   UNL     1       5.561  -1.237  -4.826  0.00  0.00    +0.113 C 
ATOM     14  H   UNL     1       3.287  -1.940  -1.623  0.00  0.00    +0.151 HD
ENDROOT
BRANCH   1  15
ATOM     15  CA  UNL     1       1.454  -2.517  -2.525  0.00  0.00    +0.187 C 
BRANCH  15  16
ATOM     16  C   UNL     1       1.367  -4.020  -2.590  0.00  0.00    +0.376 C 
ATOM     17  O   UNL     1       0.299  -4.560  -2.819  0.00  0.00    -0.244 OA
ATOM     18  OXT UNL     1       2.367  -4.696  -2.413  0.00  0.00    -0.244 OA
ENDBRANCH  15  16
BRANCH  15  19
ATOM     19  C   UNL     1       0.736  -2.019  -1.269  0.00  0.00    +0.034 C 
BRANCH  19  20
ATOM     20  C   UNL     1       0.714  -0.489  -1.267  0.00  0.00    +0.002 C 
BRANCH  20  22
ATOM     21  C   UNL     1      -0.025   1.539  -0.009  0.00  0.00    +0.004 C 
ATOM     22  C   UNL     1      -0.004   0.010  -0.011  0.00  0.00    -0.003 C 
ENDBRANCH  20  22
ENDBRANCH  19  20
ENDBRANCH  15  19
ENDBRANCH   1  15
TORSDOF 5
