REMARK  Name = ZINC15358764
REMARK  8 active torsions:
REMARK  status: ('A' for Active; 'I' for Inactive)
REMARK    1  A    between atoms: C_1  and  C_2
REMARK    2  A    between atoms: C_5  and  N_11
REMARK    3  A    between atoms: C_6  and  N_8
REMARK    4  A    between atoms: C_12  and  C_14
REMARK    5  A    between atoms: C_14  and  N_15
REMARK    6  A    between atoms: N_15  and  C_16
REMARK    7  A    between atoms: C_16  and  C_18
REMARK    8  A    between atoms: C_16  and  C_25
REMARK                            x       y       z     vdW  Elec       q    Type
REMARK                         _______ _______ _______ _____ _____    ______ ____
ROOT
ATOM      1  C   UNL     1      -0.207  -6.114  -1.284  0.00  0.00    +0.178 C 
ENDROOT
BRANCH   1   3
ATOM      2  N   UNL     1       0.038  -3.996  -0.029  0.00  0.00    -0.283 N 
ATOM      3  C   UNL     1      -0.101  -4.612  -1.220  0.00  0.00    +0.231 C 
ATOM      4  O   UNL     1      -0.140  -3.957  -2.240  0.00  0.00    -0.274 OA
ATOM      5  H   UNL     1       0.151  -4.522   0.779  0.00  0.00    +0.155 HD
BRANCH   2  10
ATOM      6  C   UNL     1      -0.037   1.669   0.263  0.00  0.00    +0.044 C 
ATOM      7  C   UNL     1      -0.018   0.164   0.186  0.00  0.00    -0.048 A 
ATOM      8  C   UNL     1      -0.652  -0.482  -0.860  0.00  0.00    +0.005 A 
ATOM      9  C   UNL     1      -0.635  -1.861  -0.934  0.00  0.00    +0.026 A 
ATOM     10  C   UNL     1       0.020  -2.599   0.043  0.00  0.00    +0.064 A 
ATOM     11  C   UNL     1       0.655  -1.948   1.092  0.00  0.00    +0.148 A 
ATOM     12  C   UNL     1       0.639  -0.568   1.157  0.00  0.00    +0.038 A 
BRANCH  11  13
ATOM     13  N   UNL     1       1.354  -2.731   2.135  0.00  0.00    +0.058 N 
ATOM     14  O   UNL     1       1.825  -2.171   3.098  0.00  0.00    -0.126 OA
ATOM     15  O   UNL     1       1.454  -3.931   2.025  0.00  0.00    -0.126 OA
ENDBRANCH  11  13
ENDBRANCH   2  10
ENDBRANCH   1   3
BRANCH   1  16
ATOM     16  N   UNL     1      -0.350  -6.535  -2.684  0.00  0.00    -0.297 NA
ATOM     17  H   UNL     1      -1.140  -6.084  -3.119  0.00  0.00    +0.123 HD
BRANCH  16  18
ATOM     18  C   UNL     1      -0.456  -7.997  -2.786  0.00  0.00    +0.122 C 
BRANCH  18  19
ATOM     19  C   UNL     1       0.006  -8.440  -4.149  0.00  0.00    -0.025 A 
ATOM     20  C   UNL     1      -0.325  -7.697  -5.267  0.00  0.00    +0.008 A 
ATOM     21  C   UNL     1       0.099  -8.103  -6.518  0.00  0.00    +0.038 A 
ATOM     22  C   UNL     1       0.856  -9.254  -6.652  0.00  0.00    +0.123 A 
ATOM     23  C   UNL     1       1.187  -9.998  -5.532  0.00  0.00    +0.038 A 
ATOM     24  C   UNL     1       0.766  -9.588  -4.282  0.00  0.00    +0.008 A 
ATOM     25  F   UNL     1       1.271  -9.652  -7.875  0.00  0.00    -0.205 F 
ENDBRANCH  18  19
BRANCH  18  26
ATOM     26  C   UNL     1      -1.891  -8.411  -2.582  0.00  0.00    +0.011 A 
ATOM     27  C   UNL     1      -2.385  -9.470  -1.895  0.00  0.00    +0.013 A 
ATOM     28  C   UNL     1      -3.753  -9.655  -1.841  0.00  0.00    +0.008 A 
ATOM     29  C   UNL     1      -4.561  -8.773  -2.478  0.00  0.00    +0.045 A 
ATOM     30  S   UNL     1      -3.382  -7.630  -3.178  0.00  0.00    -0.100 S 
ENDBRANCH  18  26
ENDBRANCH  16  18
ENDBRANCH   1  16
TORSDOF 7
