REMARK  Name = ZINC36156660
REMARK  13 active torsions:
REMARK  status: ('A' for Active; 'I' for Inactive)
REMARK    1  A    between atoms: C_1  and  C_2
REMARK    2  A    between atoms: C_2  and  C_3
REMARK    3  A    between atoms: C_2  and  C_4
REMARK    4  A    between atoms: C_2  and  O_5
REMARK    5  A    between atoms: O_5  and  C_6
REMARK    6  A    between atoms: C_6  and  C_7
REMARK    7  A    between atoms: C_7  and  C_9
REMARK    8  A    between atoms: C_7  and  O_34
REMARK    9  A    between atoms: C_9  and  N_10
REMARK   10  A    between atoms: N_10  and  C_11
REMARK   11  A    between atoms: N_10  and  C_18
REMARK   12  A    between atoms: C_11  and  C_12
REMARK   13  A    between atoms: C_18  and  C_19
REMARK                            x       y       z     vdW  Elec       q    Type
REMARK                         _______ _______ _______ _____ _____    ______ ____
ROOT
ATOM      1  N   UNL     1       4.335  -0.570  -3.818  0.00  0.00    +0.389 N 
ATOM      2  H   UNL     1       4.071  -1.541  -3.897  0.00  0.00    -0.081 HD
ENDROOT
BRANCH   1   3
ATOM      3  C   UNL     1       4.051  -0.096  -2.457  0.00  0.00    -0.044 C 
BRANCH   3   4
ATOM      4  C   UNL     1       2.582  -0.359  -2.121  0.00  0.00    +0.124 C 
BRANCH   4   5
ATOM      5  O   UNL     1       2.346  -1.768  -2.087  0.00  0.00    -0.391 OA
ATOM      6  H   UNL     1       2.877  -2.240  -1.432  0.00  0.00    +0.210 HD
ENDBRANCH   4   5
BRANCH   4   7
ATOM      7  C   UNL     1       2.255   0.246  -0.754  0.00  0.00    +0.189 C 
BRANCH   7   8
ATOM      8  O   UNL     1       0.858   0.102  -0.492  0.00  0.00    -0.372 OA
BRANCH   8  10
ATOM      9  C   UNL     1       0.762   2.134   0.814  0.00  0.00    +0.041 C 
ATOM     10  C   UNL     1       0.445   0.638   0.767  0.00  0.00    +0.061 C 
ATOM     11  C   UNL     1       1.191  -0.077   1.895  0.00  0.00    +0.041 C 
ATOM     12  C   UNL     1      -1.061   0.430   0.941  0.00  0.00    +0.041 C 
ENDBRANCH   8  10
ENDBRANCH   7   8
ENDBRANCH   4   7
ENDBRANCH   3   4
ENDBRANCH   1   3
BRANCH   1  13
ATOM     13  C   UNL     1       3.566   0.226  -4.784  0.00  0.00    -0.042 C 
BRANCH  13  14
ATOM     14  C   UNL     1       3.762  -0.337  -6.168  0.00  0.00    -0.064 A 
ATOM     15  C   UNL     1       4.722   0.201  -7.004  0.00  0.00    +0.002 A 
ATOM     16  C   UNL     1       4.902  -0.316  -8.274  0.00  0.00    +0.000 A 
ATOM     17  C   UNL     1       4.121  -1.371  -8.707  0.00  0.00    +0.000 A 
ATOM     18  C   UNL     1       3.162  -1.910  -7.870  0.00  0.00    +0.000 A 
ATOM     19  C   UNL     1       2.985  -1.396  -6.599  0.00  0.00    +0.002 A 
ENDBRANCH  13  14
ENDBRANCH   1  13
BRANCH   1  20
ATOM     20  C   UNL     1       5.770  -0.428  -4.097  0.00  0.00    -0.003 C 
BRANCH  20  21
ATOM     21  C   UNL     1       6.549  -1.373  -3.220  0.00  0.00    +0.094 A 
ATOM     22  N   UNL     1       7.905  -1.318  -3.219  0.00  0.00    -0.312 N 
ATOM     23  H   UNL     1       8.355  -0.669  -3.783  0.00  0.00    +0.170 HD
ATOM     24  C   UNL     1       8.640  -2.143  -2.450  0.00  0.00    +0.260 A 
ATOM     25  O   UNL     1       9.857  -2.080  -2.460  0.00  0.00    -0.267 OA
ATOM     26  C   UNL     1       7.966  -3.098  -1.620  0.00  0.00    +0.075 A 
ATOM     27  C   UNL     1       8.550  -4.086  -0.713  0.00  0.00    -0.023 A 
ATOM     28  C   UNL     1       7.693  -4.878  -0.035  0.00  0.00    -0.004 A 
ATOM     29  S   UNL     1       6.080  -4.360  -0.558  0.00  0.00    -0.073 S 
ATOM     30  C   UNL     1       6.564  -3.081  -1.688  0.00  0.00    +0.116 A 
ATOM     31  N   UNL     1       5.907  -2.229  -2.470  0.00  0.00    -0.229 NA
ATOM     32  C   UNL     1       8.036  -5.958   0.944  0.00  0.00    +0.043 C 
ATOM     33  C   UNL     1       9.527  -6.294   0.792  0.00  0.00    +0.005 C 
ATOM     34  C   UNL     1      10.324  -4.986   0.776  0.00  0.00    +0.005 C 
ATOM     35  C   UNL     1      10.058  -4.232  -0.528  0.00  0.00    +0.037 C 
ENDBRANCH  20  21
ENDBRANCH   1  20
TORSDOF 10
