REMARK  Name = ZINC40569317
REMARK  10 active torsions:
REMARK  status: ('A' for Active; 'I' for Inactive)
REMARK    1  A    between atoms: C_1  and  C_2
REMARK    2  A    between atoms: C_2  and  C_3
REMARK    3  A    between atoms: C_3  and  C_4
REMARK    4  A    between atoms: N_10  and  C_11
REMARK    5  A    between atoms: C_11  and  C_12
REMARK    6  A    between atoms: C_18  and  C_26
REMARK    7  A    between atoms: C_20  and  C_24
REMARK    8  A    between atoms: C_21  and  N_23
REMARK    9  A    between atoms: C_29  and  O_32
REMARK   10  A    between atoms: O_32  and  C_33
REMARK                            x       y       z     vdW  Elec       q    Type
REMARK                         _______ _______ _______ _____ _____    ______ ____
ROOT
ATOM      1  C   UNL     1       0.629  -2.251   1.325  0.00  0.00    +0.026 A 
ATOM      2  C   UNL     1       1.610  -3.101   0.951  0.00  0.00    +0.068 A 
ATOM      3  C   UNL     1       1.411  -4.493   1.062  0.00  0.00    +0.141 A 
ATOM      4  C   UNL     1       0.210  -4.958   1.553  0.00  0.00    +0.072 A 
ATOM      5  C   UNL     1      -0.779  -4.040   1.927  0.00  0.00    +0.259 A 
ATOM      6  O   UNL     1      -1.848  -4.438   2.364  0.00  0.00    -0.267 OA
ATOM      7  N   UNL     1      -0.550  -2.718   1.812  0.00  0.00    -0.309 N 
ATOM      8  C   UNL     1      -0.044  -6.435   1.690  0.00  0.00    +0.103 C 
ATOM      9  C   UNL     1       0.958  -7.210   0.880  0.00  0.00    +0.098 C 
ATOM     10  C   UNL     1       2.098  -6.631   0.434  0.00  0.00    +0.199 C 
ATOM     11  O   UNL     1       2.390  -5.344   0.690  0.00  0.00    -0.441 OA
ENDROOT
BRANCH   8  12
ATOM     12  C   UNL     1       0.076  -6.830   3.139  0.00  0.00    -0.034 A 
ATOM     13  C   UNL     1       1.265  -6.625   3.814  0.00  0.00    +0.008 A 
ATOM     14  C   UNL     1       1.377  -6.987   5.142  0.00  0.00    +0.046 A 
ATOM     15  C   UNL     1       0.296  -7.557   5.799  0.00  0.00    +0.120 A 
ATOM     16  C   UNL     1      -0.896  -7.761   5.120  0.00  0.00    +0.046 A 
ATOM     17  C   UNL     1      -1.005  -7.393   3.793  0.00  0.00    +0.008 A 
BRANCH  15  18
ATOM     18  O   UNL     1       0.405  -7.915   7.106  0.00  0.00    -0.495 OA
ATOM     19  C   UNL     1      -0.749  -8.495   7.717  0.00  0.00    +0.277 C 
ENDBRANCH  15  18
ENDBRANCH   8  12
BRANCH  10  20
ATOM     20  N   UNL     1       2.981  -7.381  -0.302  0.00  0.00    -0.328 N 
ATOM     21  H   UNL     1       2.785  -8.311  -0.495  0.00  0.00    +0.145 HD
ATOM     22  H   UNL     1       3.802  -6.981  -0.628  0.00  0.00    +0.145 HD
ENDBRANCH  10  20
BRANCH   9  23
ATOM     23  C   UNL     1       0.702  -8.585   0.575  0.00  0.00    +0.101 C 
ATOM     24  N   UNL     1       0.498  -9.676   0.333  0.00  0.00    -0.191 NA
ENDBRANCH   9  23
BRANCH   1  25
ATOM     25  C   UNL     1       0.847  -0.765   1.204  0.00  0.00    +0.053 C 
BRANCH  25  27
ATOM     26  C   UNL     1       0.491   1.234  -0.251  0.00  0.00    +0.004 C 
ATOM     27  C   UNL     1       0.361  -0.288  -0.166  0.00  0.00    +0.003 C 
ENDBRANCH  25  27
ENDBRANCH   1  25
BRANCH   7  28
ATOM     28  C   UNL     1      -1.592  -1.769   2.213  0.00  0.00    +0.156 C 
BRANCH  28  29
ATOM     29  C   UNL     1      -1.371  -1.355   3.669  0.00  0.00    +0.138 C 
ATOM     30  C   UNL     1      -2.497  -0.396   4.132  0.00  0.00    +0.035 C 
ATOM     31  C   UNL     1      -2.471  -0.630   5.667  0.00  0.00    +0.031 C 
ATOM     32  C   UNL     1      -2.103  -2.126   5.765  0.00  0.00    +0.160 C 
ATOM     33  O   UNL     1      -1.472  -2.499   4.533  0.00  0.00    -0.375 OA
ENDBRANCH  28  29
ENDBRANCH   7  28
TORSDOF 8
