REMARK  Name = ZINC41304546
REMARK  9 active torsions:
REMARK  status: ('A' for Active; 'I' for Inactive)
REMARK    1  A    between atoms: C_1  and  C_2
REMARK    2  A    between atoms: C_6  and  O_9
REMARK    3  A    between atoms: C_7  and  C_8
REMARK    4  A    between atoms: O_9  and  C_10
REMARK    5  A    between atoms: C_10  and  C_11
REMARK    6  A    between atoms: N_13  and  C_14
REMARK    7  A    between atoms: C_15  and  C_21
REMARK    8  A    between atoms: C_16  and  C_20
REMARK    9  A    between atoms: C_17  and  C_19
REMARK                            x       y       z     vdW  Elec       q    Type
REMARK                         _______ _______ _______ _____ _____    ______ ____
ROOT
ATOM      1  C   UNL     1       0.083  -4.787   3.662  0.00  0.00    +0.255 C 
ATOM      2  O   UNL     1       0.077  -4.055   4.629  0.00  0.00    -0.272 OA
ATOM      3  N   UNL     1       0.101  -6.125   3.830  0.00  0.00    -0.277 N 
ATOM      4  H   UNL     1       0.105  -6.710   3.056  0.00  0.00    +0.155 HD
ENDROOT
BRANCH   3   5
ATOM      5  C   UNL     1       0.114  -6.663   5.107  0.00  0.00    +0.084 A 
ATOM      6  C   UNL     1       0.139  -8.003   5.468  0.00  0.00    +0.068 A 
ATOM      7  C   UNL     1       0.148  -8.291   6.884  0.00  0.00    -0.027 A 
ATOM      8  C   UNL     1       0.131  -7.221   7.700  0.00  0.00    -0.008 A 
ATOM      9  S   UNL     1       0.111  -5.845   6.572  0.00  0.00    -0.078 S 
ATOM     10  C   UNL     1       0.134  -7.194   9.207  0.00  0.00    +0.052 C 
ATOM     11  C   UNL     1       0.174  -9.701   7.413  0.00  0.00    +0.045 C 
BRANCH   6  12
ATOM     12  C   UNL     1       0.155  -9.071   4.464  0.00  0.00    +0.244 C 
ATOM     13  O   UNL     1       1.216  -9.496   4.044  0.00  0.00    -0.270 OA
ATOM     14  N   UNL     1      -1.004  -9.583   4.005  0.00  0.00    -0.325 N 
ATOM     15  H   UNL     1      -1.849  -9.244   4.340  0.00  0.00    +0.145 HD
ATOM     16  H   UNL     1      -0.993 -10.290   3.341  0.00  0.00    +0.145 HD
ENDBRANCH   6  12
ENDBRANCH   3   5
BRANCH   1  17
ATOM     17  C   UNL     1       0.069  -4.202   2.274  0.00  0.00    +0.324 C 
BRANCH  17  18
ATOM     18  O   UNL     1       0.050  -2.776   2.358  0.00  0.00    -0.482 OA
BRANCH  18  24
ATOM     19  C   UNL     1      -0.018   1.503   0.010  0.00  0.00    +0.044 C 
ATOM     20  C   UNL     1       0.002  -0.004   0.002  0.00  0.00    -0.044 A 
ATOM     21  C   UNL     1       0.006  -0.688  -1.200  0.00  0.00    +0.004 A 
ATOM     22  C   UNL     1       0.024  -2.071  -1.211  0.00  0.00    +0.004 A 
ATOM     23  C   UNL     1       0.039  -2.772  -0.020  0.00  0.00    +0.046 A 
ATOM     24  C   UNL     1       0.035  -2.088   1.186  0.00  0.00    +0.124 A 
ATOM     25  C   UNL     1       0.023  -0.700   1.195  0.00  0.00    -0.006 A 
ATOM     26  C   UNL     1       0.026   0.046   2.504  0.00  0.00    +0.048 C 
ENDBRANCH  18  24
ENDBRANCH  17  18
ENDBRANCH   1  17
TORSDOF 5
