REMARK  Name = ZINC06808037
REMARK  5 active torsions:
REMARK  status: ('A' for Active; 'I' for Inactive)
REMARK    1  A    between atoms: C_1  and  C_2
REMARK    2  A    between atoms: C_12  and  C_14
REMARK    3  A    between atoms: C_12  and  C_15
REMARK    4  A    between atoms: C_23  and  C_24
REMARK    5  A    between atoms: N_26  and  C_27
REMARK                            x       y       z     vdW  Elec       q    Type
REMARK                         _______ _______ _______ _____ _____    ______ ____
ROOT
ATOM      1  C   UNL     1      -4.023   2.892   0.050  0.00  0.00    +0.048 C 
ATOM      2  C   UNL     1      -3.693   1.422   0.033  0.00  0.00    +0.008 A 
ATOM      3  C   UNL     1      -4.530   0.376  -0.425  0.00  0.00    +0.038 A 
ATOM      4  C   UNL     1      -3.810  -0.816  -0.244  0.00  0.00    +0.137 A 
ATOM      5  C   UNL     1      -4.390  -2.029  -0.607  0.00  0.00    +0.050 A 
ATOM      6  C   UNL     1      -5.658  -2.071  -1.141  0.00  0.00    +0.050 A 
ATOM      7  C   UNL     1      -6.392  -0.902  -1.332  0.00  0.00    +0.133 A 
ATOM      8  C   UNL     1      -5.831   0.329  -0.971  0.00  0.00    +0.070 A 
ATOM      9  C   UNL     1      -6.613   1.556  -1.166  0.00  0.00    +0.171 C 
ATOM     10  O   UNL     1      -6.270   2.614  -0.679  0.00  0.00    -0.292 OA
ATOM     11  C   UNL     1      -7.871   1.435  -2.006  0.00  0.00    +0.132 C 
ATOM     12  C   UNL     1      -8.543   0.107  -1.624  0.00  0.00    +0.140 C 
ATOM     13  O   UNL     1      -7.635  -0.967  -1.866  0.00  0.00    -0.480 OA
ATOM     14  C   UNL     1      -8.921   0.133  -0.142  0.00  0.00    +0.061 C 
ATOM     15  O   UNL     1      -2.614  -0.490   0.286  0.00  0.00    -0.450 OA
ATOM     16  C   UNL     1      -2.535   0.847   0.451  0.00  0.00    +0.193 A 
ENDROOT
BRANCH  12  17
ATOM     17  C   UNL     1      -9.784  -0.087  -2.457  0.00  0.00    -0.004 A 
ATOM     18  C   UNL     1     -10.504   1.010  -2.890  0.00  0.00    +0.009 A 
ATOM     19  C   UNL     1     -11.639   0.833  -3.658  0.00  0.00    +0.020 A 
ATOM     20  C   UNL     1     -12.062  -0.444  -3.984  0.00  0.00    +0.041 A 
ATOM     21  C   UNL     1     -11.344  -1.542  -3.544  0.00  0.00    +0.020 A 
ATOM     22  C   UNL     1     -10.206  -1.363  -2.781  0.00  0.00    +0.009 A 
ATOM     23 CL   UNL     1     -13.491  -0.668  -4.943  0.00  0.00    -0.084 Cl
ENDBRANCH  12  17
BRANCH  16  24
ATOM     24  C   UNL     1      -1.379   1.570   1.003  0.00  0.00    +0.279 C 
ATOM     25  O   UNL     1      -1.412   2.781   1.109  0.00  0.00    -0.267 OA
ATOM     26  N   UNL     1      -0.282   0.889   1.392  0.00  0.00    -0.312 N 
ATOM     27  C   UNL     1       0.872   1.609   1.936  0.00  0.00    +0.128 C 
ATOM     28  H   UNL     1      -0.255  -0.077   1.307  0.00  0.00    +0.149 HD
ENDBRANCH  16  24
TORSDOF 2
