REMARK  Name = ZINC63205649
REMARK  6 active torsions:
REMARK  status: ('A' for Active; 'I' for Inactive)
REMARK    1  A    between atoms: C_1  and  C_2
REMARK    2  A    between atoms: C_6  and  C_8
REMARK    3  A    between atoms: N_10  and  C_11
REMARK    4  A    between atoms: C_11  and  C_13
REMARK    5  A    between atoms: C_11  and  C_14
REMARK    6  A    between atoms: C_19  and  C_22
REMARK                            x       y       z     vdW  Elec       q    Type
REMARK                         _______ _______ _______ _____ _____    ______ ____
ROOT
ATOM      1  C   UNL     1       0.703  -6.293   3.483  0.00  0.00    +0.239 C 
ATOM      2  O   UNL     1       1.092  -6.607   2.378  0.00  0.00    -0.273 OA
ATOM      3  N   UNL     1       0.823  -7.157   4.510  0.00  0.00    -0.263 N 
ATOM      4  C   UNL     1       1.392  -8.406   4.304  0.00  0.00    +0.165 A 
ATOM      5  N   UNL     1       1.588  -9.377   5.169  0.00  0.00    -0.225 NA
ATOM      6  C   UNL     1       2.161 -10.509   4.742  0.00  0.00    +0.079 A 
ATOM      7  C   UNL     1       2.519 -10.599   3.403  0.00  0.00    +0.076 A 
ATOM      8  S   UNL     1       2.035  -9.107   2.796  0.00  0.00    -0.060 S 
ATOM      9  H   UNL     1       0.512  -6.906   5.394  0.00  0.00    +0.157 HD
ENDROOT
BRANCH   6  10
ATOM     10  C   UNL     1       2.396 -11.582   5.629  0.00  0.00    +0.007 C 
ATOM     11  C   UNL     1       2.087 -11.635   6.985  0.00  0.00    +0.005 A 
ATOM     12  C   UNL     1       1.483 -10.707   7.863  0.00  0.00    +0.010 A 
ATOM     13  C   UNL     1       1.302 -11.034   9.168  0.00  0.00    +0.001 A 
ATOM     14  C   UNL     1       1.700 -12.274   9.673  0.00  0.00    +0.002 A 
ATOM     15  C   UNL     1       2.285 -13.212   8.888  0.00  0.00    +0.026 A 
ATOM     16  C   UNL     1       2.508 -12.943   7.513  0.00  0.00    +0.043 A 
ATOM     17  N   UNL     1       3.048 -13.673   6.557  0.00  0.00    -0.380 N 
ATOM     18  C   UNL     1       3.029 -12.916   5.302  0.00  0.00    +0.151 C 
ATOM     19  H   UNL     1       3.399 -14.571   6.667  0.00  0.00    +0.160 HD
ENDBRANCH   6  10
BRANCH   1  20
ATOM     20  C   UNL     1       0.086  -4.937   3.707  0.00  0.00    +0.156 C 
ATOM     21  C   UNL     1      -1.347  -5.107   4.216  0.00  0.00    +0.038 C 
BRANCH  20  24
ATOM     22  C   UNL     1       0.052  -2.845   2.458  0.00  0.00    +0.245 C 
ATOM     23  O   UNL     1       0.049  -2.248   3.516  0.00  0.00    -0.270 OA
ATOM     24  N   UNL     1       0.070  -4.193   2.445  0.00  0.00    -0.300 N 
ATOM     25  H   UNL     1       0.072  -4.670   1.601  0.00  0.00    +0.150 HD
BRANCH  22  31
ATOM     26  C   UNL     1      -0.018   1.503   0.010  0.00  0.00    +0.044 C 
ATOM     27  C   UNL     1       0.002  -0.004   0.002  0.00  0.00    -0.050 A 
ATOM     28  C   UNL     1       0.006  -0.688  -1.201  0.00  0.00    +0.003 A 
ATOM     29  C   UNL     1       0.025  -2.071  -1.218  0.00  0.00    +0.001 A 
ATOM     30  C   UNL     1       0.040  -2.778  -0.033  0.00  0.00    +0.013 A 
ATOM     31  C   UNL     1       0.036  -2.095   1.184  0.00  0.00    +0.037 A 
ATOM     32  C   UNL     1       0.023  -0.699   1.194  0.00  0.00    +0.016 A 
ENDBRANCH  22  31
ENDBRANCH  20  24
ENDBRANCH   1  20
TORSDOF 4
