REMARK  Name = ZINC20881969
REMARK  11 active torsions:
REMARK  status: ('A' for Active; 'I' for Inactive)
REMARK    1  A    between atoms: C_1  and  O_2
REMARK    2  A    between atoms: O_2  and  C_3
REMARK    3  A    between atoms: C_6  and  C_11
REMARK    4  A    between atoms: C_8  and  O_9
REMARK    5  A    between atoms: O_9  and  C_10
REMARK    6  A    between atoms: C_16  and  C_26
REMARK    7  A    between atoms: C_28  and  O_35
REMARK    8  A    between atoms: C_29  and  O_34
REMARK    9  A    between atoms: C_30  and  O_32
REMARK   10  A    between atoms: O_32  and  C_33
REMARK   11  A    between atoms: O_35  and  C_36
REMARK                            x       y       z     vdW  Elec       q    Type
REMARK                         _______ _______ _______ _____ _____    ______ ____
ROOT
ATOM      1  C   UNL     1      -1.538   2.994  -1.108  0.00  0.00    +0.032 C 
ATOM      2  C   UNL     1      -1.688   4.446  -0.657  0.00  0.00    +0.059 C 
ATOM      3  C   UNL     1      -2.284   4.495   0.740  0.00  0.00    +0.017 C 
ATOM      4  C   UNL     1      -2.019   3.522   1.629  0.00  0.00    +0.036 C 
ATOM      5  C   UNL     1      -2.539   3.449   3.044  0.00  0.00    +0.136 C 
ATOM      6  N   UNL     1      -3.171   4.663   3.516  0.00  0.00    -0.331 N 
ATOM      7  C   UNL     1      -4.346   5.135   2.933  0.00  0.00    +0.049 A 
ATOM      8  C   UNL     1      -5.545   5.138   3.626  0.00  0.00    +0.025 A 
ATOM      9  C   UNL     1      -6.707   5.509   2.972  0.00  0.00    +0.002 A 
ATOM     10  C   UNL     1      -6.673   5.874   1.638  0.00  0.00    +0.002 A 
ATOM     11  C   UNL     1      -5.473   5.892   0.949  0.00  0.00    +0.025 A 
ATOM     12  C   UNL     1      -4.308   5.538   1.607  0.00  0.00    +0.052 A 
ATOM     13  N   UNL     1      -3.063   5.579   0.990  0.00  0.00    -0.316 N 
ATOM     14  C   UNL     1      -1.191   2.431   1.266  0.00  0.00    +0.163 C 
ATOM     15  O   UNL     1      -0.945   1.578   2.096  0.00  0.00    -0.292 OA
ATOM     16  C   UNL     1      -0.612   2.289  -0.110  0.00  0.00    +0.088 C 
ATOM     17  H   UNL     1      -2.724   5.228   4.347  0.00  0.00    +0.147 HD
ATOM     18  H   UNL     1      -2.719   6.582   0.697  0.00  0.00    +0.152 HD
ENDROOT
BRANCH   1  22
ATOM     19  C   UNL     1       0.186   2.863  -5.020  0.00  0.00    +0.161 A 
ATOM     20  C   UNL     1       0.863   3.483  -3.982  0.00  0.00    +0.049 A 
ATOM     21  C   UNL     1       0.303   3.524  -2.718  0.00  0.00    +0.008 A 
ATOM     22  C   UNL     1      -0.932   2.947  -2.487  0.00  0.00    -0.040 A 
ATOM     23  C   UNL     1      -1.610   2.322  -3.517  0.00  0.00    +0.053 A 
ATOM     24  C   UNL     1      -1.057   2.282  -4.787  0.00  0.00    +0.162 A 
BRANCH  19  26
ATOM     25  C   UNL     1       2.014   3.439  -6.428  0.00  0.00    +0.277 C 
ATOM     26  O   UNL     1       0.736   2.822  -6.263  0.00  0.00    -0.491 OA
ENDBRANCH  19  26
BRANCH  24  27
ATOM     27  O   UNL     1      -1.725   1.673  -5.803  0.00  0.00    -0.491 OA
ATOM     28  C   UNL     1      -2.995   1.098  -5.490  0.00  0.00    +0.277 C 
ENDBRANCH  24  27
ENDBRANCH   1  22
BRANCH   5  29
ATOM     29  C   UNL     1      -3.540   2.326   3.127  0.00  0.00    -0.016 A 
ATOM     30  C   UNL     1      -3.307   1.255   3.969  0.00  0.00    +0.055 A 
ATOM     31  C   UNL     1      -4.228   0.223   4.053  0.00  0.00    +0.165 A 
ATOM     32  C   UNL     1      -5.383   0.260   3.280  0.00  0.00    +0.201 A 
ATOM     33  C   UNL     1      -5.611   1.335   2.430  0.00  0.00    +0.165 A 
ATOM     34  C   UNL     1      -4.687   2.367   2.357  0.00  0.00    +0.055 A 
BRANCH  33  35
ATOM     35  O   UNL     1      -6.739   1.376   1.671  0.00  0.00    -0.491 OA
ATOM     36  C   UNL     1      -6.908   2.512   0.821  0.00  0.00    +0.277 C 
ENDBRANCH  33  35
BRANCH  32  37
ATOM     37  O   UNL     1      -6.286  -0.755   3.354  0.00  0.00    -0.501 OA
ATOM     38  H   UNL     1      -7.199  -0.725   2.741  0.00  0.00    +0.292 HD
ENDBRANCH  32  37
BRANCH  31  39
ATOM     39  O   UNL     1      -4.000  -0.828   4.886  0.00  0.00    -0.491 OA
ATOM     40  C   UNL     1      -2.850  -0.748   5.730  0.00  0.00    +0.277 C 
ENDBRANCH  31  39
ENDBRANCH   5  29
TORSDOF 7
