REMARK  Name = ZINC01017574
REMARK  8 active torsions:
REMARK  status: ('A' for Active; 'I' for Inactive)
REMARK    1  A    between atoms: C_1  and  C_2
REMARK    2  A    between atoms: C_3  and  N_15
REMARK    3  A    between atoms: N_6  and  C_9
REMARK    4  A    between atoms: N_7  and  C_8
REMARK    5  A    between atoms: C_16  and  C_18
REMARK    6  A    between atoms: C_18  and  S_19
REMARK    7  A    between atoms: S_19  and  C_20
REMARK    8  A    between atoms: C_30  and  C_34
REMARK                            x       y       z     vdW  Elec       q    Type
REMARK                         _______ _______ _______ _____ _____    ______ ____
ROOT
ATOM      1  N   UNL     1      -0.672   4.158   1.469  0.00  0.00    -0.279 N 
ATOM      2  C   UNL     1       0.118   3.070   1.369  0.00  0.00    +0.228 C 
ATOM      3  O   UNL     1       0.158   2.264   2.276  0.00  0.00    -0.275 OA
ATOM      4  H   UNL     1      -0.647   4.840   0.779  0.00  0.00    +0.155 HD
ENDROOT
BRANCH   1   7
ATOM      5  C   UNL     1      -3.674   4.759   1.277  0.00  0.00    +0.067 C 
ATOM      6  C   UNL     1      -2.858   4.569   2.529  0.00  0.00    +0.059 A 
ATOM      7  C   UNL     1      -1.533   4.305   2.575  0.00  0.00    +0.121 A 
ATOM      8  C   UNL     1      -1.158   4.206   3.986  0.00  0.00    +0.293 A 
ATOM      9  O   UNL     1      -0.045   3.981   4.426  0.00  0.00    -0.264 OA
ATOM     10  N   UNL     1      -2.281   4.410   4.705  0.00  0.00    -0.216 N 
ATOM     11  N   UNL     1      -3.335   4.632   3.812  0.00  0.00    -0.282 N 
ATOM     12  C   UNL     1      -4.726   4.896   4.188  0.00  0.00    +0.171 C 
BRANCH  10  13
ATOM     13  C   UNL     1      -2.375   4.403   6.101  0.00  0.00    +0.067 A 
ATOM     14  C   UNL     1      -3.018   5.443   6.760  0.00  0.00    +0.028 A 
ATOM     15  C   UNL     1      -3.114   5.429   8.138  0.00  0.00    +0.002 A 
ATOM     16  C   UNL     1      -2.561   4.389   8.861  0.00  0.00    +0.000 A 
ATOM     17  C   UNL     1      -1.915   3.355   8.208  0.00  0.00    +0.002 A 
ATOM     18  C   UNL     1      -1.820   3.359   6.830  0.00  0.00    +0.028 A 
ENDBRANCH  10  13
ENDBRANCH   1   7
BRANCH   2  19
ATOM     19  C   UNL     1       0.950   2.854   0.132  0.00  0.00    +0.171 C 
BRANCH  19  20
ATOM     20  S   UNL     1       1.893   1.318   0.300  0.00  0.00    -0.096 S 
BRANCH  20  21
ATOM     21  C   UNL     1       2.750   1.315  -1.240  0.00  0.00    +0.109 A 
ATOM     22  C   UNL     1       3.649   0.260  -1.563  0.00  0.00    +0.043 A 
ATOM     23  C   UNL     1       4.007  -0.915  -0.767  0.00  0.00    -0.025 A 
ATOM     24  C   UNL     1       4.895  -1.773  -1.308  0.00  0.00    -0.004 A 
ATOM     25  S   UNL     1       5.293  -1.088  -2.894  0.00  0.00    -0.073 S 
ATOM     26  C   UNL     1       4.273   0.362  -2.822  0.00  0.00    +0.113 A 
ATOM     27  N   UNL     1       4.036   1.378  -3.630  0.00  0.00    -0.228 NA
ATOM     28  C   UNL     1       3.195   2.329  -3.273  0.00  0.00    +0.223 A 
ATOM     29  N   UNL     1       2.571   2.297  -2.109  0.00  0.00    -0.229 NA
ATOM     30  C   UNL     1       5.420  -3.039  -0.702  0.00  0.00    +0.046 C 
ATOM     31  C   UNL     1       4.520  -3.418   0.483  0.00  0.00    -0.009 C 
ATOM     32  C   UNL     1       4.304  -2.177   1.353  0.00  0.00    +0.008 C 
ATOM     33  C   UNL     1       3.415  -1.174   0.616  0.00  0.00    +0.037 C 
ATOM     34  C   UNL     1       5.195  -4.514   1.310  0.00  0.00    +0.008 C 
ENDBRANCH  20  21
ENDBRANCH  19  20
ENDBRANCH   2  19
TORSDOF 5
