REMARK  Name = ZINC46791809
REMARK  7 active torsions:
REMARK  status: ('A' for Active; 'I' for Inactive)
REMARK    1  A    between atoms: C_1  and  C_2
REMARK    2  A    between atoms: C_7  and  C_10
REMARK    3  A    between atoms: C_14  and  C_17
REMARK    4  A    between atoms: C_17  and  N_18
REMARK    5  A    between atoms: C_19  and  C_21
REMARK    6  A    between atoms: C_21  and  N_22
REMARK    7  A    between atoms: C_23  and  C_25
REMARK                            x       y       z     vdW  Elec       q    Type
REMARK                         _______ _______ _______ _____ _____    ______ ____
ROOT
ATOM      1  N   UNL     1       4.638   3.978  -5.162  0.00  0.00    -0.310 N 
ATOM      2  C   UNL     1       5.221   4.826  -6.033  0.00  0.00    +0.230 C 
ATOM      3  O   UNL     1       5.915   4.392  -6.929  0.00  0.00    -0.274 OA
ATOM      4  H   UNL     1       4.083   4.325  -4.446  0.00  0.00    +0.149 HD
ENDROOT
BRANCH   1   5
ATOM      5  C   UNL     1       4.841   2.534  -5.298  0.00  0.00    +0.141 C 
BRANCH   5  17
ATOM      6  C   UNL     1       0.016   1.546   0.045  0.00  0.00    +0.039 C 
ATOM      7  C   UNL     1       0.015   0.016   0.022  0.00  0.00    +0.133 C 
ATOM      8  C   UNL     1       0.716  -0.478  -1.248  0.00  0.00    +0.137 C 
ATOM      9  N   UNL     1       2.143  -0.135  -1.154  0.00  0.00    -0.312 N 
ATOM     10  C   UNL     1       2.865  -0.509   0.072  0.00  0.00    +0.137 C 
ATOM     11  C   UNL     1       2.060  -0.013   1.279  0.00  0.00    +0.133 C 
ATOM     12  O   UNL     1       0.711  -0.479   1.169  0.00  0.00    -0.371 OA
ATOM     13  C   UNL     1       2.684  -0.553   2.567  0.00  0.00    +0.039 C 
ATOM     14  C   UNL     1       2.791   0.524  -2.193  0.00  0.00    +0.099 A 
ATOM     15  C   UNL     1       2.117   0.757  -3.387  0.00  0.00    +0.042 A 
ATOM     16  C   UNL     1       2.773   1.413  -4.413  0.00  0.00    +0.010 A 
ATOM     17  C   UNL     1       4.087   1.816  -4.208  0.00  0.00    -0.014 A 
ATOM     18  C   UNL     1       4.694   1.552  -2.997  0.00  0.00    +0.089 A 
ATOM     19  N   UNL     1       4.042   0.928  -2.034  0.00  0.00    -0.349 N 
ATOM     20  H   UNL     1       4.491   0.759  -1.192  0.00  0.00    +0.167 HD
ENDBRANCH   5  17
ENDBRANCH   1   5
BRANCH   2  21
ATOM     21  C   UNL     1       5.012   6.311  -5.894  0.00  0.00    +0.200 C 
BRANCH  21  22
ATOM     22  N   UNL     1       5.745   7.009  -6.953  0.00  0.00    -0.302 N 
ATOM     23  C   UNL     1       5.704   8.354  -7.027  0.00  0.00    +0.253 C 
ATOM     24  O   UNL     1       5.058   8.989  -6.214  0.00  0.00    -0.270 OA
ATOM     25  H   UNL     1       6.261   6.503  -7.600  0.00  0.00    +0.150 HD
BRANCH  23  26
ATOM     26  C   UNL     1       6.439   9.054  -8.088  0.00  0.00    +0.093 A 
ATOM     27  C   UNL     1       6.523  10.392  -8.322  0.00  0.00    +0.068 A 
ATOM     28  C   UNL     1       7.288  10.868  -9.403  0.00  0.00    +0.008 A 
ATOM     29  C   UNL     1       7.496  12.212  -9.807  0.00  0.00    +0.010 A 
ATOM     30  C   UNL     1       8.269  12.502 -10.885  0.00  0.00    +0.001 A 
ATOM     31  C   UNL     1       8.883  11.504 -11.631  0.00  0.00    +0.001 A 
ATOM     32  C   UNL     1       8.707  10.182 -11.273  0.00  0.00    +0.016 A 
ATOM     33  C   UNL     1       7.925   9.873 -10.181  0.00  0.00    +0.021 A 
ATOM     34  S   UNL     1       7.449   8.359  -9.385  0.00  0.00    -0.082 S 
ATOM     35 CL   UNL     1       5.689  11.509  -7.287  0.00  0.00    -0.082 Cl
ENDBRANCH  23  26
ENDBRANCH  21  22
ENDBRANCH   2  21
TORSDOF 5
