REMARK  Name = ZINC45946826
REMARK  11 active torsions:
REMARK  status: ('A' for Active; 'I' for Inactive)
REMARK    1  A    between atoms: C_1  and  C_2
REMARK    2  A    between atoms: C_5  and  N_8
REMARK    3  A    between atoms: N_11  and  C_35
REMARK    4  A    between atoms: C_14  and  C_16
REMARK    5  A    between atoms: C_18  and  C_21
REMARK    6  A    between atoms: N_23  and  C_24
REMARK    7  A    between atoms: C_24  and  C_25
REMARK    8  A    between atoms: C_25  and  C_26
REMARK    9  A    between atoms: C_26  and  N_27
REMARK   10  A    between atoms: N_27  and  C_28
REMARK   11  A    between atoms: N_27  and  C_29
REMARK                            x       y       z     vdW  Elec       q    Type
REMARK                         _______ _______ _______ _____ _____    ______ ____
ROOT
ATOM      1  C   UNL     1      -0.124  -6.911  -2.529  0.00  0.00    +0.228 A 
ATOM      2  N   UNL     1      -0.233  -6.359  -3.747  0.00  0.00    -0.182 NA
ATOM      3  C   UNL     1      -0.301  -7.295  -4.659  0.00  0.00    +0.314 A 
ATOM      4  O   UNL     1      -0.237  -8.489  -4.044  0.00  0.00    -0.328 OA
ATOM      5  N   UNL     1      -0.117  -8.217  -2.656  0.00  0.00    -0.054 NA
ENDROOT
BRANCH   1  12
ATOM      6  N   UNL     1       0.059  -4.170  -0.021  0.00  0.00    -0.181 N 
ATOM      7  C   UNL     1       0.170  -4.837   1.141  0.00  0.00    +0.353 A 
ATOM      8  O   UNL     1       0.253  -4.214   2.181  0.00  0.00    -0.244 OA
ATOM      9  N   UNL     1       0.191  -6.183   1.173  0.00  0.00    -0.261 N 
ATOM     10  C   UNL     1       0.100  -6.889   0.027  0.00  0.00    +0.286 A 
ATOM     11  O   UNL     1       0.118  -8.105   0.050  0.00  0.00    -0.265 OA
ATOM     12  C   UNL     1      -0.022  -6.168  -1.250  0.00  0.00    +0.196 A 
ATOM     13  N   UNL     1      -0.045  -4.854  -1.238  0.00  0.00    -0.153 NA
ATOM     14  C   UNL     1       0.314  -6.881   2.455  0.00  0.00    +0.157 C 
BRANCH   6  19
ATOM     15  C   UNL     1      -0.018   1.503   0.012  0.00  0.00    +0.044 C 
ATOM     16  C   UNL     1       0.003  -0.004   0.003  0.00  0.00    -0.050 A 
ATOM     17  C   UNL     1      -0.958  -0.703  -0.705  0.00  0.00    +0.005 A 
ATOM     18  C   UNL     1      -0.942  -2.084  -0.715  0.00  0.00    +0.028 A 
ATOM     19  C   UNL     1       0.040  -2.771  -0.013  0.00  0.00    +0.071 A 
ATOM     20  C   UNL     1       1.004  -2.066   0.697  0.00  0.00    +0.028 A 
ATOM     21  C   UNL     1       0.985  -0.685   0.699  0.00  0.00    +0.005 A 
ENDBRANCH   6  19
ENDBRANCH   1  12
BRANCH   3  22
ATOM     22  C   UNL     1      -0.429  -7.077  -6.120  0.00  0.00    +0.302 C 
ATOM     23  O   UNL     1      -0.479  -5.947  -6.563  0.00  0.00    -0.265 OA
ATOM     24  N   UNL     1      -0.489  -8.132  -6.957  0.00  0.00    -0.307 N 
ATOM     25  H   UNL     1      -0.449  -9.034  -6.603  0.00  0.00    +0.149 HD
BRANCH  24  26
ATOM     26  C   UNL     1      -0.615  -7.916  -8.400  0.00  0.00    +0.103 C 
BRANCH  26  27
ATOM     27  C   UNL     1      -0.661  -9.268  -9.116  0.00  0.00    +0.000 C 
BRANCH  27  28
ATOM     28  C   UNL     1      -0.793  -9.042 -10.623  0.00  0.00    -0.077 C 
BRANCH  28  29
ATOM     29  N   UNL     1      -0.837 -10.340 -11.310  0.00  0.00    +0.380 N 
ATOM     30  C   UNL     1       0.445 -11.033 -11.131  0.00  0.00    -0.096 C 
ATOM     31  H   UNL     1      -1.580 -10.901 -10.921  0.00  0.00    -0.082 HD
BRANCH  29  32
ATOM     32  C   UNL     1      -1.083 -10.127 -12.743  0.00  0.00    -0.069 C 
ATOM     33  C   UNL     1      -2.419  -9.405 -12.929  0.00  0.00    -0.015 C 
ATOM     34  C   UNL     1      -2.675  -9.184 -14.421  0.00  0.00    -0.002 C 
ATOM     35  C   UNL     1      -2.722 -10.535 -15.137  0.00  0.00    -0.000 C 
ATOM     36  C   UNL     1      -1.386 -11.257 -14.950  0.00  0.00    -0.002 C 
ATOM     37  C   UNL     1      -1.130 -11.479 -13.458  0.00  0.00    -0.015 C 
ENDBRANCH  29  32
ENDBRANCH  28  29
ENDBRANCH  27  28
ENDBRANCH  26  27
ENDBRANCH  24  26
ENDBRANCH   3  22
TORSDOF 8
