REMARK  Name = ZINC08385104
REMARK  13 active torsions:
REMARK  status: ('A' for Active; 'I' for Inactive)
REMARK    1  A    between atoms: C_1  and  C_2
REMARK    2  A    between atoms: C_3  and  C_36
REMARK    3  A    between atoms: C_5  and  N_28
REMARK    4  A    between atoms: C_6  and  C_7
REMARK    5  A    between atoms: C_7  and  C_9
REMARK    6  A    between atoms: C_7  and  N_21
REMARK    7  A    between atoms: C_11  and  O_19
REMARK    8  A    between atoms: C_12  and  O_17
REMARK    9  A    between atoms: C_13  and  O_15
REMARK   10  A    between atoms: O_15  and  C_16
REMARK   11  A    between atoms: O_17  and  C_18
REMARK   12  A    between atoms: O_19  and  C_20
REMARK   13  A    between atoms: C_29  and  C_31
REMARK                            x       y       z     vdW  Elec       q    Type
REMARK                         _______ _______ _______ _____ _____    ______ ____
ROOT
ATOM      1  C   UNL     1      -0.308  -0.227   2.709  0.00  0.00    +0.135 C 
ENDROOT
BRANCH   1   2
ATOM      2  N   UNL     1       0.730  -0.739   3.608  0.00  0.00    -0.320 N 
ATOM      3  C   UNL     1       2.037  -0.282   3.493  0.00  0.00    +0.097 A 
ATOM      4  C   UNL     1       2.332   0.744   2.600  0.00  0.00    +0.041 A 
ATOM      5  C   UNL     1       3.637   1.190   2.496  0.00  0.00    +0.005 A 
ATOM      6  C   UNL     1       4.608   0.592   3.289  0.00  0.00    +0.018 A 
ATOM      7  C   UNL     1       4.244  -0.422   4.153  0.00  0.00    +0.084 A 
ATOM      8  N   UNL     1       2.990  -0.823   4.236  0.00  0.00    -0.350 N 
ATOM      9  H   UNL     1       0.504  -1.398   4.284  0.00  0.00    +0.148 HD
ATOM     10  H   UNL     1       2.761  -1.534   4.854  0.00  0.00    +0.166 HD
ENDBRANCH   1   2
BRANCH   1  16
ATOM     11  C   UNL     1      -0.620   1.254   0.220  0.00  0.00    +0.045 C 
ATOM     12  C   UNL     1      -0.362  -0.230   0.199  0.00  0.00    -0.033 A 
ATOM     13  C   UNL     1      -0.266  -0.894  -0.978  0.00  0.00    -0.008 A 
ATOM     14  S   UNL     1       0.035  -2.569  -0.438  0.00  0.00    -0.078 S 
ATOM     15  C   UNL     1       0.014  -2.275   1.322  0.00  0.00    +0.078 A 
ATOM     16  C   UNL     1      -0.214  -0.933   1.381  0.00  0.00    +0.009 A 
ATOM     17  C   UNL     1      -0.384  -0.357  -2.381  0.00  0.00    +0.052 C 
BRANCH  15  18
ATOM     18  N   UNL     1       0.190  -3.183   2.368  0.00  0.00    -0.273 N 
ATOM     19  C   UNL     1       0.283  -4.502   2.106  0.00  0.00    +0.284 C 
ATOM     20  O   UNL     1       0.300  -4.894   0.954  0.00  0.00    -0.266 OA
ATOM     21  H   UNL     1       0.245  -2.865   3.283  0.00  0.00    +0.156 HD
BRANCH  19  22
ATOM     22  C   UNL     1       0.363  -5.465   3.209  0.00  0.00    +0.189 A 
ATOM     23  C   UNL     1       0.522  -6.816   3.086  0.00  0.00    +0.054 A 
ATOM     24  C   UNL     1       0.546  -7.340   4.388  0.00  0.00    +0.042 A 
ATOM     25  C   UNL     1       0.403  -6.299   5.238  0.00  0.00    +0.196 A 
ATOM     26  O   UNL     1       0.299  -5.171   4.524  0.00  0.00    -0.458 OA
ENDBRANCH  19  22
ENDBRANCH  15  18
ENDBRANCH   1  16
BRANCH   1  27
ATOM     27  C   UNL     1      -1.665  -0.476   3.315  0.00  0.00    -0.016 A 
ATOM     28  C   UNL     1      -1.886  -1.615   4.067  0.00  0.00    +0.055 A 
ATOM     29  C   UNL     1      -3.133  -1.847   4.626  0.00  0.00    +0.165 A 
ATOM     30  C   UNL     1      -4.162  -0.934   4.430  0.00  0.00    +0.204 A 
ATOM     31  C   UNL     1      -3.935   0.210   3.674  0.00  0.00    +0.165 A 
ATOM     32  C   UNL     1      -2.683   0.438   3.123  0.00  0.00    +0.055 A 
BRANCH  31  33
ATOM     33  O   UNL     1      -4.939   1.108   3.479  0.00  0.00    -0.491 OA
ATOM     34  C   UNL     1      -4.634   2.260   2.692  0.00  0.00    +0.277 C 
ENDBRANCH  31  33
BRANCH  30  35
ATOM     35  O   UNL     1      -5.388  -1.159   4.977  0.00  0.00    -0.488 OA
ATOM     36  C   UNL     1      -5.618  -0.642   6.289  0.00  0.00    +0.277 C 
ENDBRANCH  30  35
BRANCH  29  37
ATOM     37  O   UNL     1      -3.350  -2.969   5.365  0.00  0.00    -0.491 OA
ATOM     38  C   UNL     1      -2.222  -3.809   5.615  0.00  0.00    +0.277 C 
ENDBRANCH  29  37
ENDBRANCH   1  27
TORSDOF 8
