REMARK  Name = ZINC65581732
REMARK  7 active torsions:
REMARK  status: ('A' for Active; 'I' for Inactive)
REMARK    1  A    between atoms: C_1  and  C_2
REMARK    2  A    between atoms: C_2  and  C_3
REMARK    3  A    between atoms: C_3  and  C_4
REMARK    4  A    between atoms: C_4  and  C_5
REMARK    5  A    between atoms: C_5  and  C_6
REMARK    6  A    between atoms: C_5  and  N_22
REMARK    7  A    between atoms: C_17  and  C_19
REMARK                            x       y       z     vdW  Elec       q    Type
REMARK                         _______ _______ _______ _____ _____    ______ ____
ROOT
ATOM      1  C   UNL     1      -0.173  -6.650  -1.045  0.00  0.00    +0.237 C 
ATOM      2  O   UNL     1      -0.490  -7.128   0.024  0.00  0.00    -0.274 OA
ATOM      3  N   UNL     1      -1.106  -6.075  -1.829  0.00  0.00    -0.284 N 
ATOM      4  C   UNL     1      -0.740  -5.385  -3.070  0.00  0.00    +0.144 C 
ATOM      5  C   UNL     1      -1.691  -5.781  -4.172  0.00  0.00    -0.027 A 
ATOM      6  C   UNL     1      -1.361  -5.422  -5.472  0.00  0.00    +0.005 A 
ATOM      7  C   UNL     1      -2.196  -5.747  -6.521  0.00  0.00    +0.000 A 
ATOM      8  C   UNL     1      -3.371  -6.434  -6.275  0.00  0.00    +0.000 A 
ATOM      9  C   UNL     1      -3.697  -6.795  -4.984  0.00  0.00    +0.004 A 
ATOM     10  C   UNL     1      -2.855  -6.474  -3.926  0.00  0.00    -0.040 A 
ATOM     11  C   UNL     1      -3.263  -6.924  -2.548  0.00  0.00    +0.067 C 
ATOM     12  C   UNL     1      -2.535  -6.121  -1.478  0.00  0.00    +0.166 C 
ENDROOT
BRANCH  12  13
ATOM     13  C   UNL     1      -2.710  -6.789  -0.138  0.00  0.00    +0.231 C 
ATOM     14  O   UNL     1      -3.012  -6.129   0.834  0.00  0.00    -0.274 OA
ATOM     15  N   UNL     1      -2.530  -8.119  -0.020  0.00  0.00    -0.328 N 
ATOM     16  H   UNL     1      -2.288  -8.647  -0.797  0.00  0.00    +0.145 HD
ATOM     17  H   UNL     1      -2.642  -8.549   0.842  0.00  0.00    +0.145 HD
ENDBRANCH  12  13
BRANCH   1  18
ATOM     18  C   UNL     1       1.264  -6.698  -1.496  0.00  0.00    +0.161 C 
BRANCH  18  19
ATOM     19  N   UNL     1       2.133  -6.913  -0.336  0.00  0.00    -0.288 N 
ATOM     20  C   UNL     1       1.990  -8.022   0.417  0.00  0.00    +0.298 C 
ATOM     21  O   UNL     1       1.140  -8.844   0.134  0.00  0.00    -0.253 OA
ATOM     22  N   UNL     1       2.789  -8.219   1.485  0.00  0.00    -0.313 N 
ATOM     23  H   UNL     1       2.811  -6.257  -0.109  0.00  0.00    +0.151 HD
ATOM     24  H   UNL     1       3.467  -7.563   1.711  0.00  0.00    +0.146 HD
ATOM     25  H   UNL     1       2.687  -9.017   2.026  0.00  0.00    +0.146 HD
ENDBRANCH  18  19
BRANCH  18  26
ATOM     26  C   UNL     1       1.448  -7.846  -2.490  0.00  0.00    +0.032 C 
BRANCH  26  27
ATOM     27  C   UNL     1       2.875  -7.819  -3.042  0.00  0.00    +0.002 C 
BRANCH  27  29
ATOM     28  C   UNL     1       4.486  -8.940  -4.588  0.00  0.00    +0.004 C 
ATOM     29  C   UNL     1       3.059  -8.967  -4.036  0.00  0.00    -0.003 C 
ENDBRANCH  27  29
ENDBRANCH  26  27
ENDBRANCH  18  26
ENDBRANCH   1  18
TORSDOF 6
