REMARK  Name = ZINC09791314
REMARK  8 active torsions:
REMARK  status: ('A' for Active; 'I' for Inactive)
REMARK    1  A    between atoms: C_1  and  C_2
REMARK    2  A    between atoms: C_2  and  C_4
REMARK    3  A    between atoms: C_2  and  O_17
REMARK    4  A    between atoms: N_6  and  C_7
REMARK    5  A    between atoms: C_10  and  N_14
REMARK    6  A    between atoms: O_17  and  C_18
REMARK    7  A    between atoms: C_18  and  C_20
REMARK    8  A    between atoms: C_23  and  C_26
REMARK                            x       y       z     vdW  Elec       q    Type
REMARK                         _______ _______ _______ _____ _____    ______ ____
ROOT
ATOM      1  C   UNL     1       2.396  -4.786   1.409  0.00  0.00    +0.062 C 
ATOM      2  C   UNL     1       2.390  -4.263  -0.029  0.00  0.00    +0.259 C 
ENDROOT
BRANCH   2   3
ATOM      3  C   UNL     1       3.590  -4.802  -0.764  0.00  0.00    +0.258 C 
ATOM      4  O   UNL     1       4.454  -4.044  -1.152  0.00  0.00    -0.271 OA
ATOM      5  N   UNL     1       3.704  -6.125  -0.990  0.00  0.00    -0.281 N 
ATOM      6  H   UNL     1       3.047  -6.738  -0.624  0.00  0.00    +0.155 HD
BRANCH   5   7
ATOM      7  C   UNL     1       4.770  -6.616  -1.753  0.00  0.00    +0.052 A 
ATOM      8  C   UNL     1       6.014  -6.004  -1.685  0.00  0.00    +0.027 A 
ATOM      9  C   UNL     1       7.064  -6.490  -2.439  0.00  0.00    +0.034 A 
ATOM     10  C   UNL     1       6.878  -7.586  -3.262  0.00  0.00    +0.128 A 
ATOM     11  C   UNL     1       5.640  -8.199  -3.333  0.00  0.00    +0.054 A 
ATOM     12  C   UNL     1       4.587  -7.721  -2.576  0.00  0.00    +0.064 A 
ATOM     13 CL   UNL     1       3.035  -8.494  -2.660  0.00  0.00    -0.082 Cl
BRANCH  10  14
ATOM     14  N   UNL     1       8.005  -8.104  -4.069  0.00  0.00    +0.056 N 
ATOM     15  O   UNL     1       9.096  -7.566  -4.008  0.00  0.00    -0.126 OA
ATOM     16  O   UNL     1       7.842  -9.069  -4.794  0.00  0.00    -0.126 OA
ENDBRANCH  10  14
ENDBRANCH   5   7
ENDBRANCH   2   3
BRANCH   2  17
ATOM     17  O   UNL     1       2.441  -2.812  -0.016  0.00  0.00    -0.449 OA
BRANCH  17  18
ATOM     18  C   UNL     1       1.263  -2.159   0.009  0.00  0.00    +0.340 C 
ATOM     19  O   UNL     1       0.222  -2.785   0.020  0.00  0.00    -0.245 OA
BRANCH  18  20
ATOM     20  C   UNL     1       1.238  -0.682   0.023  0.00  0.00    +0.059 A 
ATOM     21  C   UNL     1       0.018  -0.002   0.049  0.00  0.00    +0.015 A 
ATOM     22  C   UNL     1       0.002   1.377   0.062  0.00  0.00    +0.006 A 
ATOM     23  C   UNL     1       1.190   2.087   0.048  0.00  0.00    -0.025 A 
ATOM     24  C   UNL     1       2.401   1.419   0.022  0.00  0.00    +0.006 A 
ATOM     25  C   UNL     1       2.433   0.040   0.009  0.00  0.00    +0.015 A 
BRANCH  23  26
ATOM     26  C   UNL     1       1.164   3.593   0.062  0.00  0.00    +0.133 C 
ATOM     27  S   UNL     1       2.094   4.277  -1.369  0.00  0.00    -0.141 S 
ATOM     28  C   UNL     1       2.968   5.715  -0.624  0.00  0.00    +0.081 C 
ATOM     29  C   UNL     1       3.470   5.216   0.754  0.00  0.00    +0.081 C 
ATOM     30  S   UNL     1       2.105   4.250   1.493  0.00  0.00    -0.141 S 
ENDBRANCH  23  26
ENDBRANCH  18  20
ENDBRANCH  17  18
ENDBRANCH   2  17
TORSDOF 7
