REMARK  Name = ZINC20438310
REMARK  6 active torsions:
REMARK  status: ('A' for Active; 'I' for Inactive)
REMARK    1  A    between atoms: C_1  and  C_2
REMARK    2  A    between atoms: C_5  and  N_8
REMARK    3  A    between atoms: C_9  and  C_11
REMARK    4  A    between atoms: C_11  and  S_12
REMARK    5  A    between atoms: S_12  and  C_13
REMARK    6  A    between atoms: N_23  and  C_26
REMARK                            x       y       z     vdW  Elec       q    Type
REMARK                         _______ _______ _______ _____ _____    ______ ____
ROOT
ATOM      1  C   UNL     1       0.823  -1.309   0.075  0.00  0.00    +0.191 A 
ATOM      2  N   UNL     1      -0.323  -0.637   0.089  0.00  0.00    -0.207 NA
ATOM      3  C   UNL     1      -0.362   0.684   0.108  0.00  0.00    +0.129 A 
ATOM      4  C   UNL     1       0.858   1.417   0.116  0.00  0.00    +0.051 A 
ATOM      5  C   UNL     1       1.057   2.866   0.138  0.00  0.00    -0.022 A 
ATOM      6  C   UNL     1       2.330   3.312   0.139  0.00  0.00    +0.010 A 
ATOM      7  S   UNL     1       3.330   1.850   0.113  0.00  0.00    -0.072 S 
ATOM      8  C   UNL     1       2.034   0.639   0.100  0.00  0.00    +0.115 A 
ATOM      9  N   UNL     1       1.990  -0.679   0.081  0.00  0.00    -0.214 NA
ATOM     10  C   UNL     1       2.776   4.741   0.157  0.00  0.00    +0.126 C 
ATOM     11  N   UNL     1       1.619   5.590  -0.182  0.00  0.00    -0.300 NA
ATOM     12  C   UNL     1       0.448   5.217   0.625  0.00  0.00    +0.089 C 
ATOM     13  C   UNL     1      -0.098   3.864   0.161  0.00  0.00    +0.052 C 
ATOM     14  C   UNL     1       1.942   7.013  -0.013  0.00  0.00    +0.105 C 
ATOM     15  N   UNL     1      -1.575   1.347   0.115  0.00  0.00    -0.343 N 
ATOM     16  H   UNL     1      -1.601   2.447   0.132  0.00  0.00    +0.144 HD
ATOM     17  H   UNL     1      -2.515   0.775   0.105  0.00  0.00    +0.144 HD
ENDROOT
BRANCH   1  18
ATOM     18  S   UNL     1       0.792  -3.071   0.049  0.00  0.00    -0.077 S 
BRANCH  18  19
ATOM     19  C   UNL     1      -0.996  -3.353   0.050  0.00  0.00    +0.173 C 
BRANCH  19  21
ATOM     20  N   UNL     1      -2.540  -5.285   0.026  0.00  0.00    -0.285 N 
ATOM     21  C   UNL     1      -1.270  -4.835   0.029  0.00  0.00    +0.227 C 
ATOM     22  O   UNL     1      -0.348  -5.622   0.015  0.00  0.00    -0.275 OA
ATOM     23  H   UNL     1      -3.376  -4.574  -0.051  0.00  0.00    +0.155 HD
BRANCH  20  28
ATOM     24  C   UNL     1      -3.579 -10.849   0.410  0.00  0.00    +0.044 C 
ATOM     25  C   UNL     1      -3.303  -9.371   0.308  0.00  0.00    -0.050 A 
ATOM     26  C   UNL     1      -2.228  -8.822   0.983  0.00  0.00    +0.005 A 
ATOM     27  C   UNL     1      -1.973  -7.468   0.892  0.00  0.00    +0.023 A 
ATOM     28  C   UNL     1      -2.796  -6.658   0.121  0.00  0.00    +0.033 A 
ATOM     29  C   UNL     1      -3.878  -7.212  -0.551  0.00  0.00    +0.023 A 
ATOM     30  C   UNL     1      -4.125  -8.568  -0.460  0.00  0.00    +0.005 A 
ENDBRANCH  20  28
ENDBRANCH  19  21
ENDBRANCH  18  19
ENDBRANCH   1  18
TORSDOF 4
