REMARK  Name = ZINC22302531
REMARK  7 active torsions:
REMARK  status: ('A' for Active; 'I' for Inactive)
REMARK    1  A    between atoms: C_1  and  C_2
REMARK    2  A    between atoms: N_5  and  C_11
REMARK    3  A    between atoms: C_7  and  C_10
REMARK    4  A    between atoms: C_11  and  C_12
REMARK    5  A    between atoms: C_18  and  C_20
REMARK    6  A    between atoms: C_20  and  N_21
REMARK    7  A    between atoms: C_22  and  C_24
REMARK                            x       y       z     vdW  Elec       q    Type
REMARK                         _______ _______ _______ _____ _____    ______ ____
ROOT
ATOM      1  C   UNL     1      -2.696  -4.052  -0.132  0.00  0.00    +0.064 A 
ATOM      2  C   UNL     1      -2.750  -4.892   0.931  0.00  0.00    +0.073 A 
ATOM      3  S   UNL     1      -2.624  -6.473   0.112  0.00  0.00    -0.060 S 
ATOM      4  C   UNL     1      -2.517  -5.908  -1.470  0.00  0.00    +0.165 A 
ATOM      5  N   UNL     1      -2.583  -4.602  -1.326  0.00  0.00    -0.228 NA
ATOM      6  N   UNL     1      -2.393  -6.643  -2.643  0.00  0.00    -0.263 N 
ATOM      7  C   UNL     1      -2.346  -7.989  -2.593  0.00  0.00    +0.236 C 
ATOM      8  O   UNL     1      -2.412  -8.559  -1.525  0.00  0.00    -0.274 OA
ATOM      9  H   UNL     1      -2.341  -6.188  -3.498  0.00  0.00    +0.157 HD
ENDROOT
BRANCH   1  10
ATOM     10  C   UNL     1      -2.768  -2.557   0.042  0.00  0.00    +0.140 C 
BRANCH  10  14
ATOM     11  C   UNL     1      -0.019   1.526   0.010  0.00  0.00    +0.039 C 
ATOM     12  C   UNL     1       0.002  -0.004   0.002  0.00  0.00    +0.130 C 
ATOM     13  C   UNL     1      -1.434  -0.535   0.015  0.00  0.00    +0.116 C 
ATOM     14  N   UNL     1      -1.407  -2.003   0.085  0.00  0.00    -0.292 NA
ATOM     15  C   UNL     1      -0.692  -2.455   1.287  0.00  0.00    +0.116 C 
ATOM     16  C   UNL     1       0.736  -1.905   1.261  0.00  0.00    +0.130 C 
ATOM     17  O   UNL     1       0.692  -0.479   1.161  0.00  0.00    -0.371 OA
ATOM     18  C   UNL     1       1.461  -2.305   2.548  0.00  0.00    +0.039 C 
ENDBRANCH  10  14
ENDBRANCH   1  10
BRANCH   7  19
ATOM     19  C   UNL     1      -2.212  -8.786  -3.865  0.00  0.00    +0.200 C 
BRANCH  19  20
ATOM     20  N   UNL     1      -2.184 -10.216  -3.545  0.00  0.00    -0.303 N 
ATOM     21  C   UNL     1      -2.069 -11.125  -4.533  0.00  0.00    +0.244 C 
ATOM     22  O   UNL     1      -1.989 -10.759  -5.690  0.00  0.00    -0.270 OA
ATOM     23  H   UNL     1      -2.248 -10.508  -2.623  0.00  0.00    +0.150 HD
BRANCH  21  24
ATOM     24  C   UNL     1      -2.041 -12.567  -4.211  0.00  0.00    +0.037 A 
ATOM     25  C   UNL     1      -2.140 -12.985  -2.871  0.00  0.00    +0.013 A 
ATOM     26  C   UNL     1      -2.116 -14.303  -2.549  0.00  0.00    +0.009 A 
ATOM     27  C   UNL     1      -1.990 -15.272  -3.562  0.00  0.00    -0.018 A 
ATOM     28  C   UNL     1      -1.964 -16.642  -3.253  0.00  0.00    +0.008 A 
ATOM     29  C   UNL     1      -1.842 -17.557  -4.254  0.00  0.00    +0.001 A 
ATOM     30  C   UNL     1      -1.742 -17.157  -5.585  0.00  0.00    +0.001 A 
ATOM     31  C   UNL     1      -1.764 -15.838  -5.923  0.00  0.00    +0.008 A 
ATOM     32  C   UNL     1      -1.890 -14.864  -4.916  0.00  0.00    -0.017 A 
ATOM     33  C   UNL     1      -1.922 -13.497  -5.230  0.00  0.00    +0.021 A 
ENDBRANCH  21  24
ENDBRANCH  19  20
ENDBRANCH   7  19
TORSDOF 5
