REMARK  Name = ZINC35729406
REMARK  13 active torsions:
REMARK  status: ('A' for Active; 'I' for Inactive)
REMARK    1  A    between atoms: C_1  and  C_2
REMARK    2  A    between atoms: C_2  and  C_3
REMARK    3  A    between atoms: C_3  and  C_4
REMARK    4  A    between atoms: C_4  and  O_5
REMARK    5  A    between atoms: O_5  and  C_6
REMARK    6  A    between atoms: C_9  and  C_12
REMARK    7  A    between atoms: N_14  and  C_15
REMARK    8  A    between atoms: C_15  and  C_17
REMARK    9  A    between atoms: C_15  and  C_22
REMARK   10  A    between atoms: C_17  and  C_19
REMARK   11  A    between atoms: C_17  and  C_20
REMARK   12  A    between atoms: C_20  and  C_21
REMARK   13  A    between atoms: C_28  and  C_30
REMARK                            x       y       z     vdW  Elec       q    Type
REMARK                         _______ _______ _______ _____ _____    ______ ____
ROOT
ATOM      1  C   UNL     1       2.767  -9.767  -4.313  0.00  0.00    +0.162 C 
ENDROOT
BRANCH   1   2
ATOM      2  C   UNL     1       3.933 -10.133  -5.194  0.00  0.00    +0.239 C 
ATOM      3  O   UNL     1       4.651  -9.264  -5.641  0.00  0.00    -0.273 OA
ATOM      4  N   UNL     1       4.179 -11.426  -5.485  0.00  0.00    -0.262 N 
ATOM      5  C   UNL     1       5.313 -11.772  -6.209  0.00  0.00    +0.188 A 
ATOM      6  N   UNL     1       6.277 -11.005  -6.702  0.00  0.00    -0.125 NA
ATOM      7  N   UNL     1       7.250 -11.486  -7.344  0.00  0.00    -0.140 NA
ATOM      8  C   UNL     1       7.367 -12.790  -7.566  0.00  0.00    +0.134 A 
ATOM      9  S   UNL     1       5.894 -13.381  -6.738  0.00  0.00    -0.030 S 
ATOM     10  H   UNL     1       3.564 -12.115  -5.188  0.00  0.00    +0.157 HD
BRANCH   8  11
ATOM     11  C   UNL     1       8.418 -13.540  -8.286  0.00  0.00    +0.013 A 
ATOM     12  C   UNL     1       8.332 -14.928  -8.402  0.00  0.00    +0.014 A 
ATOM     13  C   UNL     1       9.312 -15.626  -9.075  0.00  0.00    +0.050 A 
ATOM     14  C   UNL     1      10.387 -14.953  -9.638  0.00  0.00    +0.166 A 
ATOM     15  C   UNL     1      10.479 -13.566  -9.525  0.00  0.00    +0.167 A 
ATOM     16  C   UNL     1       9.496 -12.861  -8.857  0.00  0.00    +0.060 A 
ATOM     17  O   UNL     1      11.616 -13.152 -10.158  0.00  0.00    -0.453 OA
ATOM     18  C   UNL     1      12.427 -14.333 -10.303  0.00  0.00    +0.466 C 
ATOM     19  O   UNL     1      11.466 -15.405 -10.341  0.00  0.00    -0.453 OA
ENDBRANCH   8  11
ENDBRANCH   1   2
BRANCH   1  22
ATOM     20  C   UNL     1       2.395  -8.105  -2.570  0.00  0.00    +0.245 C 
ATOM     21  O   UNL     1       1.671  -8.902  -2.005  0.00  0.00    -0.270 OA
ATOM     22  N   UNL     1       2.991  -8.441  -3.731  0.00  0.00    -0.300 N 
ATOM     23  H   UNL     1       3.569  -7.805  -4.182  0.00  0.00    +0.150 HD
BRANCH  20  27
ATOM     24  C   UNL     1       3.046  -4.263  -0.884  0.00  0.00    +0.121 A 
ATOM     25  C   UNL     1       2.217  -5.172  -0.237  0.00  0.00    +0.046 A 
ATOM     26  C   UNL     1       2.003  -6.419  -0.781  0.00  0.00    +0.016 A 
ATOM     27  C   UNL     1       2.621  -6.769  -1.984  0.00  0.00    +0.037 A 
ATOM     28  C   UNL     1       3.453  -5.852  -2.631  0.00  0.00    +0.016 A 
ATOM     29  C   UNL     1       3.658  -4.605  -2.084  0.00  0.00    +0.046 A 
BRANCH  24  30
ATOM     30  O   UNL     1       3.254  -3.034  -0.345  0.00  0.00    -0.492 OA
BRANCH  30  31
ATOM     31  C   UNL     1       2.595  -2.748   0.890  0.00  0.00    +0.229 C 
BRANCH  31  32
ATOM     32  C   UNL     1       2.947  -1.328   1.339  0.00  0.00    +0.041 C 
BRANCH  32  34
ATOM     33  C   UNL     1       2.593   0.399   3.110  0.00  0.00    +0.004 C 
ATOM     34  C   UNL     1       2.241  -1.021   2.661  0.00  0.00    -0.000 C 
ENDBRANCH  32  34
ENDBRANCH  31  32
ENDBRANCH  30  31
ENDBRANCH  24  30
ENDBRANCH  20  27
ENDBRANCH   1  22
BRANCH   1  35
ATOM     35  C   UNL     1       1.484  -9.748  -5.147  0.00  0.00    +0.015 C 
ATOM     36  C   UNL     1       1.558  -8.613  -6.170  0.00  0.00    +0.010 C 
BRANCH  35  37
ATOM     37  C   UNL     1       0.281  -9.528  -4.227  0.00  0.00    +0.002 C 
ATOM     38  C   UNL     1       0.133 -10.725  -3.286  0.00  0.00    +0.004 C 
ENDBRANCH  35  37
ENDBRANCH   1  35
TORSDOF 10
