REMARK  Name = ZINC67560320
REMARK  7 active torsions:
REMARK  status: ('A' for Active; 'I' for Inactive)
REMARK    1  A    between atoms: C_1  and  C_2
REMARK    2  A    between atoms: C_7  and  C_10
REMARK    3  A    between atoms: N_18  and  C_19
REMARK    4  A    between atoms: N_23  and  C_24
REMARK    5  A    between atoms: C_24  and  C_25
REMARK    6  A    between atoms: C_25  and  C_26
REMARK    7  A    between atoms: C_25  and  C_27
REMARK                            x       y       z     vdW  Elec       q    Type
REMARK                         _______ _______ _______ _____ _____    ______ ____
ROOT
ATOM      1  C   UNL     1      -0.015   1.526   0.000  0.00  0.00    +0.039 C 
ATOM      2  C   UNL     1       0.005  -0.004  -0.008  0.00  0.00    +0.133 C 
ATOM      3  C   UNL     1      -1.432  -0.536   0.012  0.00  0.00    +0.140 C 
ATOM      4  N   UNL     1      -1.385  -1.995   0.193  0.00  0.00    -0.280 N 
ATOM      5  C   UNL     1      -0.570  -2.530   1.295  0.00  0.00    +0.145 C 
ATOM      6  C   UNL     1       0.826  -1.901   1.213  0.00  0.00    +0.166 C 
ATOM      7  O   UNL     1       0.699  -0.479   1.149  0.00  0.00    -0.366 OA
ATOM      8  C   UNL     1      -2.069  -2.818  -0.627  0.00  0.00    +0.308 C 
ATOM      9  O   UNL     1      -2.809  -2.356  -1.474  0.00  0.00    -0.252 OA
ATOM     10  N   UNL     1      -1.933  -4.154  -0.507  0.00  0.00    -0.254 N 
ATOM     11  H   UNL     1      -1.404  -4.525   0.216  0.00  0.00    +0.158 HD
ENDROOT
BRANCH   6  12
ATOM     12  C   UNL     1       1.622  -2.282   2.434  0.00  0.00    -0.017 A 
ATOM     13  C   UNL     1       1.423  -1.611   3.627  0.00  0.00    +0.006 A 
ATOM     14  C   UNL     1       2.153  -1.961   4.747  0.00  0.00    +0.000 A 
ATOM     15  C   UNL     1       3.082  -2.982   4.675  0.00  0.00    +0.000 A 
ATOM     16  C   UNL     1       3.281  -3.653   3.483  0.00  0.00    +0.000 A 
ATOM     17  C   UNL     1       2.548  -3.307   2.364  0.00  0.00    +0.006 A 
ENDBRANCH   6  12
BRANCH  10  18
ATOM     18  C   UNL     1      -2.554  -5.003  -1.423  0.00  0.00    +0.124 A 
ATOM     19  C   UNL     1      -3.317  -4.622  -2.484  0.00  0.00    +0.065 A 
ATOM     20  C   UNL     1      -3.744  -5.779  -3.142  0.00  0.00    +0.136 A 
ATOM     21  N   UNL     1      -3.261  -6.815  -2.506  0.00  0.00    -0.178 NA
ATOM     22  N   UNL     1      -2.502  -6.354  -1.423  0.00  0.00    -0.250 N 
BRANCH  22  23
ATOM     23  C   UNL     1      -1.783  -7.189  -0.457  0.00  0.00    +0.148 C 
BRANCH  23  24
ATOM     24  C   UNL     1      -2.707  -7.524   0.716  0.00  0.00    +0.004 C 
ATOM     25  C   UNL     1      -1.998  -8.496   1.661  0.00  0.00    +0.009 C 
ATOM     26  C   UNL     1      -3.057  -6.241   1.472  0.00  0.00    +0.009 C 
ENDBRANCH  23  24
ENDBRANCH  22  23
ENDBRANCH  10  18
TORSDOF 4
