REMARK  Name = ZINC28896352
REMARK  12 active torsions:
REMARK  status: ('A' for Active; 'I' for Inactive)
REMARK    1  A    between atoms: C_1  and  C_2
REMARK    2  A    between atoms: C_4  and  C_30
REMARK    3  A    between atoms: C_5  and  N_9
REMARK    4  A    between atoms: C_6  and  C_8
REMARK    5  A    between atoms: C_10  and  C_12
REMARK    6  A    between atoms: C_12  and  N_13
REMARK    7  A    between atoms: N_13  and  C_14
REMARK    8  A    between atoms: N_13  and  C_15
REMARK    9  A    between atoms: C_15  and  C_16
REMARK   10  A    between atoms: C_16  and  C_17
REMARK   11  A    between atoms: N_19  and  C_20
REMARK   12  A    between atoms: C_21  and  C_28
REMARK                            x       y       z     vdW  Elec       q    Type
REMARK                         _______ _______ _______ _____ _____    ______ ____
ROOT
ATOM      1  N   UNL     1      -6.002   2.896  -1.139  0.00  0.00    +0.384 N 
ATOM      2  C   UNL     1      -6.291   1.871  -0.128  0.00  0.00    -0.096 C 
ATOM      3  H   UNL     1      -5.590   2.390  -2.025  0.00  0.00    -0.082 HD
ENDROOT
BRANCH   1   4
ATOM      4  C   UNL     1      -4.993   3.846  -0.653  0.00  0.00    +0.018 C 
BRANCH   4   6
ATOM      5  N   UNL     1      -2.598   3.812  -0.036  0.00  0.00    -0.287 N 
ATOM      6  C   UNL     1      -3.676   3.135  -0.477  0.00  0.00    +0.201 C 
ATOM      7  O   UNL     1      -3.587   1.952  -0.732  0.00  0.00    -0.278 OA
ATOM      8  H   UNL     1      -2.696   4.864   0.271  0.00  0.00    +0.155 HD
BRANCH   5  13
ATOM      9  C   UNL     1       2.452   1.240   0.235  0.00  0.00    +0.044 C 
ATOM     10  C   UNL     1       1.110   1.923   0.163  0.00  0.00    -0.050 A 
ATOM     11  C   UNL     1       0.499   2.115  -1.062  0.00  0.00    +0.008 A 
ATOM     12  C   UNL     1      -0.728   2.745  -1.132  0.00  0.00    -0.029 A 
ATOM     13  C   UNL     1      -1.352   3.178   0.031  0.00  0.00    +0.039 A 
ATOM     14  C   UNL     1      -0.735   2.983   1.260  0.00  0.00    -0.029 A 
ATOM     15  C   UNL     1       0.494   2.356   1.322  0.00  0.00    +0.008 A 
ATOM     16  C   UNL     1      -1.406   3.456   2.523  0.00  0.00    +0.045 C 
ATOM     17  C   UNL     1      -1.391   2.960  -2.469  0.00  0.00    +0.045 C 
ENDBRANCH   5  13
ENDBRANCH   4   6
ENDBRANCH   1   4
BRANCH   1  18
ATOM     18  C   UNL     1      -7.228   3.593  -1.547  0.00  0.00    -0.069 C 
BRANCH  18  19
ATOM     19  C   UNL     1      -8.154   2.615  -2.274  0.00  0.00    +0.077 C 
BRANCH  19  20
ATOM     20  C   UNL     1      -9.412   3.331  -2.693  0.00  0.00    +0.216 C 
ATOM     21  O   UNL     1      -9.555   4.508  -2.435  0.00  0.00    -0.276 OA
ATOM     22  N   UNL     1     -10.379   2.663  -3.353  0.00  0.00    -0.279 N 
ATOM     23  H   UNL     1     -10.249   1.596  -3.587  0.00  0.00    +0.155 HD
BRANCH  22  24
ATOM     24  C   UNL     1     -11.538   3.323  -3.739  0.00  0.00    +0.090 A 
ATOM     25  C   UNL     1     -12.629   2.815  -4.422  0.00  0.00    +0.084 A 
ATOM     26  C   UNL     1     -13.735   3.728  -4.705  0.00  0.00    -0.018 A 
ATOM     27  C   UNL     1     -13.562   4.989  -4.269  0.00  0.00    -0.004 A 
ATOM     28  S   UNL     1     -11.966   4.981  -3.488  0.00  0.00    -0.077 S 
ATOM     29  C   UNL     1     -14.738   5.867  -4.599  0.00  0.00    +0.043 C 
ATOM     30  C   UNL     1     -15.879   4.880  -4.931  0.00  0.00    +0.010 C 
ATOM     31  C   UNL     1     -15.095   3.638  -5.400  0.00  0.00    +0.037 C 
BRANCH  25  32
ATOM     32  C   UNL     1     -12.674   1.444  -4.834  0.00  0.00    +0.102 C 
ATOM     33  N   UNL     1     -12.710   0.357  -5.160  0.00  0.00    -0.191 NA
ENDBRANCH  25  32
ENDBRANCH  22  24
ENDBRANCH  19  20
ENDBRANCH  18  19
ENDBRANCH   1  18
TORSDOF 8
