REMARK  Name = ZINC16265964
REMARK  7 active torsions:
REMARK  status: ('A' for Active; 'I' for Inactive)
REMARK    1  A    between atoms: C_1  and  C_2
REMARK    2  A    between atoms: C_6  and  C_7
REMARK    3  A    between atoms: C_12  and  C_17
REMARK    4  A    between atoms: C_20  and  O_23
REMARK    5  A    between atoms: O_23  and  C_24
REMARK    6  A    between atoms: C_26  and  C_37
REMARK    7  A    between atoms: C_27  and  C_28
REMARK                            x       y       z     vdW  Elec       q    Type
REMARK                         _______ _______ _______ _____ _____    ______ ____
ROOT
ATOM      1  C   UNL     1      -9.258  -3.682   0.010  0.00  0.00    +0.097 C 
ATOM      2  C   UNL     1      -7.927  -2.979   0.093  0.00  0.00    +0.024 C 
ATOM      3  C   UNL     1      -7.197  -2.750  -1.019  0.00  0.00    +0.016 C 
ATOM      4  C   UNL     1      -5.873  -2.031  -0.945  0.00  0.00    +0.059 C 
ATOM      5  C   UNL     1      -5.205  -2.322   0.401  0.00  0.00    +0.032 C 
ATOM      6  C   UNL     1      -6.149  -1.869   1.520  0.00  0.00    +0.088 C 
ATOM      7  C   UNL     1      -7.471  -2.567   1.358  0.00  0.00    +0.162 C 
ATOM      8  O   UNL     1      -8.158  -2.778   2.338  0.00  0.00    -0.292 OA
ATOM      9  N   UNL     1      -7.645  -3.171  -2.242  0.00  0.00    -0.321 N 
ATOM     10  C   UNL     1      -8.605  -4.139  -2.338  0.00  0.00    +0.014 C 
ATOM     11  C   UNL     1      -9.396  -4.420  -1.289  0.00  0.00    +0.044 C 
ATOM     12  C   UNL     1      -8.777  -4.897  -3.629  0.00  0.00    +0.061 C 
ATOM     13  H   UNL     1      -7.231  -2.729  -3.161  0.00  0.00    +0.152 HD
ENDROOT
BRANCH  11  14
ATOM     14  C   UNL     1     -10.379  -5.433  -1.412  0.00  0.00    +0.248 C 
ATOM     15  O   UNL     1     -10.199  -6.521  -0.898  0.00  0.00    -0.270 OA
ATOM     16  N   UNL     1     -11.514  -5.190  -2.098  0.00  0.00    -0.267 N 
ATOM     17  C   UNL     1     -12.434  -6.215  -2.305  0.00  0.00    +0.125 A 
ATOM     18  C   UNL     1     -13.546  -5.990  -3.110  0.00  0.00    +0.044 A 
ATOM     19  C   UNL     1     -14.450  -7.019  -3.312  0.00  0.00    +0.005 A 
ATOM     20  C   UNL     1     -14.215  -8.238  -2.690  0.00  0.00    +0.020 A 
ATOM     21  C   UNL     1     -13.094  -8.389  -1.900  0.00  0.00    +0.113 A 
ATOM     22  N   UNL     1     -12.246  -7.392  -1.730  0.00  0.00    -0.240 NA
ATOM     23  H   UNL     1     -11.713  -4.184  -2.494  0.00  0.00    +0.157 HD
ENDBRANCH  11  14
BRANCH   1  29
ATOM     24  C   UNL     1     -11.583  -3.710   2.017  0.00  0.00    +0.044 C 
ATOM     25  C   UNL     1     -11.408  -2.627   0.983  0.00  0.00    -0.039 A 
ATOM     26  C   UNL     1     -12.310  -1.584   0.900  0.00  0.00    +0.011 A 
ATOM     27  C   UNL     1     -12.124  -0.627  -0.042  0.00  0.00    +0.046 A 
ATOM     28  S   UNL     1     -10.633  -1.187  -0.847  0.00  0.00    -0.100 S 
ATOM     29  C   UNL     1     -10.364  -2.664   0.120  0.00  0.00    +0.005 A 
ENDBRANCH   1  29
BRANCH   5  30
ATOM     30  C   UNL     1      -3.906  -1.563   0.496  0.00  0.00    -0.043 A 
ATOM     31  C   UNL     1      -2.717  -2.249   0.663  0.00  0.00    +0.007 A 
ATOM     32  C   UNL     1      -1.525  -1.556   0.750  0.00  0.00    +0.046 A 
ATOM     33  C   UNL     1      -1.522  -0.171   0.670  0.00  0.00    +0.120 A 
ATOM     34  C   UNL     1      -2.717   0.515   0.508  0.00  0.00    +0.046 A 
ATOM     35  C   UNL     1      -3.905  -0.183   0.415  0.00  0.00    +0.007 A 
BRANCH  33  36
ATOM     36  O   UNL     1      -0.351   0.513   0.756  0.00  0.00    -0.495 OA
ATOM     37  C   UNL     1      -0.423   1.937   0.665  0.00  0.00    +0.277 C 
ENDBRANCH  33  36
ENDBRANCH   5  30
TORSDOF 4
