REMARK  Name = ZINC50439650
REMARK  4 active torsions:
REMARK  status: ('A' for Active; 'I' for Inactive)
REMARK    1  A    between atoms: C_1  and  C_2
REMARK    2  A    between atoms: C_4  and  N_19
REMARK    3  A    between atoms: C_5  and  N_9
REMARK    4  A    between atoms: C_7  and  C_8
REMARK                            x       y       z     vdW  Elec       q    Type
REMARK                         _______ _______ _______ _____ _____    ______ ____
ROOT
ATOM      1  C   UNL     1      -0.018   1.503   0.010  0.00  0.00    +0.044 C 
ATOM      2  C   UNL     1       0.002  -0.004   0.002  0.00  0.00    -0.046 A 
ATOM      3  C   UNL     1       0.006  -0.687  -1.200  0.00  0.00    +0.028 A 
ATOM      4  C   UNL     1       0.025  -2.074  -1.210  0.00  0.00    +0.047 A 
ATOM      5  C   UNL     1       0.040  -2.775  -0.004  0.00  0.00    +0.065 A 
ATOM      6  C   UNL     1       0.036  -2.082   1.196  0.00  0.00    +0.029 A 
ATOM      7  C   UNL     1       0.023  -0.700   1.197  0.00  0.00    -0.046 A 
ATOM      8  C   UNL     1       0.025   0.051   2.503  0.00  0.00    +0.044 C 
ENDROOT
BRANCH   5   9
ATOM      9  N   UNL     1       0.058  -4.179  -0.007  0.00  0.00    -0.208 N 
ATOM     10  C   UNL     1       1.194  -4.888  -0.008  0.00  0.00    +0.230 C 
ATOM     11  O   UNL     1       2.313  -4.422  -0.007  0.00  0.00    -0.275 OA
ATOM     12  C   UNL     1       0.859  -6.364  -0.011  0.00  0.00    +0.088 C 
ATOM     13  C   UNL     1       0.119  -6.945  -1.218  0.00  0.00    +0.027 C 
ATOM     14  C   UNL     1      -0.684  -6.384  -0.011  0.00  0.00    +0.088 C 
ATOM     15  C   UNL     1      -1.058  -4.918  -0.003  0.00  0.00    +0.230 C 
ATOM     16  O   UNL     1      -2.189  -4.482   0.004  0.00  0.00    -0.275 OA
ENDBRANCH   5   9
BRANCH   4  17
ATOM     17  N   UNL     1       0.028  -2.766  -2.424  0.00  0.00    -0.357 N 
ATOM     18  H   UNL     1       0.017  -2.277  -3.262  0.00  0.00    +0.142 HD
ATOM     19  H   UNL     1       0.041  -3.736  -2.429  0.00  0.00    +0.142 HD
ENDBRANCH   4  17
TORSDOF 2
