REMARK  Name = ZINC00906458
REMARK  12 active torsions:
REMARK  status: ('A' for Active; 'I' for Inactive)
REMARK    1  A    between atoms: C_1  and  C_2
REMARK    2  A    between atoms: C_5  and  C_7
REMARK    3  A    between atoms: C_7  and  C_9
REMARK    4  A    between atoms: C_7  and  N_18
REMARK    5  A    between atoms: N_11  and  C_12
REMARK    6  A    between atoms: N_18  and  C_19
REMARK    7  A    between atoms: C_19  and  C_20
REMARK    8  A    between atoms: C_27  and  C_29
REMARK    9  A    between atoms: C_29  and  N_30
REMARK   10  A    between atoms: C_32  and  C_35
REMARK   11  A    between atoms: C_38  and  O_41
REMARK   12  A    between atoms: O_41  and  C_42
REMARK                            x       y       z     vdW  Elec       q    Type
REMARK                         _______ _______ _______ _____ _____    ______ ____
ROOT
ATOM      1  N   UNL     1       2.689  -2.970   0.933  0.00  0.00    -0.278 N 
ATOM      2  C   UNL     1       2.970  -3.862   1.904  0.00  0.00    +0.240 C 
ATOM      3  O   UNL     1       2.373  -4.917   1.950  0.00  0.00    -0.273 OA
ENDROOT
BRANCH   1   4
ATOM      4  C   UNL     1       1.589  -3.225   0.001  0.00  0.00    +0.228 C 
BRANCH   4   9
ATOM      5  C   UNL     1       3.059  -7.884  -1.254  0.00  0.00    +0.086 C 
ATOM      6  C   UNL     1       2.541  -6.474  -1.369  0.00  0.00    +0.102 A 
ATOM      7  C   UNL     1       2.159  -5.866  -2.506  0.00  0.00    +0.045 A 
ATOM      8  C   UNL     1       1.747  -4.560  -2.155  0.00  0.00    +0.047 A 
ATOM      9  C   UNL     1       1.902  -4.448  -0.823  0.00  0.00    +0.135 A 
ATOM     10  O   UNL     1       2.377  -5.612  -0.352  0.00  0.00    -0.462 OA
ENDBRANCH   4   9
BRANCH   4  11
ATOM     11  C   UNL     1       0.316  -3.454   0.775  0.00  0.00    +0.241 C 
ATOM     12  O   UNL     1       0.328  -3.408   1.987  0.00  0.00    -0.273 OA
ATOM     13  N   UNL     1      -0.834  -3.709   0.121  0.00  0.00    -0.311 N 
ATOM     14  H   UNL     1      -0.843  -3.746  -0.848  0.00  0.00    +0.149 HD
BRANCH  13  15
ATOM     15  C   UNL     1      -2.071  -3.931   0.874  0.00  0.00    +0.073 C 
ATOM     16  C   UNL     1      -2.156  -5.400   1.294  0.00  0.00    +0.022 C 
ATOM     17  C   UNL     1      -3.447  -5.631   2.081  0.00  0.00    +0.002 C 
ATOM     18  C   UNL     1      -4.650  -5.283   1.201  0.00  0.00    +0.000 C 
ATOM     19  C   UNL     1      -4.565  -3.814   0.780  0.00  0.00    +0.002 C 
ATOM     20  C   UNL     1      -3.273  -3.583  -0.006  0.00  0.00    +0.022 C 
ENDBRANCH  13  15
ENDBRANCH   4  11
ENDBRANCH   1   4
BRANCH   1  21
ATOM     21  C   UNL     1       3.484  -1.746   0.811  0.00  0.00    +0.144 C 
BRANCH  21  22
ATOM     22  C   UNL     1       2.787  -0.620   1.530  0.00  0.00    -0.030 A 
ATOM     23  C   UNL     1       1.791   0.095   0.891  0.00  0.00    +0.008 A 
ATOM     24  C   UNL     1       1.151   1.128   1.550  0.00  0.00    +0.038 A 
ATOM     25  C   UNL     1       1.508   1.446   2.849  0.00  0.00    +0.123 A 
ATOM     26  C   UNL     1       2.505   0.729   3.488  0.00  0.00    +0.038 A 
ATOM     27  C   UNL     1       3.140  -0.307   2.829  0.00  0.00    +0.008 A 
ATOM     28  F   UNL     1       0.883   2.456   3.494  0.00  0.00    -0.205 F 
ENDBRANCH  21  22
ENDBRANCH   1  21
BRANCH   2  29
ATOM     29  C   UNL     1       4.024  -3.547   2.934  0.00  0.00    +0.264 C 
BRANCH  29  30
ATOM     30  N   UNL     1       4.230  -4.715   3.794  0.00  0.00    -0.154 N 
ATOM     31  N   UNL     1       3.588  -4.960   4.884  0.00  0.00    -0.130 NA
ATOM     32  C   UNL     1       4.046  -6.094   5.376  0.00  0.00    +0.205 A 
ATOM     33  N   UNL     1       4.996  -6.522   4.533  0.00  0.00    -0.108 NA
ATOM     34  N   UNL     1       5.077  -5.660   3.578  0.00  0.00    -0.045 NA
BRANCH  32  35
ATOM     35  C   UNL     1       3.599  -6.765   6.622  0.00  0.00    +0.023 A 
ATOM     36  C   UNL     1       2.590  -6.197   7.397  0.00  0.00    +0.015 A 
ATOM     37  C   UNL     1       2.175  -6.823   8.554  0.00  0.00    +0.046 A 
ATOM     38  C   UNL     1       2.763  -8.018   8.947  0.00  0.00    +0.120 A 
ATOM     39  C   UNL     1       3.768  -8.586   8.177  0.00  0.00    +0.046 A 
ATOM     40  C   UNL     1       4.182  -7.968   7.016  0.00  0.00    +0.015 A 
BRANCH  38  41
ATOM     41  O   UNL     1       2.353  -8.632  10.088  0.00  0.00    -0.495 OA
ATOM     42  C   UNL     1       3.000  -9.859  10.432  0.00  0.00    +0.277 C 
ENDBRANCH  38  41
ENDBRANCH  32  35
ENDBRANCH  29  30
ENDBRANCH   2  29
TORSDOF 10
