REMARK  Name = ZINC24743115
REMARK  7 active torsions:
REMARK  status: ('A' for Active; 'I' for Inactive)
REMARK    1  A    between atoms: C_1  and  C_2
REMARK    2  A    between atoms: C_3  and  C_12
REMARK    3  A    between atoms: C_6  and  C_8
REMARK    4  A    between atoms: C_17  and  C_21
REMARK    5  A    between atoms: C_18  and  C_20
REMARK    6  A    between atoms: C_24  and  O_27
REMARK    7  A    between atoms: O_27  and  C_28
REMARK                            x       y       z     vdW  Elec       q    Type
REMARK                         _______ _______ _______ _____ _____    ______ ____
ROOT
ATOM      1  C   UNL     1      -0.228   0.047  -2.483  0.00  0.00    +0.251 C 
ATOM      2  O   UNL     1      -0.155   1.260  -2.493  0.00  0.00    -0.270 OA
ATOM      3  N   UNL     1      -0.427  -0.625  -3.634  0.00  0.00    -0.261 N 
ATOM      4  C   UNL     1      -0.548   0.068  -4.831  0.00  0.00    +0.165 A 
ATOM      5  N   UNL     1      -0.749  -0.398  -6.050  0.00  0.00    -0.224 NA
ATOM      6  C   UNL     1      -0.840   0.416  -7.091  0.00  0.00    +0.083 A 
ATOM      7  C   UNL     1      -0.723   1.764  -6.900  0.00  0.00    +0.016 A 
ATOM      8  S   UNL     1      -0.480   1.829  -5.130  0.00  0.00    -0.057 S 
ATOM      9  C   UNL     1      -0.788   2.887  -7.904  0.00  0.00    +0.054 C 
ATOM     10  H   UNL     1      -0.486  -1.593  -3.626  0.00  0.00    +0.157 HD
ENDROOT
BRANCH   1  13
ATOM     11  C   UNL     1      -0.073   1.502   0.015  0.00  0.00    +0.066 C 
ATOM     12  C   UNL     1      -0.024  -0.005   0.004  0.00  0.00    +0.051 A 
ATOM     13  C   UNL     1      -0.100  -0.691  -1.209  0.00  0.00    +0.058 A 
ATOM     14  C   UNL     1      -0.053  -2.090  -1.198  0.00  0.00    +0.017 A 
ATOM     15  C   UNL     1       0.067  -2.733   0.021  0.00  0.00    +0.033 A 
ATOM     16  C   UNL     1       0.137  -1.980   1.179  0.00  0.00    +0.144 A 
ATOM     17  N   UNL     1       0.096  -0.662   1.139  0.00  0.00    -0.247 NA
BRANCH  16  18
ATOM     18  C   UNL     1       0.267  -2.677   2.509  0.00  0.00    +0.434 C 
ATOM     19  F   UNL     1       1.622  -2.850   2.814  0.00  0.00    -0.164 F 
ATOM     20  F   UNL     1      -0.339  -1.902   3.503  0.00  0.00    -0.164 F 
ATOM     21  F   UNL     1      -0.359  -3.926   2.445  0.00  0.00    -0.164 F 
ENDBRANCH  16  18
ENDBRANCH   1  13
BRANCH   6  22
ATOM     22  C   UNL     1      -1.065  -0.131  -8.451  0.00  0.00    +0.001 A 
ATOM     23  C   UNL     1      -1.841   0.576  -9.368  0.00  0.00    +0.013 A 
ATOM     24  C   UNL     1      -2.048   0.065 -10.633  0.00  0.00    +0.046 A 
ATOM     25  C   UNL     1      -1.486  -1.152 -10.992  0.00  0.00    +0.127 A 
ATOM     26  C   UNL     1      -0.713  -1.859 -10.081  0.00  0.00    +0.046 A 
ATOM     27  C   UNL     1      -0.497  -1.350  -8.817  0.00  0.00    +0.013 A 
BRANCH  25  28
ATOM     28  O   UNL     1      -1.692  -1.653 -12.238  0.00  0.00    -0.434 OA
BRANCH  28  29
ATOM     29  C   UNL     1      -1.084  -2.910 -12.541  0.00  0.00    +0.541 C 
ATOM     30  F   UNL     1       0.304  -2.801 -12.405  0.00  0.00    -0.166 F 
ATOM     31  F   UNL     1      -1.564  -3.885 -11.660  0.00  0.00    -0.166 F 
ENDBRANCH  28  29
ENDBRANCH  25  28
ENDBRANCH   6  22
TORSDOF 5
