REMARK  Name = ZINC42951571
REMARK  9 active torsions:
REMARK  status: ('A' for Active; 'I' for Inactive)
REMARK    1  A    between atoms: C_1  and  C_2
REMARK    2  A    between atoms: C_7  and  S_15
REMARK    3  A    between atoms: S_15  and  C_16
REMARK    4  A    between atoms: C_16  and  C_18
REMARK    5  A    between atoms: C_16  and  C_21
REMARK    6  A    between atoms: C_18  and  C_19
REMARK    7  A    between atoms: C_18  and  C_20
REMARK    8  A    between atoms: N_23  and  C_24
REMARK    9  A    between atoms: C_24  and  C_25
REMARK                            x       y       z     vdW  Elec       q    Type
REMARK                         _______ _______ _______ _____ _____    ______ ____
ROOT
ATOM      1  S   UNL     1       0.169  -5.431   0.638  0.00  0.00    -0.073 S 
ENDROOT
BRANCH   1   8
ATOM      2  C   UNL     1       4.818  -2.453   5.017  0.00  0.00    +0.044 C 
ATOM      3  C   UNL     1       3.935  -3.210   4.059  0.00  0.00    -0.038 A 
ATOM      4  C   UNL     1       4.356  -4.373   3.513  0.00  0.00    +0.052 A 
ATOM      5  C   UNL     1       3.526  -5.083   2.613  0.00  0.00    +0.162 A 
ATOM      6  N   UNL     1       3.691  -6.215   1.955  0.00  0.00    -0.129 NA
ATOM      7  N   UNL     1       2.647  -6.465   1.247  0.00  0.00    -0.122 NA
ATOM      8  C   UNL     1       1.752  -5.515   1.406  0.00  0.00    +0.197 A 
ATOM      9  N   UNL     1       2.278  -4.607   2.277  0.00  0.00    -0.270 N 
ATOM     10  C   UNL     1       1.804  -3.421   2.811  0.00  0.00    +0.058 A 
ATOM     11  C   UNL     1       2.605  -2.697   3.712  0.00  0.00    +0.002 A 
ATOM     12  C   UNL     1       2.131  -1.502   4.259  0.00  0.00    +0.010 A 
ATOM     13  C   UNL     1       0.878  -1.045   3.915  0.00  0.00    +0.001 A 
ATOM     14  C   UNL     1       0.087  -1.763   3.031  0.00  0.00    +0.002 A 
ATOM     15  C   UNL     1       0.547  -2.938   2.473  0.00  0.00    +0.027 A 
ENDBRANCH   1   8
BRANCH   1  16
ATOM     16  C   UNL     1       0.151  -6.855  -0.486  0.00  0.00    +0.142 C 
BRANCH  16  17
ATOM     17  C   UNL     1       0.159  -8.130   0.317  0.00  0.00    +0.227 C 
ATOM     18  O   UNL     1      -0.270  -8.134   1.452  0.00  0.00    -0.275 OA
ATOM     19  N   UNL     1       0.642  -9.265  -0.225  0.00  0.00    -0.307 N 
ATOM     20  H   UNL     1       0.985  -9.262  -1.132  0.00  0.00    +0.149 HD
BRANCH  19  21
ATOM     21  C   UNL     1       0.649 -10.504   0.557  0.00  0.00    +0.178 C 
BRANCH  21  22
ATOM     22  C   UNL     1       1.236 -11.617  -0.272  0.00  0.00    +0.122 A 
ATOM     23  C   UNL     1       2.537 -11.958  -0.324  0.00  0.00    +0.046 A 
ATOM     24  C   UNL     1       2.639 -13.047  -1.220  0.00  0.00    +0.041 A 
ATOM     25  C   UNL     1       1.396 -13.306  -1.662  0.00  0.00    +0.195 A 
ATOM     26  O   UNL     1       0.549 -12.441  -1.080  0.00  0.00    -0.466 OA
ENDBRANCH  21  22
ENDBRANCH  19  21
ENDBRANCH  16  17
BRANCH  16  27
ATOM     27  C   UNL     1      -1.110  -6.805  -1.352  0.00  0.00    +0.005 C 
ATOM     28  C   UNL     1      -1.114  -5.514  -2.173  0.00  0.00    +0.009 C 
ATOM     29  C   UNL     1      -1.129  -8.010  -2.295  0.00  0.00    +0.009 C 
ENDBRANCH  16  27
ENDBRANCH   1  16
TORSDOF 6
