REMARK  Name = ZINC63478240
REMARK  7 active torsions:
REMARK  status: ('A' for Active; 'I' for Inactive)
REMARK    1  A    between atoms: C_5  and  C_7
REMARK    2  A    between atoms: N_11  and  C_15
REMARK    3  A    between atoms: C_15  and  C_16
REMARK    4  A    between atoms: C_16  and  C_17
REMARK    5  A    between atoms: N_19  and  C_20
REMARK    6  A    between atoms: C_20  and  C_21
REMARK    7  A    between atoms: C_21  and  C_22
REMARK                            x       y       z     vdW  Elec       q    Type
REMARK                         _______ _______ _______ _____ _____    ______ ____
ROOT
ATOM      1  C   UNL     1      -1.661  -6.551   1.900  0.00  0.00    +0.115 C 
ENDROOT
BRANCH   1   2
ATOM      2  C   UNL     1      -1.943  -8.026   2.025  0.00  0.00    +0.215 C 
ATOM      3  O   UNL     1      -2.108  -8.698   1.029  0.00  0.00    -0.276 OA
ATOM      4  N   UNL     1      -2.012  -8.598   3.243  0.00  0.00    -0.315 N 
ATOM      5  H   UNL     1      -1.880  -8.060   4.040  0.00  0.00    +0.149 HD
BRANCH   4   6
ATOM      6  C   UNL     1      -2.286 -10.032   3.365  0.00  0.00    +0.108 C 
BRANCH   6   7
ATOM      7  C   UNL     1      -2.310 -10.423   4.843  0.00  0.00    +0.052 C 
BRANCH   7   8
ATOM      8  C   UNL     1      -2.592 -11.899   4.968  0.00  0.00    -0.040 C 
ATOM      9  C   UNL     1      -1.683 -12.892   5.098  0.00  0.00    -0.001 A 
ATOM     10  C   UNL     1      -0.217 -12.896   5.159  0.00  0.00    +0.010 A 
ATOM     11  C   UNL     1       0.431 -14.075   5.295  0.00  0.00    +0.001 A 
ATOM     12  C   UNL     1      -0.262 -15.291   5.378  0.00  0.00    +0.002 A 
ATOM     13  C   UNL     1      -1.608 -15.368   5.330  0.00  0.00    +0.026 A 
ATOM     14  C   UNL     1      -2.391 -14.189   5.189  0.00  0.00    +0.043 A 
ATOM     15  N   UNL     1      -3.687 -14.005   5.118  0.00  0.00    -0.380 N 
ATOM     16  C   UNL     1      -3.948 -12.568   4.980  0.00  0.00    +0.144 C 
ATOM     17  H   UNL     1      -4.361 -14.701   5.155  0.00  0.00    +0.160 HD
ENDBRANCH   7   8
ENDBRANCH   6   7
ENDBRANCH   4   6
ENDBRANCH   1   2
BRANCH   1  18
ATOM     18  C   UNL     1      -1.637  -6.159   0.421  0.00  0.00    +0.127 C 
BRANCH  18  23
ATOM     19  C   UNL     1       1.254  -2.153  -0.022  0.00  0.00    +0.031 C 
ATOM     20  C   UNL     1       0.099  -2.855   0.087  0.00  0.00    +0.080 C 
ATOM     21  C   UNL     1      -0.110  -4.312   0.208  0.00  0.00    +0.260 C 
ATOM     22  O   UNL     1       0.823  -5.093   0.221  0.00  0.00    -0.269 OA
ATOM     23  N   UNL     1      -1.363  -4.725   0.300  0.00  0.00    -0.228 N 
ATOM     24  C   UNL     1      -2.394  -3.857   0.285  0.00  0.00    +0.286 C 
ATOM     25  O   UNL     1      -3.584  -4.096   0.362  0.00  0.00    -0.262 OA
ATOM     26  S   UNL     1      -1.590  -2.270   0.134  0.00  0.00    -0.026 S 
BRANCH  19  31
ATOM     27  C   UNL     1       0.023   1.238  -1.042  0.00  0.00    +0.001 A 
ATOM     28  C   UNL     1       1.138   2.018  -0.785  0.00  0.00    +0.003 A 
ATOM     29  C   UNL     1       2.291   1.445  -0.281  0.00  0.00    +0.039 A 
ATOM     30  C   UNL     1       2.339   0.087  -0.029  0.00  0.00    +0.131 A 
ATOM     31  C   UNL     1       1.214  -0.708  -0.286  0.00  0.00    +0.011 A 
ATOM     32  C   UNL     1       0.052  -0.118  -0.796  0.00  0.00    +0.011 A 
ATOM     33  F   UNL     1       3.466  -0.472   0.463  0.00  0.00    -0.205 F 
ENDBRANCH  19  31
ENDBRANCH  18  23
ENDBRANCH   1  18
TORSDOF 7
