REMARK  Name = ZINC05620241
REMARK  10 active torsions:
REMARK  status: ('A' for Active; 'I' for Inactive)
REMARK    1  A    between atoms: C_1  and  C_2
REMARK    2  A    between atoms: C_8  and  N_10
REMARK    3  A    between atoms: C_11  and  C_13
REMARK    4  A    between atoms: C_13  and  C_15
REMARK    5  A    between atoms: C_13  and  O_16
REMARK    6  A    between atoms: O_16  and  C_17
REMARK    7  A    between atoms: C_17  and  C_19
REMARK    8  A    between atoms: C_21  and  N_27
REMARK    9  A    between atoms: C_24  and  N_25
REMARK   10  A    between atoms: N_25  and  C_26
REMARK                            x       y       z     vdW  Elec       q    Type
REMARK                         _______ _______ _______ _____ _____    ______ ____
ROOT
ATOM      1  O   UNL     1      -5.618   0.730  -2.042  0.00  0.00    -0.449 OA
ENDROOT
BRANCH   1   2
ATOM      2  C   UNL     1      -4.203   0.595  -2.339  0.00  0.00    +0.259 C 
ATOM      3  C   UNL     1      -4.013  -0.423  -3.466  0.00  0.00    +0.062 C 
BRANCH   2   5
ATOM      4  N   UNL     1      -2.130   0.021  -1.117  0.00  0.00    -0.309 N 
ATOM      5  C   UNL     1      -3.474   0.122  -1.107  0.00  0.00    +0.254 C 
ATOM      6  O   UNL     1      -4.097  -0.167  -0.108  0.00  0.00    -0.272 OA
ATOM      7  H   UNL     1      -1.632   0.253  -1.916  0.00  0.00    +0.149 HD
BRANCH   4  14
ATOM      8  C   UNL     1      -0.022   1.631   0.046  0.00  0.00    +0.009 C 
ATOM      9  C   UNL     1       0.010   0.102   0.065  0.00  0.00    +0.006 C 
ATOM     10  C   UNL     1       0.749  -0.378   1.315  0.00  0.00    +0.005 C 
ATOM     11  C   UNL     1       0.781  -1.907   1.334  0.00  0.00    +0.000 C 
ATOM     12  C   UNL     1      -0.650  -2.447   1.350  0.00  0.00    +0.002 C 
ATOM     13  C   UNL     1      -1.390  -1.968   0.099  0.00  0.00    +0.022 C 
ATOM     14  C   UNL     1      -1.422  -0.438   0.081  0.00  0.00    +0.076 C 
ENDBRANCH   4  14
ENDBRANCH   2   5
ENDBRANCH   1   2
BRANCH   1  15
ATOM     15  C   UNL     1      -6.300   1.669  -2.728  0.00  0.00    +0.342 C 
ATOM     16  O   UNL     1      -5.727   2.355  -3.551  0.00  0.00    -0.245 OA
BRANCH  15  17
ATOM     17  C   UNL     1      -7.738   1.863  -2.479  0.00  0.00    +0.082 A 
ATOM     18  C   UNL     1      -8.427   0.998  -1.624  0.00  0.00    +0.049 A 
ATOM     19  C   UNL     1      -9.773   1.185  -1.395  0.00  0.00    +0.127 A 
ATOM     20  C   UNL     1     -10.449   2.228  -2.010  0.00  0.00    +0.034 A 
ATOM     21  C   UNL     1      -9.784   3.089  -2.857  0.00  0.00    +0.026 A 
ATOM     22  C   UNL     1      -8.425   2.921  -3.095  0.00  0.00    +0.041 A 
BRANCH  22  23
ATOM     23  N   UNL     1      -7.753   3.790  -3.943  0.00  0.00    -0.346 N 
ATOM     24  C   UNL     1      -8.443   4.962  -4.489  0.00  0.00    +0.125 C 
ATOM     25  H   UNL     1      -6.825   3.623  -4.174  0.00  0.00    +0.146 HD
ENDBRANCH  22  23
BRANCH  19  26
ATOM     26  N   UNL     1     -10.500   0.268  -0.489  0.00  0.00    +0.056 N 
ATOM     27  O   UNL     1      -9.909  -0.649   0.052  0.00  0.00    -0.126 OA
ATOM     28  O   UNL     1     -11.689   0.431  -0.285  0.00  0.00    -0.126 OA
ENDBRANCH  19  26
ENDBRANCH  15  17
ENDBRANCH   1  15
TORSDOF 7
