REMARK  Name = ZINC15675643
REMARK  9 active torsions:
REMARK  status: ('A' for Active; 'I' for Inactive)
REMARK    1  A    between atoms: C_1  and  C_2
REMARK    2  A    between atoms: C_2  and  C_3
REMARK    3  A    between atoms: C_9  and  C_10
REMARK    4  A    between atoms: C_9  and  N_80
REMARK    5  A    between atoms: C_10  and  C_11
REMARK    6  A    between atoms: C_11  and  N_12
REMARK    7  A    between atoms: C_21  and  C_22
REMARK    8  A    between atoms: C_21  and  C_23
REMARK    9  A    between atoms: N_25  and  C_26
REMARK                            x       y       z     vdW  Elec       q    Type
REMARK                         _______ _______ _______ _____ _____    ______ ____
ROOT
ATOM      1  N   UNL     1       2.028  -0.184  -1.139  0.00  0.00    -0.281 N 
ATOM      2  C   UNL     1       1.867   1.151  -0.979  0.00  0.00    +0.264 C 
ATOM      3  O   UNL     1       2.801   1.880  -0.701  0.00  0.00    -0.268 OA
ATOM      4  C   UNL     1       0.506   1.671  -1.159  0.00  0.00    +0.109 A 
ATOM      5  C   UNL     1       0.051   2.953  -1.249  0.00  0.00    +0.079 A 
ATOM      6  C   UNL     1      -1.337   2.895  -1.442  0.00  0.00    +0.153 A 
ATOM      7  C   UNL     1      -1.705   1.549  -1.460  0.00  0.00    +0.088 A 
ATOM      8  N   UNL     1      -0.578   0.805  -1.279  0.00  0.00    -0.331 N 
ATOM      9  C   UNL     1      -0.413  -0.649  -1.200  0.00  0.00    +0.157 C 
ATOM     10  C   UNL     1       0.980  -1.025  -1.706  0.00  0.00    +0.128 C 
ATOM     11  C   UNL     1       1.263  -2.483  -1.339  0.00  0.00    +0.043 C 
ATOM     12  C   UNL     1      -3.106   1.528  -1.662  0.00  0.00    +0.067 A 
ATOM     13  C   UNL     1      -3.516   2.805  -1.749  0.00  0.00    +0.198 A 
ATOM     14  O   UNL     1      -2.460   3.625  -1.615  0.00  0.00    -0.461 OA
ENDROOT
BRANCH  10  15
ATOM     15  C   UNL     1       1.006  -0.889  -3.206  0.00  0.00    +0.238 C 
ATOM     16  O   UNL     1       0.801  -1.859  -3.906  0.00  0.00    -0.273 OA
ATOM     17  N   UNL     1       1.257   0.308  -3.771  0.00  0.00    -0.311 N 
ATOM     18  H   UNL     1       1.421   1.083  -3.211  0.00  0.00    +0.149 HD
BRANCH  17  19
ATOM     19  C   UNL     1       1.282   0.440  -5.230  0.00  0.00    +0.073 C 
ATOM     20  C   UNL     1       2.671   0.067  -5.752  0.00  0.00    +0.022 C 
ATOM     21  C   UNL     1       2.599  -0.183  -7.259  0.00  0.00    +0.002 C 
ATOM     22  C   UNL     1       1.364  -1.027  -7.578  0.00  0.00    +0.000 C 
ATOM     23  C   UNL     1       0.367  -0.188  -8.381  0.00  0.00    +0.000 C 
ATOM     24  C   UNL     1      -0.345   0.790  -7.444  0.00  0.00    +0.000 C 
ATOM     25  C   UNL     1       0.598   1.946  -7.102  0.00  0.00    +0.002 C 
ATOM     26  C   UNL     1       0.962   1.885  -5.617  0.00  0.00    +0.022 C 
ENDBRANCH  17  19
ENDBRANCH  10  15
BRANCH   1  27
ATOM     27  C   UNL     1       3.292  -0.801  -0.731  0.00  0.00    +0.107 C 
BRANCH  27  28
ATOM     28  C   UNL     1       4.267  -0.793  -1.909  0.00  0.00    +0.000 C 
BRANCH  28  29
ATOM     29  C   UNL     1       5.588  -1.438  -1.483  0.00  0.00    -0.077 C 
BRANCH  29  35
ATOM     30  C   UNL     1       7.721  -2.227  -2.313  0.00  0.00    -0.069 C 
ATOM     31  C   UNL     1       8.603  -2.316  -3.560  0.00  0.00    -0.015 C 
ATOM     32  C   UNL     1       9.004  -0.905  -3.998  0.00  0.00    -0.003 C 
ATOM     33  C   UNL     1       7.739  -0.082  -4.260  0.00  0.00    -0.019 C 
ATOM     34  C   UNL     1       6.882  -0.057  -2.992  0.00  0.00    -0.078 C 
ATOM     35  N   UNL     1       6.510  -1.443  -2.637  0.00  0.00    +0.382 N 
ATOM     36  H   UNL     1       6.037  -1.877  -3.439  0.00  0.00    -0.081 HD
BRANCH  30  38
ATOM     37  C   UNL     1       8.546  -4.450  -1.526  0.00  0.00    +0.002 C 
ATOM     38  C   UNL     1       7.301  -3.634  -1.883  0.00  0.00    -0.019 C 
ENDBRANCH  30  38
ENDBRANCH  29  35
ENDBRANCH  28  29
ENDBRANCH  27  28
ENDBRANCH   1  27
TORSDOF 7
