REMARK  Name = ZINC40987316
REMARK  6 active torsions:
REMARK  status: ('A' for Active; 'I' for Inactive)
REMARK    1  A    between atoms: C_3  and  C_6
REMARK    2  A    between atoms: C_6  and  N_7
REMARK    3  A    between atoms: N_7  and  C_8
REMARK    4  A    between atoms: C_8  and  C_9
REMARK    5  A    between atoms: C_15  and  C_17
REMARK    6  A    between atoms: C_19  and  C_22
REMARK                            x       y       z     vdW  Elec       q    Type
REMARK                         _______ _______ _______ _____ _____    ______ ____
ROOT
ATOM      1  N   UNL     1       4.110   0.614   1.361  0.00  0.00    -0.286 N 
ATOM      2  C   UNL     1       4.489   1.704   2.058  0.00  0.00    +0.269 C 
ATOM      3  O   UNL     1       4.970   1.579   3.166  0.00  0.00    -0.268 OA
ENDROOT
BRANCH   2   4
ATOM      4  C   UNL     1       4.317   3.056   1.472  0.00  0.00    +0.168 A 
ATOM      5  C   UNL     1       4.582   4.281   2.121  0.00  0.00    +0.086 A 
ATOM      6  C   UNL     1       4.299   5.286   1.249  0.00  0.00    +0.168 A 
ATOM      7  O   UNL     1       3.874   4.729   0.100  0.00  0.00    -0.354 OA
ATOM      8  N   UNL     1       3.898   3.323   0.258  0.00  0.00    -0.073 NA
BRANCH   6   9
ATOM      9  C   UNL     1       4.434   6.733   1.517  0.00  0.00    +0.023 A 
ATOM     10  C   UNL     1       4.894   7.176   2.758  0.00  0.00    +0.014 A 
ATOM     11  C   UNL     1       5.019   8.527   3.004  0.00  0.00    +0.042 A 
ATOM     12  C   UNL     1       4.688   9.446   2.021  0.00  0.00    +0.158 A 
ATOM     13  C   UNL     1       4.230   9.013   0.785  0.00  0.00    +0.159 A 
ATOM     14  C   UNL     1       4.107   7.662   0.527  0.00  0.00    +0.053 A 
ATOM     15  F   UNL     1       3.909   9.914  -0.169  0.00  0.00    -0.202 F 
ATOM     16  F   UNL     1       4.812  10.769   2.268  0.00  0.00    -0.202 F 
ENDBRANCH   6   9
ENDBRANCH   2   4
BRANCH   1  17
ATOM     17  C   UNL     1       3.643   0.754  -0.020  0.00  0.00    +0.182 C 
BRANCH  17  20
ATOM     18  C   UNL     1       0.060   1.620  -0.004  0.00  0.00    +0.041 A 
ATOM     19  C   UNL     1       1.424   1.990   0.045  0.00  0.00    +0.046 A 
ATOM     20  C   UNL     1       2.139   0.853  -0.034  0.00  0.00    +0.122 A 
ATOM     21  O   UNL     1       1.285  -0.180  -0.128  0.00  0.00    -0.466 OA
ATOM     22  C   UNL     1       0.023   0.280  -0.110  0.00  0.00    +0.195 A 
ENDBRANCH  17  20
ENDBRANCH   1  17
BRANCH   1  23
ATOM     23  C   UNL     1       4.167  -0.710   1.984  0.00  0.00    +0.140 C 
BRANCH  23  24
ATOM     24  C   UNL     1       5.575  -1.288   1.828  0.00  0.00    +0.136 C 
ATOM     25  C   UNL     1       5.613  -2.731   2.375  0.00  0.00    +0.035 C 
ATOM     26  C   UNL     1       6.995  -2.780   3.080  0.00  0.00    +0.031 C 
ATOM     27  C   UNL     1       7.108  -1.328   3.609  0.00  0.00    +0.160 C 
ATOM     28  O   UNL     1       6.506  -0.510   2.590  0.00  0.00    -0.375 OA
ENDBRANCH  23  24
ENDBRANCH   1  23
TORSDOF 6
