REMARK  Name = ZINC38547701
REMARK  13 active torsions:
REMARK  status: ('A' for Active; 'I' for Inactive)
REMARK    1  A    between atoms: C_1  and  C_2
REMARK    2  A    between atoms: C_6  and  N_8
REMARK    3  A    between atoms: N_8  and  C_9
REMARK    4  A    between atoms: C_9  and  C_11
REMARK    5  A    between atoms: C_9  and  C_21
REMARK    6  A    between atoms: C_15  and  O_19
REMARK    7  A    between atoms: C_16  and  O_17
REMARK    8  A    between atoms: O_17  and  C_18
REMARK    9  A    between atoms: O_19  and  C_20
REMARK   10  A    between atoms: C_22  and  C_35
REMARK   11  A    between atoms: C_23  and  C_34
REMARK   12  A    between atoms: C_25  and  N_26
REMARK   13  A    between atoms: C_27  and  C_29
REMARK                            x       y       z     vdW  Elec       q    Type
REMARK                         _______ _______ _______ _____ _____    ______ ____
ROOT
ATOM      1  C   UNL     1       0.069  -4.101   2.466  0.00  0.00    +0.138 C 
ENDROOT
BRANCH   1   2
ATOM      2  C   UNL     1      -0.520  -4.565   3.773  0.00  0.00    +0.009 A 
ATOM      3  C   UNL     1      -1.427  -5.608   3.806  0.00  0.00    -0.033 A 
ATOM      4  C   UNL     1      -1.936  -6.001   4.998  0.00  0.00    -0.008 A 
ATOM      5  S   UNL     1      -1.131  -4.883   6.134  0.00  0.00    -0.078 S 
ATOM      6  C   UNL     1      -0.164  -3.968   4.945  0.00  0.00    +0.078 A 
ATOM      7  C   UNL     1      -2.927  -7.098   5.290  0.00  0.00    +0.052 C 
ATOM      8  C   UNL     1      -1.843  -6.299   2.533  0.00  0.00    +0.045 C 
BRANCH   6   9
ATOM      9  N   UNL     1       0.726  -2.913   5.160  0.00  0.00    -0.273 N 
ATOM     10  C   UNL     1       0.945  -2.461   6.411  0.00  0.00    +0.284 C 
ATOM     11  O   UNL     1       0.367  -2.972   7.353  0.00  0.00    -0.266 OA
ATOM     12  H   UNL     1       1.186  -2.506   4.409  0.00  0.00    +0.156 HD
BRANCH  10  13
ATOM     13  C   UNL     1       1.878  -1.353   6.636  0.00  0.00    +0.189 A 
ATOM     14  C   UNL     1       2.195  -0.804   7.846  0.00  0.00    +0.054 A 
ATOM     15  C   UNL     1       3.121   0.220   7.595  0.00  0.00    +0.042 A 
ATOM     16  C   UNL     1       3.327   0.252   6.260  0.00  0.00    +0.196 A 
ATOM     17  O   UNL     1       2.580  -0.701   5.686  0.00  0.00    -0.458 OA
ENDBRANCH  10  13
ENDBRANCH   6   9
ENDBRANCH   1   2
BRANCH   1  18
ATOM     18  C   UNL     1       1.490  -4.588   2.353  0.00  0.00    +0.022 A 
ATOM     19  C   UNL     1       2.535  -3.769   2.741  0.00  0.00    +0.009 A 
ATOM     20  C   UNL     1       3.839  -4.213   2.639  0.00  0.00    +0.004 A 
ATOM     21  C   UNL     1       4.106  -5.479   2.149  0.00  0.00    +0.049 A 
ATOM     22  C   UNL     1       3.064  -6.304   1.758  0.00  0.00    +0.162 A 
ATOM     23  C   UNL     1       1.750  -5.859   1.867  0.00  0.00    +0.167 A 
BRANCH  23  24
ATOM     24  O   UNL     1       0.724  -6.668   1.490  0.00  0.00    -0.491 OA
ATOM     25  C   UNL     1       0.300  -6.587   0.127  0.00  0.00    +0.277 C 
ENDBRANCH  23  24
BRANCH  22  26
ATOM     26  O   UNL     1       3.325  -7.548   1.275  0.00  0.00    -0.491 OA
ATOM     27  C   UNL     1       4.697  -7.940   1.198  0.00  0.00    +0.277 C 
ENDBRANCH  22  26
ENDBRANCH   1  18
BRANCH   1  28
ATOM     28  N   UNL     1       0.049  -2.637   2.414  0.00  0.00    -0.319 N 
ATOM     29  H   UNL     1       0.046  -2.122   3.236  0.00  0.00    +0.148 HD
BRANCH  28  35
ATOM     30  C   UNL     1      -0.018   1.503   0.010  0.00  0.00    +0.063 C 
ATOM     31  C   UNL     1       0.002  -0.004   0.002  0.00  0.00    +0.014 A 
ATOM     32  C   UNL     1       0.005  -0.679  -1.202  0.00  0.00    +0.021 A 
ATOM     33  C   UNL     1       0.024  -2.067  -1.204  0.00  0.00    +0.005 A 
ATOM     34  C   UNL     1       0.039  -2.729   0.011  0.00  0.00    +0.041 A 
ATOM     35  C   UNL     1       0.035  -1.985   1.186  0.00  0.00    +0.097 A 
ATOM     36  N   UNL     1       0.022  -0.661   1.146  0.00  0.00    -0.347 N 
ATOM     37  H   UNL     1       0.023  -0.163   1.978  0.00  0.00    +0.167 HD
ENDBRANCH  28  35
ENDBRANCH   1  28
TORSDOF 8
