REMARK  Name = ZINC36552985
REMARK  17 active torsions:
REMARK  status: ('A' for Active; 'I' for Inactive)
REMARK    1  A    between atoms: C_1  and  C_2
REMARK    2  A    between atoms: C_2  and  C_3
REMARK    3  A    between atoms: C_3  and  C_4
REMARK    4  A    between atoms: C_4  and  C_5
REMARK    5  A    between atoms: C_5  and  C_6
REMARK    6  A    between atoms: C_6  and  C_8
REMARK    7  A    between atoms: C_6  and  N_19
REMARK    8  A    between atoms: N_10  and  C_11
REMARK    9  A    between atoms: C_11  and  C_12
REMARK   10  A    between atoms: C_11  and  C_13
REMARK   11  A    between atoms: C_11  and  C_14
REMARK   12  A    between atoms: C_14  and  C_15
REMARK   13  A    between atoms: C_15  and  C_16
REMARK   14  A    between atoms: C_15  and  C_17
REMARK   15  A    between atoms: C_15  and  C_18
REMARK   16  A    between atoms: N_19  and  C_20
REMARK   17  A    between atoms: C_27  and  C_29
REMARK                            x       y       z     vdW  Elec       q    Type
REMARK                         _______ _______ _______ _____ _____    ______ ____
ROOT
ATOM      1  C   UNL     1       0.624  -3.180  -3.735  0.00  0.00    +0.167 C 
ENDROOT
BRANCH   1   2
ATOM      2  C   UNL     1       1.497  -2.462  -4.732  0.00  0.00    +0.234 C 
ATOM      3  O   UNL     1       2.404  -1.756  -4.345  0.00  0.00    -0.274 OA
ATOM      4  N   UNL     1       1.269  -2.604  -6.053  0.00  0.00    -0.309 N 
ATOM      5  H   UNL     1       0.543  -3.168  -6.362  0.00  0.00    +0.149 HD
BRANCH   4   6
ATOM      6  C   UNL     1       2.118  -1.906  -7.021  0.00  0.00    +0.030 C 
ATOM      7  C   UNL     1       2.110  -0.406  -6.718  0.00  0.00    +0.031 C 
ATOM      8  C   UNL     1       3.549  -2.438  -6.923  0.00  0.00    +0.031 C 
BRANCH   6   9
ATOM      9  C   UNL     1       1.581  -2.143  -8.434  0.00  0.00    +0.031 C 
BRANCH   9  10
ATOM     10  C   UNL     1       0.826  -3.473  -8.476  0.00  0.00    -0.036 C 
ATOM     11  C   UNL     1      -0.550  -3.299  -7.828  0.00  0.00    +0.010 C 
ATOM     12  C   UNL     1       0.652  -3.916  -9.930  0.00  0.00    +0.010 C 
ATOM     13  C   UNL     1       1.619  -4.534  -7.711  0.00  0.00    +0.010 C 
ENDBRANCH   9  10
ENDBRANCH   6   9
ENDBRANCH   4   6
ENDBRANCH   1   2
BRANCH   1  14
ATOM     14  N   UNL     1       1.072  -2.865  -2.377  0.00  0.00    -0.258 N 
ATOM     15  C   UNL     1       1.505  -3.850  -1.564  0.00  0.00    +0.241 C 
ATOM     16  O   UNL     1       1.625  -4.979  -1.990  0.00  0.00    -0.273 OA
BRANCH  14  17
ATOM     17  C   UNL     1       1.052  -1.542  -1.922  0.00  0.00    +0.039 A 
ATOM     18  C   UNL     1      -0.127  -0.993  -1.433  0.00  0.00    +0.023 A 
ATOM     19  C   UNL     1      -0.145   0.314  -0.986  0.00  0.00    +0.003 A 
ATOM     20  C   UNL     1       1.008   1.075  -1.024  0.00  0.00    +0.020 A 
ATOM     21  C   UNL     1       2.184   0.532  -1.511  0.00  0.00    +0.043 A 
ATOM     22  C   UNL     1       2.210  -0.777  -1.954  0.00  0.00    +0.043 A 
ATOM     23 CL   UNL     1       3.630   1.492  -1.558  0.00  0.00    -0.083 Cl
ENDBRANCH  14  17
BRANCH  15  24
ATOM     24  C   UNL     1       1.841  -3.548  -0.127  0.00  0.00    +0.160 C 
ATOM     25  C   UNL     1       3.365  -3.357   0.038  0.00  0.00    +0.041 C 
ATOM     26  C   UNL     1       3.819  -4.780   0.439  0.00  0.00    +0.098 C 
ATOM     27  C   UNL     1       2.586  -5.403   1.055  0.00  0.00    +0.214 C 
ATOM     28  O   UNL     1       2.582  -6.401   1.745  0.00  0.00    -0.276 OA
ATOM     29  N   UNL     1       1.492  -4.690   0.727  0.00  0.00    -0.304 N 
ATOM     30  H   UNL     1       0.591  -4.902   1.017  0.00  0.00    +0.149 HD
ENDBRANCH  15  24
ENDBRANCH   1  14
BRANCH   1  31
ATOM     31  C   UNL     1      -0.828  -2.730  -3.910  0.00  0.00    +0.032 C 
BRANCH  31  32
ATOM     32  C   UNL     1      -1.717  -3.475  -2.913  0.00  0.00    +0.002 C 
BRANCH  32  33
ATOM     33  C   UNL     1      -3.169  -3.024  -3.089  0.00  0.00    -0.000 C 
BRANCH  33  35
ATOM     34  C   UNL     1      -5.510  -3.319  -2.267  0.00  0.00    +0.004 C 
ATOM     35  C   UNL     1      -4.058  -3.769  -2.091  0.00  0.00    -0.003 C 
ENDBRANCH  33  35
ENDBRANCH  32  33
ENDBRANCH  31  32
ENDBRANCH   1  31
TORSDOF 11
