REMARK  Name = ZINC03311161
REMARK  5 active torsions:
REMARK  status: ('A' for Active; 'I' for Inactive)
REMARK    1  A    between atoms: C_1  and  C_2
REMARK    2  A    between atoms: C_2  and  C_23
REMARK    3  A    between atoms: C_7  and  C_11
REMARK    4  A    between atoms: N_12  and  N_13
REMARK    5  A    between atoms: N_16  and  C_17
REMARK                            x       y       z     vdW  Elec       q    Type
REMARK                         _______ _______ _______ _____ _____    ______ ____
ROOT
ATOM      1  N   UNL     1       4.813  -0.986  -3.594  0.00  0.00    -0.191 N 
ATOM      2  C   UNL     1       4.183  -0.551  -2.485  0.00  0.00    +0.319 C 
ATOM      3  O   UNL     1       4.825  -0.258  -1.495  0.00  0.00    -0.251 OA
ATOM      4  N   UNL     1       2.839  -0.440  -2.473  0.00  0.00    -0.295 N 
ATOM      5  H   UNL     1       5.780  -1.065  -3.602  0.00  0.00    +0.179 HD
ATOM      6  H   UNL     1       2.327  -0.674  -3.263  0.00  0.00    +0.151 HD
ENDROOT
BRANCH   4   7
ATOM      7  C   UNL     1       2.154   0.032  -1.268  0.00  0.00    +0.074 C 
ATOM      8  C   UNL     1       0.718  -0.497  -1.257  0.00  0.00    +0.022 C 
ATOM      9  C   UNL     1       0.002  -0.004   0.002  0.00  0.00    +0.002 C 
ATOM     10  C   UNL     1      -0.019   1.526   0.010  0.00  0.00    +0.000 C 
ATOM     11  C   UNL     1       1.417   2.055  -0.000  0.00  0.00    +0.002 C 
ATOM     12  C   UNL     1       2.133   1.562  -1.259  0.00  0.00    +0.022 C 
ENDBRANCH   4   7
BRANCH   1  14
ATOM     13  C   UNL     1       4.681  -1.742  -5.803  0.00  0.00    +0.134 C 
ATOM     14  N   UNL     1       4.073  -1.323  -4.734  0.00  0.00    -0.187 NA
BRANCH  13  20
ATOM     15  C   UNL     1       3.616  -0.443  -9.305  0.00  0.00    +0.012 C 
ATOM     16  C   UNL     1       3.988  -1.912  -9.514  0.00  0.00    -0.025 C 
ATOM     17  C   UNL     1       2.806  -2.886  -9.331  0.00  0.00    -0.000 C 
ATOM     18  C   UNL     1       1.813  -2.354  -8.290  0.00  0.00    +0.031 C 
ATOM     19  C   UNL     1       2.574  -2.001  -7.016  0.00  0.00    -0.021 C 
ATOM     20  C   UNL     1       3.906  -2.095  -6.998  0.00  0.00    -0.028 C 
ATOM     21  C   UNL     1       4.583  -2.588  -8.265  0.00  0.00    +0.026 C 
ATOM     22  C   UNL     1       3.847  -3.860  -8.754  0.00  0.00    +0.013 C 
ATOM     23  C   UNL     1       4.795  -2.152 -10.791  0.00  0.00    +0.012 C 
ENDBRANCH  13  20
ENDBRANCH   1  14
TORSDOF 3
