REMARK  Name = ZINC18181240
REMARK  9 active torsions:
REMARK  status: ('A' for Active; 'I' for Inactive)
REMARK    1  A    between atoms: C_1  and  C_2
REMARK    2  A    between atoms: C_2  and  C_3
REMARK    3  A    between atoms: C_3  and  N_5
REMARK    4  A    between atoms: C_3  and  N_23
REMARK    5  A    between atoms: C_11  and  C_22
REMARK    6  A    between atoms: C_12  and  C_21
REMARK    7  A    between atoms: C_15  and  C_20
REMARK    8  A    between atoms: C_17  and  C_18
REMARK    9  A    between atoms: C_17  and  C_19
REMARK                            x       y       z     vdW  Elec       q    Type
REMARK                         _______ _______ _______ _____ _____    ______ ____
ROOT
ATOM      1  N   UNL     1       0.574  -2.076  -1.707  0.00  0.00    -0.280 N 
ATOM      2  C   UNL     1       1.777  -2.678  -1.788  0.00  0.00    +0.309 C 
ATOM      3  O   UNL     1       2.772  -2.019  -2.022  0.00  0.00    -0.252 OA
ATOM      4  N   UNL     1       1.877  -4.010  -1.610  0.00  0.00    -0.246 N 
ATOM      5  C   UNL     1       0.748  -4.781  -1.315  0.00  0.00    +0.046 A 
ATOM      6  C   UNL     1      -0.323  -4.265  -0.610  0.00  0.00    +0.027 A 
ATOM      7  C   UNL     1      -1.416  -5.068  -0.339  0.00  0.00    -0.046 A 
ATOM      8  C   UNL     1      -1.445  -6.383  -0.769  0.00  0.00    -0.047 A 
ATOM      9  C   UNL     1      -0.382  -6.912  -1.476  0.00  0.00    +0.013 A 
ATOM     10  C   UNL     1       0.722  -6.114  -1.755  0.00  0.00    -0.001 A 
ATOM     11  C   UNL     1       1.877  -6.632  -2.515  0.00  0.00    -0.043 C 
ATOM     12  C   UNL     1       3.023  -5.963  -2.506  0.00  0.00    +0.002 C 
ATOM     13  C   UNL     1       3.174  -4.689  -1.726  0.00  0.00    +0.057 C 
ATOM     14  C   UNL     1       4.167  -3.771  -2.441  0.00  0.00    +0.036 C 
ATOM     15  C   UNL     1       3.704  -5.016  -0.328  0.00  0.00    +0.036 C 
ATOM     16  C   UNL     1       1.755  -7.915  -3.297  0.00  0.00    +0.044 C 
ATOM     17  C   UNL     1      -2.643  -7.245  -0.464  0.00  0.00    +0.044 C 
ATOM     18  C   UNL     1      -2.585  -4.506   0.429  0.00  0.00    +0.044 C 
ATOM     19  H   UNL     1      -0.231  -2.610  -1.612  0.00  0.00    +0.152 HD
ENDROOT
BRANCH   1  20
ATOM     20  C   UNL     1       0.480  -0.615  -1.762  0.00  0.00    +0.172 C 
BRANCH  20  21
ATOM     21  N   UNL     1      -0.025  -0.207  -3.076  0.00  0.00    -0.222 N 
ATOM     22  C   UNL     1      -1.083  -0.805  -3.687  0.00  0.00    +0.227 C 
ATOM     23  O   UNL     1      -1.875  -1.574  -3.187  0.00  0.00    -0.275 OA
ATOM     24  C   UNL     1      -1.069  -0.320  -5.102  0.00  0.00    +0.087 C 
ATOM     25  C   UNL     1      -2.380  -0.130  -5.835  0.00  0.00    +0.013 C 
ATOM     26  C   UNL     1      -2.015   0.410  -7.233  0.00  0.00    +0.001 C 
ATOM     27  C   UNL     1      -1.213   1.704  -7.151  0.00  0.00    +0.001 C 
ATOM     28  C   UNL     1       0.023   1.563  -6.244  0.00  0.00    +0.013 C 
ATOM     29  C   UNL     1      -0.458   1.098  -4.897  0.00  0.00    +0.087 C 
ATOM     30  C   UNL     1       0.515   0.810  -3.801  0.00  0.00    +0.227 C 
ATOM     31  O   UNL     1       1.573   1.367  -3.600  0.00  0.00    -0.275 OA
ENDBRANCH  20  21
BRANCH  20  33
ATOM     32  C   UNL     1      -0.573   1.403  -0.732  0.00  0.00    +0.007 C 
ATOM     33  C   UNL     1      -0.475  -0.123  -0.674  0.00  0.00    +0.039 C 
ENDBRANCH  20  33
ENDBRANCH   1  20
TORSDOF 3
