REMARK  Name = ZINC38683075
REMARK  16 active torsions:
REMARK  status: ('A' for Active; 'I' for Inactive)
REMARK    1  A    between atoms: C_1  and  C_2
REMARK    2  A    between atoms: C_2  and  C_3
REMARK    3  A    between atoms: C_3  and  C_4
REMARK    4  A    between atoms: C_4  and  O_5
REMARK    5  A    between atoms: O_5  and  C_6
REMARK    6  A    between atoms: C_11  and  C_12
REMARK    7  A    between atoms: C_17  and  O_26
REMARK    8  A    between atoms: C_21  and  N_25
REMARK    9  A    between atoms: C_22  and  C_23
REMARK   10  A    between atoms: O_26  and  C_27
REMARK   11  A    between atoms: C_27  and  C_29
REMARK   12  A    between atoms: C_29  and  C_31
REMARK   13  A    between atoms: C_29  and  O_32
REMARK   14  A    between atoms: O_32  and  C_33
REMARK   15  A    between atoms: C_36  and  C_39
REMARK   16  A    between atoms: C_39  and  C_40
REMARK                            x       y       z     vdW  Elec       q    Type
REMARK                         _______ _______ _______ _____ _____    ______ ____
ROOT
ATOM      1  C   UNL     1      -5.599  -3.667  -0.144  0.00  0.00    +0.101 C 
ATOM      2  C   UNL     1      -6.353  -3.916   1.135  0.00  0.00    +0.008 A 
ATOM      3  C   UNL     1      -5.818  -3.482   2.335  0.00  0.00    +0.012 A 
ATOM      4  C   UNL     1      -6.495  -3.702   3.518  0.00  0.00    +0.047 A 
ATOM      5  C   UNL     1      -7.717  -4.360   3.507  0.00  0.00    +0.135 A 
ATOM      6  C   UNL     1      -8.255  -4.795   2.307  0.00  0.00    +0.093 A 
ATOM      7  C   UNL     1      -7.572  -4.574   1.118  0.00  0.00    +0.138 A 
ATOM      8  O   UNL     1      -8.113  -5.007  -0.048  0.00  0.00    -0.441 OA
ATOM      9  C   UNL     1      -7.695  -4.486  -1.214  0.00  0.00    +0.199 C 
ATOM     10  C   UNL     1      -6.513  -3.841  -1.325  0.00  0.00    +0.098 C 
ENDROOT
BRANCH   1  16
ATOM     11  C   UNL     1      -3.151  -4.183  -0.322  0.00  0.00    +0.125 A 
ATOM     12  C   UNL     1      -2.102  -5.086  -0.413  0.00  0.00    +0.046 A 
ATOM     13  C   UNL     1      -2.360  -6.443  -0.437  0.00  0.00    +0.004 A 
ATOM     14  C   UNL     1      -3.663  -6.901  -0.371  0.00  0.00    +0.001 A 
ATOM     15  C   UNL     1      -4.710  -6.003  -0.280  0.00  0.00    +0.008 A 
ATOM     16  C   UNL     1      -4.457  -4.646  -0.250  0.00  0.00    +0.007 A 
BRANCH  11  17
ATOM     17  O   UNL     1      -2.900  -2.848  -0.297  0.00  0.00    -0.492 OA
BRANCH  17  18
ATOM     18  C   UNL     1      -1.531  -2.444  -0.375  0.00  0.00    +0.229 C 
BRANCH  18  19
ATOM     19  C   UNL     1      -1.447  -0.917  -0.334  0.00  0.00    +0.041 C 
BRANCH  19  21
ATOM     20  C   UNL     1       0.102   1.043  -0.375  0.00  0.00    +0.004 C 
ATOM     21  C   UNL     1       0.018  -0.484  -0.417  0.00  0.00    -0.000 C 
ENDBRANCH  19  21
ENDBRANCH  18  19
ENDBRANCH  17  18
ENDBRANCH  11  17
ENDBRANCH   1  16
BRANCH   9  22
ATOM     22  N   UNL     1      -8.491  -4.615  -2.325  0.00  0.00    -0.328 N 
ATOM     23  H   UNL     1      -9.342  -5.077  -2.261  0.00  0.00    +0.145 HD
ATOM     24  H   UNL     1      -8.203  -4.244  -3.174  0.00  0.00    +0.145 HD
ENDBRANCH   9  22
BRANCH  10  25
ATOM     25  C   UNL     1      -6.125  -3.309  -2.596  0.00  0.00    +0.101 C 
ATOM     26  N   UNL     1      -5.818  -2.888  -3.606  0.00  0.00    -0.191 NA
ENDBRANCH  10  25
BRANCH   5  27
ATOM     27  O   UNL     1      -8.384  -4.577   4.671  0.00  0.00    -0.423 OA
BRANCH  27  28
ATOM     28  C   UNL     1      -8.514  -5.844   5.096  0.00  0.00    +0.353 C 
ATOM     29  O   UNL     1      -7.961  -6.740   4.503  0.00  0.00    -0.246 OA
BRANCH  28  30
ATOM     30  C   UNL     1      -9.348  -6.148   6.314  0.00  0.00    +0.279 C 
ATOM     31  C   UNL     1     -10.811  -5.805   6.028  0.00  0.00    +0.064 C 
BRANCH  30  32
ATOM     32  O   UNL     1      -9.237  -7.537   6.632  0.00  0.00    -0.478 OA
BRANCH  32  33
ATOM     33  C   UNL     1      -9.508  -7.899   7.914  0.00  0.00    +0.122 A 
ATOM     34  C   UNL     1      -9.488  -9.238   8.276  0.00  0.00    +0.046 A 
ATOM     35  C   UNL     1      -9.763  -9.604   9.579  0.00  0.00    +0.007 A 
ATOM     36  C   UNL     1     -10.057  -8.637  10.523  0.00  0.00    -0.047 A 
ATOM     37  C   UNL     1     -10.078  -7.302  10.164  0.00  0.00    +0.007 A 
ATOM     38  C   UNL     1      -9.798  -6.930   8.864  0.00  0.00    +0.046 A 
BRANCH  36  39
ATOM     39  C   UNL     1     -10.357  -9.040  11.944  0.00  0.00    +0.032 C 
ATOM     40  C   UNL     1      -9.058  -9.067  12.751  0.00  0.00    +0.009 C 
ENDBRANCH  36  39
ENDBRANCH  32  33
ENDBRANCH  30  32
ENDBRANCH  28  30
ENDBRANCH  27  28
ENDBRANCH   5  27
TORSDOF 13
