REMARK  Name = ZINC36656568
REMARK  5 active torsions:
REMARK  status: ('A' for Active; 'I' for Inactive)
REMARK    1  A    between atoms: C_1  and  C_2
REMARK    2  A    between atoms: C_7  and  C_8
REMARK    3  A    between atoms: C_8  and  N_9
REMARK    4  A    between atoms: C_14  and  C_16
REMARK    5  A    between atoms: C_22  and  C_24
REMARK                            x       y       z     vdW  Elec       q    Type
REMARK                         _______ _______ _______ _____ _____    ______ ____
ROOT
ATOM      1  N   UNL     1      -1.338   0.477   2.823  0.00  0.00    -0.223 N 
ATOM      2  C   UNL     1      -2.122  -0.342   3.544  0.00  0.00    +0.294 A 
ATOM      3  O   UNL     1      -1.697  -1.421   3.922  0.00  0.00    -0.264 OA
ATOM      4  C   UNL     1      -3.498   0.068   3.879  0.00  0.00    +0.146 A 
ATOM      5  C   UNL     1      -3.890   1.330   3.396  0.00  0.00    +0.075 A 
ATOM      6  C   UNL     1      -2.989   2.155   2.625  0.00  0.00    +0.142 A 
ATOM      7  N   UNL     1      -1.769   1.725   2.369  0.00  0.00    -0.164 NA
ATOM      8  S   UNL     1      -5.554   1.452   3.990  0.00  0.00    -0.070 S 
ATOM      9  C   UNL     1      -5.629  -0.038   4.772  0.00  0.00    +0.077 A 
ATOM     10  N   UNL     1      -4.453  -0.561   4.573  0.00  0.00    -0.239 NA
ATOM     11  C   UNL     1      -6.790  -0.629   5.529  0.00  0.00    +0.073 C 
ENDROOT
BRANCH   6  12
ATOM     12  C   UNL     1      -3.430   3.475   2.131  0.00  0.00    +0.156 A 
ATOM     13  C   UNL     1      -2.684   4.342   1.394  0.00  0.00    +0.051 A 
ATOM     14  C   UNL     1      -3.495   5.467   1.147  0.00  0.00    +0.042 A 
ATOM     15  C   UNL     1      -4.683   5.235   1.740  0.00  0.00    +0.196 A 
ATOM     16  O   UNL     1      -4.642   4.029   2.328  0.00  0.00    -0.461 OA
ENDBRANCH   6  12
BRANCH   1  17
ATOM     17  C   UNL     1       0.025   0.045   2.504  0.00  0.00    +0.183 C 
BRANCH  17  24
ATOM     18  C   UNL     1      -0.018   1.503   0.010  0.00  0.00    +0.044 C 
ATOM     19  C   UNL     1       0.002  -0.004   0.002  0.00  0.00    -0.046 A 
ATOM     20  C   UNL     1       0.006  -0.689  -1.199  0.00  0.00    +0.004 A 
ATOM     21  C   UNL     1       0.025  -2.071  -1.207  0.00  0.00    +0.000 A 
ATOM     22  C   UNL     1       0.040  -2.768  -0.013  0.00  0.00    +0.000 A 
ATOM     23  C   UNL     1       0.037  -2.084   1.188  0.00  0.00    +0.006 A 
ATOM     24  C   UNL     1       0.023  -0.702   1.195  0.00  0.00    -0.023 A 
ENDBRANCH  17  24
ENDBRANCH   1  17
TORSDOF 3
