REMARK  Name = ZINC20037901
REMARK  17 active torsions:
REMARK  status: ('A' for Active; 'I' for Inactive)
REMARK    1  A    between atoms: C_1  and  C_2
REMARK    2  A    between atoms: C_2  and  C_3
REMARK    3  A    between atoms: C_3  and  N_4
REMARK    4  A    between atoms: N_4  and  C_5
REMARK    5  A    between atoms: N_4  and  C_8
REMARK    6  A    between atoms: C_5  and  C_6
REMARK    7  A    between atoms: C_6  and  C_7
REMARK    8  A    between atoms: C_8  and  C_9
REMARK    9  A    between atoms: C_10  and  C_20
REMARK   10  A    between atoms: N_22  and  N_23
REMARK   11  A    between atoms: C_24  and  C_25
REMARK   12  A    between atoms: C_27  and  O_35
REMARK   13  A    between atoms: C_28  and  O_33
REMARK   14  A    between atoms: C_30  and  O_31
REMARK   15  A    between atoms: O_31  and  C_32
REMARK   16  A    between atoms: O_33  and  C_34
REMARK   17  A    between atoms: O_35  and  C_36
REMARK                            x       y       z     vdW  Elec       q    Type
REMARK                         _______ _______ _______ _____ _____    ______ ____
ROOT
ATOM      1  C   UNL     1       4.617   9.755   0.323  0.00  0.00    +0.063 A 
ATOM      2  C   UNL     1       4.398   8.454   0.678  0.00  0.00    +0.170 A 
ATOM      3  N   UNL     1       5.588   7.845   0.817  0.00  0.00    -0.124 NA
ATOM      4  N   UNL     1       6.534   8.681   0.563  0.00  0.00    -0.058 NA
ATOM      5  N   UNL     1       5.957   9.918   0.245  0.00  0.00    -0.194 N 
ATOM      6  C   UNL     1       6.636  11.095  -0.088  0.00  0.00    +0.240 A 
ATOM      7  C   UNL     1       8.091  11.253  -0.167  0.00  0.00    +0.206 A 
ATOM      8  N   UNL     1       8.353  12.486  -0.505  0.00  0.00    -0.032 NA
ATOM      9  O   UNL     1       7.119  13.165  -0.657  0.00  0.00    -0.239 OA
ATOM     10  N   UNL     1       6.083  12.237  -0.387  0.00  0.00    -0.027 NA
ATOM     11  N   UNL     1       9.032  10.258   0.076  0.00  0.00    -0.337 N 
ATOM     12  H   UNL     1      10.105  10.483  -0.011  0.00  0.00    +0.144 HD
ATOM     13  H   UNL     1       8.703   9.247   0.356  0.00  0.00    +0.144 HD
ENDROOT
BRANCH   2  14
ATOM     14  C   UNL     1       3.079   7.827   0.880  0.00  0.00    +0.285 C 
ATOM     15  O   UNL     1       2.064   8.481   0.731  0.00  0.00    -0.267 OA
ATOM     16  N   UNL     1       2.998   6.528   1.231  0.00  0.00    -0.202 N 
ATOM     17  H   UNL     1       3.915   5.936   1.366  0.00  0.00    +0.178 HD
BRANCH  16  18
ATOM     18  N   UNL     1       1.745   5.931   1.423  0.00  0.00    -0.187 NA
ATOM     19  C   UNL     1       1.666   4.680   1.761  0.00  0.00    +0.142 C 
BRANCH  19  20
ATOM     20  C   UNL     1       0.349   4.053   1.964  0.00  0.00    +0.040 A 
ATOM     21  C   UNL     1       0.262   2.706   2.327  0.00  0.00    +0.062 A 
ATOM     22  C   UNL     1      -0.976   2.122   2.515  0.00  0.00    +0.162 A 
ATOM     23  C   UNL     1      -2.137   2.872   2.338  0.00  0.00    +0.165 A 
ATOM     24  C   UNL     1      -2.057   4.210   1.983  0.00  0.00    +0.095 A 
ATOM     25  C   UNL     1      -0.822   4.804   1.792  0.00  0.00    +0.132 A 
BRANCH  25  26
ATOM     26  O   UNL     1      -0.744   6.114   1.438  0.00  0.00    -0.494 OA
ATOM     27  C   UNL     1      -1.977   6.818   1.281  0.00  0.00    +0.277 C 
ENDBRANCH  25  26
BRANCH  23  28
ATOM     28  O   UNL     1      -3.353   2.292   2.519  0.00  0.00    -0.491 OA
ATOM     29  C   UNL     1      -4.502   3.117   2.322  0.00  0.00    +0.277 C 
ENDBRANCH  23  28
BRANCH  22  30
ATOM     30  O   UNL     1      -1.062   0.811   2.869  0.00  0.00    -0.491 OA
ATOM     31  C   UNL     1       0.168   0.100   3.028  0.00  0.00    +0.277 C 
ENDBRANCH  22  30
ENDBRANCH  19  20
ENDBRANCH  16  18
ENDBRANCH   2  14
BRANCH   1  32
ATOM     32  C   UNL     1       3.567  10.806   0.068  0.00  0.00    -0.020 C 
BRANCH  32  33
ATOM     33  N   UNL     1       3.525  11.118  -1.367  0.00  0.00    +0.383 N 
ATOM     34  H   UNL     1       4.560  11.145  -1.738  0.00  0.00    -0.081 HD
BRANCH  33  35
ATOM     35  C   UNL     1       2.806  10.075  -2.111  0.00  0.00    -0.079 C 
BRANCH  35  37
ATOM     36  C   UNL     1       3.030   7.845  -3.216  0.00  0.00    +0.002 C 
ATOM     37  C   UNL     1       3.728   8.872  -2.322  0.00  0.00    -0.022 C 
ENDBRANCH  35  37
ENDBRANCH  33  35
BRANCH  33  38
ATOM     38  C   UNL     1       2.926  12.439  -1.601  0.00  0.00    -0.079 C 
BRANCH  38  39
ATOM     39  C   UNL     1       3.245  12.898  -3.025  0.00  0.00    -0.022 C 
ATOM     40  C   UNL     1       2.732  14.325  -3.228  0.00  0.00    +0.002 C 
ENDBRANCH  38  39
ENDBRANCH  33  38
ENDBRANCH  32  33
ENDBRANCH   1  32
TORSDOF 12
