REMARK  Name = ZINC37651604
REMARK  9 active torsions:
REMARK  status: ('A' for Active; 'I' for Inactive)
REMARK    1  A    between atoms: C_1  and  C_2
REMARK    2  A    between atoms: C_2  and  C_3
REMARK    3  A    between atoms: N_9  and  S_10
REMARK    4  A    between atoms: S_10  and  C_13
REMARK    5  A    between atoms: C_16  and  C_19
REMARK    6  A    between atoms: N_21  and  C_22
REMARK    7  A    between atoms: C_23  and  C_33
REMARK    8  A    between atoms: C_28  and  C_32
REMARK    9  A    between atoms: N_35  and  C_36
REMARK                            x       y       z     vdW  Elec       q    Type
REMARK                         _______ _______ _______ _____ _____    ______ ____
ROOT
ATOM      1  C   UNL     1       4.502  -2.796   4.662  0.00  0.00    +0.249 C 
ATOM      2  O   UNL     1       3.742  -3.019   5.584  0.00  0.00    -0.270 OA
ATOM      3  N   UNL     1       5.740  -3.330   4.665  0.00  0.00    -0.275 N 
ATOM      4  H   UNL     1       6.346  -3.152   3.930  0.00  0.00    +0.156 HD
ENDROOT
BRANCH   3   5
ATOM      5  C   UNL     1       6.145  -4.133   5.719  0.00  0.00    +0.085 A 
ATOM      6  C   UNL     1       7.371  -4.757   5.893  0.00  0.00    +0.069 A 
ATOM      7  C   UNL     1       7.546  -5.552   7.096  0.00  0.00    -0.023 A 
ATOM      8  C   UNL     1       6.465  -5.578   7.904  0.00  0.00    -0.004 A 
ATOM      9  S   UNL     1       5.267  -4.569   7.082  0.00  0.00    -0.077 S 
ATOM     10  C   UNL     1       6.333  -6.304   9.207  0.00  0.00    +0.046 C 
ATOM     11  C   UNL     1       7.477  -7.324   9.309  0.00  0.00    -0.009 C 
ATOM     12  C   UNL     1       8.793  -6.629   8.949  0.00  0.00    +0.008 C 
ATOM     13  C   UNL     1       8.819  -6.305   7.454  0.00  0.00    +0.037 C 
ATOM     14  C   UNL     1       7.554  -7.866  10.737  0.00  0.00    +0.008 C 
BRANCH   6  15
ATOM     15  C   UNL     1       8.444  -4.621   4.903  0.00  0.00    +0.246 C 
ATOM     16  O   UNL     1       9.251  -3.715   5.002  0.00  0.00    -0.270 OA
ATOM     17  N   UNL     1       8.538  -5.499   3.885  0.00  0.00    -0.314 N 
ATOM     18  C   UNL     1       9.611  -5.363   2.897  0.00  0.00    +0.128 C 
ATOM     19  H   UNL     1       7.895  -6.221   3.807  0.00  0.00    +0.149 HD
ENDBRANCH   6  15
ENDBRANCH   3   5
BRANCH   1  23
ATOM     20  C   UNL     1       3.260  -0.333   1.433  0.00  0.00    +0.106 A 
ATOM     21  C   UNL     1       2.392  -0.586   2.480  0.00  0.00    +0.029 A 
ATOM     22  C   UNL     1       2.789  -1.385   3.532  0.00  0.00    +0.015 A 
ATOM     23  C   UNL     1       4.070  -1.940   3.538  0.00  0.00    +0.037 A 
ATOM     24  C   UNL     1       4.941  -1.681   2.478  0.00  0.00    +0.015 A 
ATOM     25  C   UNL     1       4.529  -0.884   1.430  0.00  0.00    +0.029 A 
BRANCH  20  26
ATOM     26  S   UNL     1       2.745   0.689   0.093  0.00  0.00    +0.061 S 
ATOM     27  O   UNL     1       3.907   1.358  -0.377  0.00  0.00    -0.153 OA
ATOM     28  O   UNL     1       1.590   1.389   0.537  0.00  0.00    -0.153 OA
BRANCH  26  34
ATOM     29  C   UNL     1       0.903  -0.900  -1.115  0.00  0.00    +0.080 C 
ATOM     30  C   UNL     1       1.021  -2.421  -1.261  0.00  0.00    +0.021 C 
ATOM     31  C   UNL     1       1.837  -2.747  -2.514  0.00  0.00    +0.003 C 
ATOM     32  C   UNL     1       3.245  -2.164  -2.374  0.00  0.00    +0.017 C 
ATOM     33  C   UNL     1       3.152  -0.641  -2.241  0.00  0.00    +0.110 C 
ATOM     34  N   UNL     1       2.251  -0.315  -1.127  0.00  0.00    -0.174 NA
BRANCH  29  36
ATOM     35  C   UNL     1      -1.129  -1.301   0.282  0.00  0.00    +0.005 C 
ATOM     36  C   UNL     1       0.209  -0.564   0.206  0.00  0.00    +0.017 C 
ENDBRANCH  29  36
ENDBRANCH  26  34
ENDBRANCH  20  26
ENDBRANCH   1  23
TORSDOF 6
