REMARK  Name = ZINC38056052
REMARK  5 active torsions:
REMARK  status: ('A' for Active; 'I' for Inactive)
REMARK    1  A    between atoms: C_1  and  C_2
REMARK    2  A    between atoms: C_7  and  C_13
REMARK    3  A    between atoms: C_13  and  O_14
REMARK    4  A    between atoms: O_14  and  C_15
REMARK    5  A    between atoms: C_20  and  N_21
REMARK                            x       y       z     vdW  Elec       q    Type
REMARK                         _______ _______ _______ _____ _____    ______ ____
ROOT
ATOM      1  C   UNL     1      -0.018   1.503   0.010  0.00  0.00    +0.045 C 
ATOM      2  C   UNL     1       0.002  -0.004   0.002  0.00  0.00    -0.034 A 
ATOM      3  C   UNL     1       0.006  -0.697  -1.217  0.00  0.00    +0.008 A 
ATOM      4  C   UNL     1       0.025  -2.059  -1.216  0.00  0.00    +0.047 A 
ATOM      5  C   UNL     1       0.040  -2.750   0.010  0.00  0.00    +0.141 A 
ATOM      6  N   UNL     1       0.059  -4.082   0.013  0.00  0.00    -0.231 NA
ATOM      7  C   UNL     1       0.074  -4.768   1.145  0.00  0.00    +0.086 A 
ATOM      8  C   UNL     1       0.071  -4.104   2.356  0.00  0.00    +0.097 A 
ATOM      9  C   UNL     1       0.051  -2.704   2.361  0.00  0.00    +0.259 A 
ATOM     10  O   UNL     1       0.048  -2.088   3.415  0.00  0.00    -0.267 OA
ATOM     11  N   UNL     1       0.037  -2.046   1.182  0.00  0.00    -0.268 N 
ATOM     12  C   UNL     1       0.022  -0.685   1.170  0.00  0.00    +0.099 A 
ENDROOT
BRANCH   7  13
ATOM     13  C   UNL     1       0.095  -6.274   1.112  0.00  0.00    +0.284 C 
BRANCH  13  14
ATOM     14  O   UNL     1      -1.123  -6.755   0.539  0.00  0.00    -0.484 OA
BRANCH  14  15
ATOM     15  C   UNL     1      -1.266  -8.103   0.435  0.00  0.00    +0.142 A 
ATOM     16  C   UNL     1      -0.260  -8.945   0.881  0.00  0.00    +0.047 A 
ATOM     17  C   UNL     1      -0.407 -10.316   0.774  0.00  0.00    +0.004 A 
ATOM     18  C   UNL     1      -1.557 -10.851   0.224  0.00  0.00    +0.002 A 
ATOM     19  C   UNL     1      -2.566 -10.018  -0.223  0.00  0.00    +0.026 A 
ATOM     20  C   UNL     1      -2.428  -8.642  -0.114  0.00  0.00    +0.067 A 
BRANCH  20  21
ATOM     21  N   UNL     1      -3.450  -7.796  -0.560  0.00  0.00    -0.355 N 
ATOM     22  H   UNL     1      -3.350  -6.834  -0.487  0.00  0.00    +0.142 HD
ATOM     23  H   UNL     1      -4.258  -8.172  -0.943  0.00  0.00    +0.142 HD
ENDBRANCH  20  21
ENDBRANCH  14  15
ENDBRANCH  13  14
ENDBRANCH   7  13
TORSDOF 4
