REMARK  Name = ZINC39856007
REMARK  6 active torsions:
REMARK  status: ('A' for Active; 'I' for Inactive)
REMARK    1  A    between atoms: C_1  and  C_2
REMARK    2  A    between atoms: C_6  and  C_7
REMARK    3  A    between atoms: N_9  and  C_10
REMARK    4  A    between atoms: C_18  and  C_26
REMARK    5  A    between atoms: C_18  and  C_27
REMARK    6  A    between atoms: N_21  and  N_22
REMARK                            x       y       z     vdW  Elec       q    Type
REMARK                         _______ _______ _______ _____ _____    ______ ____
ROOT
ATOM      1  C   UNL     1      -0.006   1.502   0.010  0.00  0.00    +0.048 C 
ATOM      2  C   UNL     1       0.021  -0.004   0.002  0.00  0.00    +0.009 A 
ATOM      3  C   UNL     1       0.039  -0.839  -1.123  0.00  0.00    +0.043 A 
ATOM      4  C   UNL     1       0.059  -2.138  -0.673  0.00  0.00    +0.116 A 
ATOM      5  O   UNL     1       0.057  -2.112   0.658  0.00  0.00    -0.454 OA
ATOM      6  C   UNL     1       0.039  -0.831   1.091  0.00  0.00    +0.193 A 
ATOM      7  C   UNL     1       0.076  -3.326  -1.600  0.00  0.00    +0.081 C 
ATOM      8  C   UNL     1      -0.440  -2.905  -2.978  0.00  0.00    -0.023 C 
ATOM      9  C   UNL     1       0.330  -1.684  -3.493  0.00  0.00    +0.064 C 
ATOM     10  C   UNL     1       0.040  -0.512  -2.567  0.00  0.00    +0.073 C 
ATOM     11  N   UNL     1      -0.190   0.685  -3.010  0.00  0.00    -0.175 NA
ATOM     12  C   UNL     1      -0.262  -4.065  -3.960  0.00  0.00    +0.011 C 
ATOM     13  C   UNL     1      -1.927  -2.557  -2.874  0.00  0.00    +0.011 C 
ENDROOT
BRANCH  11  14
ATOM     14  N   UNL     1      -0.176   0.936  -4.388  0.00  0.00    -0.248 N 
ATOM     15  C   UNL     1      -0.419   2.200  -4.855  0.00  0.00    +0.187 C 
ATOM     16  N   UNL     1      -0.406   2.439  -6.166  0.00  0.00    -0.370 N 
ATOM     17  N   UNL     1      -0.668   3.191  -4.000  0.00  0.00    -0.370 N 
ATOM     18  H   UNL     1       0.005   0.215  -5.011  0.00  0.00    +0.192 HD
ATOM     19  H   UNL     1      -0.225   1.718  -6.789  0.00  0.00    +0.159 HD
ATOM     20  H   UNL     1      -0.677   3.017  -3.045  0.00  0.00    +0.159 HD
ATOM     21  H   UNL     1      -0.840   4.086  -4.331  0.00  0.00    +0.159 HD
ATOM     22  H   UNL     1      -0.578   3.334  -6.498  0.00  0.00    +0.159 HD
ENDBRANCH  11  14
BRANCH   6  23
ATOM     23  C   UNL     1       0.035  -0.400   2.493  0.00  0.00    +0.284 C 
ATOM     24  O   UNL     1       0.014   0.786   2.765  0.00  0.00    -0.266 OA
ATOM     25  N   UNL     1       0.054  -1.318   3.480  0.00  0.00    -0.278 N 
ATOM     26  H   UNL     1      -0.010  -2.262   3.266  0.00  0.00    +0.155 HD
BRANCH  25  27
ATOM     27  C   UNL     1       0.167  -0.909   4.813  0.00  0.00    +0.048 A 
ATOM     28  C   UNL     1       0.759   0.309   5.120  0.00  0.00    +0.024 A 
ATOM     29  C   UNL     1       0.869   0.710   6.437  0.00  0.00    +0.002 A 
ATOM     30  C   UNL     1       0.390  -0.100   7.450  0.00  0.00    +0.001 A 
ATOM     31  C   UNL     1      -0.200  -1.314   7.149  0.00  0.00    +0.017 A 
ATOM     32  C   UNL     1      -0.318  -1.718   5.833  0.00  0.00    +0.039 A 
ATOM     33 BR   UNL     1      -1.132  -3.375   5.421  0.00  0.00    -0.048 Br
ENDBRANCH  25  27
ENDBRANCH   6  23
TORSDOF 3
