REMARK  Name = ZINC01324022
REMARK  8 active torsions:
REMARK  status: ('A' for Active; 'I' for Inactive)
REMARK    1  A    between atoms: C_1  and  C_2
REMARK    2  A    between atoms: C_2  and  C_3
REMARK    3  A    between atoms: C_3  and  C_4
REMARK    4  A    between atoms: C_6  and  C_13
REMARK    5  A    between atoms: C_7  and  O_12
REMARK    6  A    between atoms: C_9  and  O_10
REMARK    7  A    between atoms: O_10  and  C_11
REMARK    8  A    between atoms: C_14  and  C_20
REMARK                            x       y       z     vdW  Elec       q    Type
REMARK                         _______ _______ _______ _____ _____    ______ ____
ROOT
ATOM      1  C   UNL     1      -1.095  -4.907   2.833  0.00  0.00    +0.087 A 
ATOM      2  C   UNL     1      -1.282  -6.277   2.561  0.00  0.00    +0.027 A 
ATOM      3  C   UNL     1      -2.412  -6.904   3.084  0.00  0.00    +0.125 A 
ATOM      4  N   UNL     1      -3.262  -6.198   3.811  0.00  0.00    -0.222 NA
ATOM      5  C   UNL     1      -3.056  -4.910   4.048  0.00  0.00    +0.213 A 
ATOM      6  N   UNL     1      -1.996  -4.271   3.579  0.00  0.00    -0.214 NA
ATOM      7  N   UNL     1      -3.974  -4.214   4.814  0.00  0.00    -0.327 N 
ATOM      8  H   UNL     1      -4.754  -4.668   5.169  0.00  0.00    +0.145 HD
ATOM      9  H   UNL     1      -3.838  -3.271   4.997  0.00  0.00    +0.145 HD
ENDROOT
BRANCH   2  10
ATOM     10  C   UNL     1      -0.304  -7.031   1.741  0.00  0.00    -0.011 A 
ATOM     11  C   UNL     1       0.017  -6.591   0.457  0.00  0.00    +0.012 A 
ATOM     12  C   UNL     1       0.926  -7.295  -0.305  0.00  0.00    +0.050 A 
ATOM     13  C   UNL     1       1.524  -8.441   0.201  0.00  0.00    +0.162 A 
ATOM     14  C   UNL     1       1.209  -8.883   1.482  0.00  0.00    +0.163 A 
ATOM     15  C   UNL     1       0.300  -8.177   2.253  0.00  0.00    +0.058 A 
ATOM     16  O   UNL     1       1.793 -10.000   1.997  0.00  0.00    -0.485 OA
ATOM     17  C   UNL     1       2.420 -10.886   1.064  0.00  0.00    +0.270 C 
ATOM     18  C   UNL     1       3.275 -10.047   0.105  0.00  0.00    +0.270 C 
ATOM     19  O   UNL     1       2.416  -9.122  -0.570  0.00  0.00    -0.485 OA
ENDBRANCH   2  10
BRANCH   1  22
ATOM     20  C   UNL     1       2.462  -4.046   1.990  0.00  0.00    -0.005 A 
ATOM     21  C   UNL     1       1.364  -4.717   2.484  0.00  0.00    +0.021 A 
ATOM     22  C   UNL     1       0.086  -4.189   2.304  0.00  0.00    +0.043 A 
ATOM     23  C   UNL     1      -0.077  -2.977   1.622  0.00  0.00    +0.130 A 
ATOM     24  C   UNL     1       1.032  -2.311   1.129  0.00  0.00    +0.092 A 
ATOM     25  C   UNL     1       2.300  -2.841   1.318  0.00  0.00    +0.127 A 
BRANCH  25  26
ATOM     26  O   UNL     1       3.387  -2.182   0.838  0.00  0.00    -0.495 OA
ATOM     27  C   UNL     1       3.150  -0.948   0.157  0.00  0.00    +0.277 C 
ENDBRANCH  25  26
BRANCH  23  28
ATOM     28  O   UNL     1      -1.318  -2.457   1.443  0.00  0.00    -0.506 OA
ATOM     29  H   UNL     1      -1.573  -1.808   2.113  0.00  0.00    +0.292 HD
ENDBRANCH  23  28
BRANCH  20  30
ATOM     30  C   UNL     1       3.842  -4.618   2.185  0.00  0.00    +0.038 C 
BRANCH  30  32
ATOM     31  C   UNL     1       5.879  -4.585   3.631  0.00  0.00    +0.004 C 
ATOM     32  C   UNL     1       4.478  -4.004   3.434  0.00  0.00    +0.001 C 
ENDBRANCH  30  32
ENDBRANCH  20  30
ENDBRANCH   1  22
TORSDOF 6
