REMARK  Name = ZINC49311180
REMARK  9 active torsions:
REMARK  status: ('A' for Active; 'I' for Inactive)
REMARK    1  A    between atoms: C_1  and  C_2
REMARK    2  A    between atoms: C_4  and  C_18
REMARK    3  A    between atoms: C_6  and  C_17
REMARK    4  A    between atoms: C_7  and  O_8
REMARK    5  A    between atoms: O_8  and  C_9
REMARK    6  A    between atoms: C_9  and  C_10
REMARK    7  A    between atoms: C_10  and  O_11
REMARK    8  A    between atoms: O_11  and  C_12
REMARK    9  A    between atoms: C_12  and  C_13
REMARK                            x       y       z     vdW  Elec       q    Type
REMARK                         _______ _______ _______ _____ _____    ______ ____
ROOT
ATOM      1  C   UNL     1      -0.018   1.503   0.010  0.00  0.00    +0.047 C 
ATOM      2  C   UNL     1       0.002  -0.004   0.002  0.00  0.00    -0.008 A 
ATOM      3  C   UNL     1       0.006  -0.682  -1.190  0.00  0.00    +0.018 A 
ATOM      4  C   UNL     1       0.025  -2.082  -1.196  0.00  0.00    +0.015 A 
ATOM      5  C   UNL     1       0.041  -2.783   0.016  0.00  0.00    +0.018 A 
ATOM      6  C   UNL     1       0.037  -2.095   1.203  0.00  0.00    -0.008 A 
ATOM      7  C   UNL     1       0.023  -0.705   1.203  0.00  0.00    +0.126 A 
ATOM      8  C   UNL     1       0.054  -2.848   2.508  0.00  0.00    +0.047 C 
ENDROOT
BRANCH   4   9
ATOM      9  C   UNL     1       0.029  -2.813  -2.470  0.00  0.00    +0.258 C 
ATOM     10  O   UNL     1       0.046  -4.026  -2.473  0.00  0.00    -0.296 OA
ENDBRANCH   4   9
BRANCH   7  11
ATOM     11  O   UNL     1       0.025  -0.029   2.380  0.00  0.00    -0.489 OA
BRANCH  11  12
ATOM     12  C   UNL     1      -1.247   0.277   2.954  0.00  0.00    +0.257 C 
BRANCH  12  13
ATOM     13  C   UNL     1      -1.045   1.034   4.268  0.00  0.00    +0.201 C 
BRANCH  13  14
ATOM     14  O   UNL     1      -0.437   2.300   3.999  0.00  0.00    -0.368 OA
BRANCH  14  15
ATOM     15  C   UNL     1      -0.203   3.092   5.165  0.00  0.00    +0.273 C 
BRANCH  15  16
ATOM     16  C   UNL     1       0.446   4.417   4.760  0.00  0.00    +0.413 C 
ATOM     17  F   UNL     1      -0.406   5.107   3.891  0.00  0.00    -0.168 F 
ATOM     18  F   UNL     1       0.675   5.192   5.902  0.00  0.00    -0.168 F 
ATOM     19  F   UNL     1       1.662   4.162   4.117  0.00  0.00    -0.168 F 
ENDBRANCH  15  16
ENDBRANCH  14  15
ENDBRANCH  13  14
ENDBRANCH  12  13
ENDBRANCH  11  12
ENDBRANCH   7  11
TORSDOF 7
