REMARK  Name = ZINC06589215
REMARK  7 active torsions:
REMARK  status: ('A' for Active; 'I' for Inactive)
REMARK    1  A    between atoms: C_1  and  C_2
REMARK    2  A    between atoms: C_2  and  C_3
REMARK    3  A    between atoms: C_2  and  C_4
REMARK    4  A    between atoms: C_4  and  C_5
REMARK    5  A    between atoms: C_8  and  C_19
REMARK    6  A    between atoms: C_14  and  N_18
REMARK    7  A    between atoms: C_15  and  C_16
REMARK                            x       y       z     vdW  Elec       q    Type
REMARK                         _______ _______ _______ _____ _____    ______ ____
ROOT
ATOM      1  C   UNL     1      -1.605  -1.374  -0.338  0.00  0.00    +0.072 C 
ATOM      2  C   UNL     1      -2.939  -1.822  -0.875  0.00  0.00    +0.050 A 
ATOM      3  C   UNL     1      -3.621  -1.395  -2.019  0.00  0.00    +0.100 A 
ATOM      4  N   UNL     1      -4.755  -2.066  -2.090  0.00  0.00    -0.171 NA
ATOM      5  N   UNL     1      -4.823  -2.937  -0.992  0.00  0.00    -0.246 N 
ATOM      6  H   UNL     1      -5.548  -3.549  -0.793  0.00  0.00    +0.192 HD
ATOM      7  C   UNL     1      -3.701  -2.773  -0.260  0.00  0.00    +0.222 A 
ATOM      8  O   UNL     1      -3.316  -3.393   0.883  0.00  0.00    -0.423 OA
ATOM      9  C   UNL     1      -2.030  -3.252   1.267  0.00  0.00    +0.200 C 
ATOM     10  C   UNL     1      -1.183  -2.340   0.741  0.00  0.00    +0.094 C 
ENDROOT
BRANCH   3  11
ATOM     11  C   UNL     1      -3.151  -0.368  -2.983  0.00  0.00    +0.003 A 
ATOM     12  C   UNL     1      -4.040   0.583  -3.478  0.00  0.00    +0.010 A 
ATOM     13  C   UNL     1      -3.599   1.536  -4.374  0.00  0.00    +0.001 A 
ATOM     14  C   UNL     1      -2.276   1.546  -4.781  0.00  0.00    +0.000 A 
ATOM     15  C   UNL     1      -1.390   0.603  -4.292  0.00  0.00    +0.001 A 
ATOM     16  C   UNL     1      -1.820  -0.350  -3.391  0.00  0.00    +0.010 A 
ENDBRANCH   3  11
BRANCH   9  17
ATOM     17  N   UNL     1      -1.555  -4.085   2.250  0.00  0.00    -0.328 N 
ATOM     18  H   UNL     1      -2.139  -4.750   2.646  0.00  0.00    +0.145 HD
ATOM     19  H   UNL     1      -0.635  -4.008   2.547  0.00  0.00    +0.145 HD
ENDBRANCH   9  17
BRANCH  10  20
ATOM     20  C   UNL     1       0.164  -2.287   1.225  0.00  0.00    +0.100 C 
ATOM     21  N   UNL     1       1.232  -2.246   1.609  0.00  0.00    -0.191 NA
ENDBRANCH  10  20
BRANCH   1  22
ATOM     22  C   UNL     1      -1.731   0.033   0.250  0.00  0.00    +0.017 C 
BRANCH  22  24
ATOM     23  C   UNL     1      -2.484   1.272   2.285  0.00  0.00    +0.007 C 
ATOM     24  C   UNL     1      -2.672  -0.000   1.456  0.00  0.00    -0.016 C 
ATOM     25  C   UNL     1      -4.121  -0.083   0.971  0.00  0.00    +0.007 C 
ENDBRANCH  22  24
ENDBRANCH   1  22
TORSDOF 5
