REMARK  Name = ZINC46875858
REMARK  3 active torsions:
REMARK  status: ('A' for Active; 'I' for Inactive)
REMARK    1  A    between atoms: C_4  and  C_7
REMARK    2  A    between atoms: N_14  and  C_15
REMARK    3  A    between atoms: C_15  and  C_16
REMARK                            x       y       z     vdW  Elec       q    Type
REMARK                         _______ _______ _______ _____ _____    ______ ____
ROOT
ATOM      1  C   UNL     1       3.711  -0.707  -0.038  0.00  0.00    +0.109 C 
ATOM      2  C   UNL     1       4.098  -1.235  -1.426  0.00  0.00    +0.046 C 
ATOM      3  C   UNL     1       4.589  -2.452  -0.630  0.00  0.00    +0.112 C 
ATOM      4  N   UNL     1       3.607  -2.104   0.409  0.00  0.00    -0.278 N 
ATOM      5  C   UNL     1       2.915  -2.772   1.354  0.00  0.00    +0.303 C 
ATOM      6  O   UNL     1       2.151  -2.173   2.085  0.00  0.00    -0.253 OA
ATOM      7  N   UNL     1       3.071  -4.104   1.488  0.00  0.00    -0.296 N 
ATOM      8  H   UNL     1       3.681  -4.582   0.904  0.00  0.00    +0.150 HD
ENDROOT
BRANCH   1  12
ATOM      9  C   UNL     1      -0.017   1.378   0.010  0.00  0.00    +0.000 A 
ATOM     10  C   UNL     1       1.171   2.086   0.002  0.00  0.00    +0.000 A 
ATOM     11  C   UNL     1       2.377   1.411  -0.013  0.00  0.00    +0.005 A 
ATOM     12  C   UNL     1       2.396   0.029  -0.020  0.00  0.00    -0.027 A 
ATOM     13  C   UNL     1       1.208  -0.679  -0.012  0.00  0.00    +0.005 A 
ATOM     14  C   UNL     1       0.002  -0.004   0.002  0.00  0.00    +0.000 A 
ENDBRANCH   1  12
BRANCH   7  15
ATOM     15  C   UNL     1       2.320  -4.830   2.515  0.00  0.00    +0.150 C 
BRANCH  15  16
ATOM     16  C   UNL     1       2.678  -6.316   2.454  0.00  0.00    +0.195 C 
ATOM     17  C   UNL     1       1.853  -7.122   3.486  0.00  0.00    +0.085 C 
ATOM     18  C   UNL     1       1.597  -8.417   2.740  0.00  0.00    -0.002 A 
ATOM     19  C   UNL     1       1.169  -9.657   3.160  0.00  0.00    +0.007 A 
ATOM     20  C   UNL     1       1.026 -10.685   2.246  0.00  0.00    +0.000 A 
ATOM     21  C   UNL     1       1.314 -10.463   0.912  0.00  0.00    +0.004 A 
ATOM     22  C   UNL     1       1.740  -9.221   0.488  0.00  0.00    +0.046 A 
ATOM     23  C   UNL     1       1.883  -8.179   1.402  0.00  0.00    +0.124 A 
ATOM     24  O   UNL     1       2.270  -6.888   1.199  0.00  0.00    -0.487 OA
ENDBRANCH  15  16
ENDBRANCH   7  15
TORSDOF 3
