REMARK  Name = ZINC63800193
REMARK  6 active torsions:
REMARK  status: ('A' for Active; 'I' for Inactive)
REMARK    1  A    between atoms: C_4  and  C_7
REMARK    2  A    between atoms: C_7  and  C_9
REMARK    3  A    between atoms: C_7  and  C_25
REMARK    4  A    between atoms: C_9  and  N_10
REMARK    5  A    between atoms: C_14  and  S_17
REMARK    6  A    between atoms: S_17  and  N_20
REMARK                            x       y       z     vdW  Elec       q    Type
REMARK                         _______ _______ _______ _____ _____    ______ ____
ROOT
ATOM      1  C   UNL     1       3.711  -0.707  -0.038  0.00  0.00    +0.064 C 
ENDROOT
BRANCH   1   2
ATOM      2  C   UNL     1       3.816  -1.579   1.188  0.00  0.00    -0.033 C 
ATOM      3  C   UNL     1       4.756  -1.509   2.157  0.00  0.00    -0.000 A 
ATOM      4  C   UNL     1       5.920  -0.636   2.352  0.00  0.00    +0.010 A 
ATOM      5  C   UNL     1       6.696  -0.812   3.446  0.00  0.00    +0.001 A 
ATOM      6  C   UNL     1       6.417  -1.805   4.396  0.00  0.00    +0.002 A 
ATOM      7  C   UNL     1       5.366  -2.646   4.285  0.00  0.00    +0.026 A 
ATOM      8  C   UNL     1       4.483  -2.550   3.174  0.00  0.00    +0.043 A 
ATOM      9  N   UNL     1       3.415  -3.236   2.846  0.00  0.00    -0.380 N 
ATOM     10  C   UNL     1       2.886  -2.703   1.585  0.00  0.00    +0.145 C 
ATOM     11  H   UNL     1       3.036  -3.970   3.354  0.00  0.00    +0.160 HD
ENDBRANCH   1   2
BRANCH   1  15
ATOM     12  C   UNL     1      -0.017   1.378   0.010  0.00  0.00    +0.000 A 
ATOM     13  C   UNL     1       1.171   2.086   0.002  0.00  0.00    +0.000 A 
ATOM     14  C   UNL     1       2.377   1.411  -0.013  0.00  0.00    +0.004 A 
ATOM     15  C   UNL     1       2.396   0.029  -0.020  0.00  0.00    -0.039 A 
ATOM     16  C   UNL     1       1.208  -0.679  -0.012  0.00  0.00    +0.004 A 
ATOM     17  C   UNL     1       0.002  -0.004   0.002  0.00  0.00    +0.000 A 
ENDBRANCH   1  15
BRANCH   1  18
ATOM     18  C   UNL     1       3.791  -1.579  -1.292  0.00  0.00    +0.115 C 
BRANCH  18  19
ATOM     19  N   UNL     1       3.810  -0.724  -2.481  0.00  0.00    -0.328 N 
ATOM     20  C   UNL     1       3.880  -1.294  -3.747  0.00  0.00    +0.119 A 
ATOM     21  C   UNL     1       3.926  -2.679  -3.877  0.00  0.00    +0.045 A 
ATOM     22  C   UNL     1       3.996  -3.233  -5.143  0.00  0.00    +0.033 A 
ATOM     23  C   UNL     1       4.017  -2.381  -6.239  0.00  0.00    +0.124 A 
ATOM     24  C   UNL     1       3.968  -1.017  -6.036  0.00  0.00    +0.141 A 
ATOM     25  N   UNL     1       3.896  -0.516  -4.817  0.00  0.00    -0.239 NA
ATOM     26  H   UNL     1       3.773   0.241  -2.385  0.00  0.00    +0.147 HD
BRANCH  23  27
ATOM     27  S   UNL     1       4.105  -3.035  -7.873  0.00  0.00    +0.062 S 
ATOM     28  O   UNL     1       4.661  -2.014  -8.690  0.00  0.00    -0.153 OA
ATOM     29  O   UNL     1       4.691  -4.325  -7.762  0.00  0.00    -0.153 OA
BRANCH  27  30
ATOM     30  N   UNL     1       2.550  -3.264  -8.393  0.00  0.00    -0.177 NA
ATOM     31  C   UNL     1       1.758  -4.489  -8.213  0.00  0.00    +0.109 C 
ATOM     32  C   UNL     1       0.386  -4.251  -8.879  0.00  0.00    +0.018 C 
ATOM     33  C   UNL     1       0.685  -3.113  -9.891  0.00  0.00    +0.018 C 
ATOM     34  C   UNL     1       1.729  -2.272  -9.110  0.00  0.00    +0.109 C 
ENDBRANCH  27  30
ENDBRANCH  23  27
ENDBRANCH  18  19
ENDBRANCH   1  18
TORSDOF 6
