REMARK  Name = ZINC06193584
REMARK  10 active torsions:
REMARK  status: ('A' for Active; 'I' for Inactive)
REMARK    1  A    between atoms: C_1  and  C_2
REMARK    2  A    between atoms: C_2  and  N_66
REMARK    3  A    between atoms: C_3  and  C_4
REMARK    4  A    between atoms: C_3  and  N_66
REMARK    5  A    between atoms: C_10  and  C_12
REMARK    6  A    between atoms: C_10  and  C_26
REMARK    7  A    between atoms: C_10  and  N_66
REMARK    8  A    between atoms: C_16  and  C_25
REMARK    9  A    between atoms: C_17  and  C_24
REMARK   10  A    between atoms: N_30  and  C_31
REMARK                            x       y       z     vdW  Elec       q    Type
REMARK                         _______ _______ _______ _____ _____    ______ ____
ROOT
ATOM      1  C   UNL     1      -4.553   3.653  -0.104  0.00  0.00    +0.039 C 
ENDROOT
BRANCH   1   2
ATOM      2  C   UNL     1      -3.126   3.394  -0.512  0.00  0.00    +0.011 A 
ATOM      3  C   UNL     1      -2.442   4.333  -1.211  0.00  0.00    +0.017 A 
ATOM      4  C   UNL     1      -1.057   4.051  -1.592  0.00  0.00    -0.001 A 
ATOM      5  C   UNL     1      -0.301   4.980  -2.314  0.00  0.00    +0.013 A 
ATOM      6  C   UNL     1       0.989   4.686  -2.654  0.00  0.00    -0.047 A 
ATOM      7  C   UNL     1       1.557   3.473  -2.289  0.00  0.00    -0.046 A 
ATOM      8  C   UNL     1       0.831   2.542  -1.578  0.00  0.00    +0.030 A 
ATOM      9  C   UNL     1      -0.486   2.818  -1.225  0.00  0.00    +0.049 A 
ATOM     10  N   UNL     1      -1.233   1.907  -0.508  0.00  0.00    -0.322 N 
ATOM     11  H   UNL     1      -0.823   1.036  -0.240  0.00  0.00    +0.169 HD
ATOM     12  C   UNL     1      -2.505   2.175  -0.163  0.00  0.00    +0.251 A 
ATOM     13  O   UNL     1      -3.137   1.345   0.466  0.00  0.00    -0.268 OA
ATOM     14  C   UNL     1       2.982   3.171  -2.676  0.00  0.00    +0.044 C 
ATOM     15  C   UNL     1       1.803   5.688  -3.432  0.00  0.00    +0.044 C 
ENDBRANCH   1   2
BRANCH   1  16
ATOM     16  C   UNL     1      -5.461   2.676  -0.808  0.00  0.00    +0.143 A 
ATOM     17  N   UNL     1      -5.697   1.436  -0.457  0.00  0.00    -0.115 NA
ATOM     18  N   UNL     1      -6.526   0.934  -1.306  0.00  0.00    -0.023 NA
ATOM     19  N   UNL     1      -6.819   1.819  -2.193  0.00  0.00    -0.044 NA
ATOM     20  N   UNL     1      -6.182   2.908  -1.920  0.00  0.00    -0.227 N 
BRANCH  20  21
ATOM     21  C   UNL     1      -6.233   4.160  -2.679  0.00  0.00    +0.111 C 
ATOM     22  C   UNL     1      -7.700   4.585  -2.899  0.00  0.00    +0.027 C 
ATOM     23  C   UNL     1      -7.710   5.188  -4.326  0.00  0.00    +0.002 C 
ATOM     24  C   UNL     1      -6.736   4.262  -5.096  0.00  0.00    +0.002 C 
ATOM     25  C   UNL     1      -5.621   3.955  -4.076  0.00  0.00    +0.027 C 
ENDBRANCH  20  21
ENDBRANCH   1  16
BRANCH   1  26
ATOM     26  N   UNL     1      -4.683   3.457   1.355  0.00  0.00    +0.392 N 
ATOM     27  H   UNL     1      -4.573   2.459   1.569  0.00  0.00    -0.080 HD
BRANCH  26  29
ATOM     28  C   UNL     1      -3.629   3.804   3.535  0.00  0.00    -0.017 C 
ATOM     29  C   UNL     1      -3.631   4.218   2.062  0.00  0.00    -0.080 C 
ENDBRANCH  26  29
BRANCH  26  30
ATOM     30  C   UNL     1      -6.018   3.901   1.807  0.00  0.00    -0.042 C 
BRANCH  30  31
ATOM     31  C   UNL     1      -6.167   5.391   1.633  0.00  0.00    -0.064 A 
ATOM     32  C   UNL     1      -5.764   6.248   2.639  0.00  0.00    +0.002 A 
ATOM     33  C   UNL     1      -5.895   7.614   2.477  0.00  0.00    +0.000 A 
ATOM     34  C   UNL     1      -6.440   8.123   1.313  0.00  0.00    +0.000 A 
ATOM     35  C   UNL     1      -6.849   7.265   0.309  0.00  0.00    +0.000 A 
ATOM     36  C   UNL     1      -6.712   5.899   0.469  0.00  0.00    +0.002 A 
ENDBRANCH  30  31
ENDBRANCH  26  30
ENDBRANCH   1  26
TORSDOF 7
