REMARK  Name = ZINC52798276
REMARK  5 active torsions:
REMARK  status: ('A' for Active; 'I' for Inactive)
REMARK    1  A    between atoms: C_1  and  N_2
REMARK    2  A    between atoms: C_6  and  S_12
REMARK    3  A    between atoms: S_12  and  N_15
REMARK    4  A    between atoms: N_15  and  C_16
REMARK    5  A    between atoms: C_19  and  C_22
REMARK                            x       y       z     vdW  Elec       q    Type
REMARK                         _______ _______ _______ _____ _____    ______ ____
ROOT
ATOM      1  S   UNL     1      -4.392  -5.104  -0.022  0.00  0.00    +0.072 S 
ATOM      2  O   UNL     1      -5.583  -4.468   0.421  0.00  0.00    -0.150 OA
ATOM      3  O   UNL     1      -3.138  -4.904   0.616  0.00  0.00    -0.150 OA
ENDROOT
BRANCH   1   9
ATOM      4  C   UNL     1      -5.006 -12.102   0.233  0.00  0.00    +0.156 C 
ATOM      5  N   UNL     1      -5.733 -10.844   0.047  0.00  0.00    -0.277 N 
ATOM      6  C   UNL     1      -5.184  -9.562   0.073  0.00  0.00    +0.090 A 
ATOM      7  C   UNL     1      -3.898  -9.082   0.263  0.00  0.00    +0.031 A 
ATOM      8  C   UNL     1      -3.661  -7.721   0.233  0.00  0.00    +0.031 A 
ATOM      9  C   UNL     1      -4.704  -6.838   0.013  0.00  0.00    +0.112 A 
ATOM     10  C   UNL     1      -5.988  -7.309  -0.177  0.00  0.00    +0.077 A 
ATOM     11  C   UNL     1      -6.235  -8.673  -0.149  0.00  0.00    +0.159 A 
ATOM     12  O   UNL     1      -7.362  -9.412  -0.299  0.00  0.00    -0.407 OA
ATOM     13  C   UNL     1      -7.054 -10.713  -0.186  0.00  0.00    +0.421 A 
ATOM     14  O   UNL     1      -7.845 -11.632  -0.278  0.00  0.00    -0.223 OA
ENDBRANCH   1   9
BRANCH   1  15
ATOM     15  N   UNL     1      -4.189  -4.676  -1.609  0.00  0.00    -0.216 N 
ATOM     16  H   UNL     1      -4.812  -4.064  -2.030  0.00  0.00    +0.174 HD
BRANCH  15  17
ATOM     17  C   UNL     1      -3.120  -5.196  -2.341  0.00  0.00    +0.048 A 
ATOM     18  C   UNL     1      -1.833  -4.718  -2.126  0.00  0.00    +0.025 A 
ATOM     19  C   UNL     1      -0.776  -5.231  -2.848  0.00  0.00    +0.012 A 
ATOM     20  C   UNL     1      -0.999  -6.229  -3.794  0.00  0.00    +0.002 A 
ATOM     21  C   UNL     1      -2.291  -6.708  -4.008  0.00  0.00    +0.012 A 
ATOM     22  C   UNL     1      -3.344  -6.196  -3.280  0.00  0.00    +0.025 A 
BRANCH  20  23
ATOM     23  C   UNL     1       0.137  -6.782  -4.573  0.00  0.00    +0.092 A 
ATOM     24  C   UNL     1       0.056  -7.784  -5.559  0.00  0.00    +0.049 A 
ATOM     25  C   UNL     1       1.303  -8.006  -6.028  0.00  0.00    +0.105 A 
ATOM     26  N   UNL     1       2.147  -7.182  -5.372  0.00  0.00    -0.284 N 
ATOM     27  H   UNL     1       3.107  -7.125  -5.506  0.00  0.00    +0.188 HD
ATOM     28  N   UNL     1       1.397  -6.418  -4.468  0.00  0.00    -0.174 NA
ENDBRANCH  20  23
ENDBRANCH  15  17
ENDBRANCH   1  15
TORSDOF 4
