REMARK  Name = ZINC24659061
REMARK  5 active torsions:
REMARK  status: ('A' for Active; 'I' for Inactive)
REMARK    1  A    between atoms: C_1  and  C_2
REMARK    2  A    between atoms: C_6  and  C_15
REMARK    3  A    between atoms: N_17  and  C_18
REMARK    4  A    between atoms: C_18  and  C_20
REMARK    5  A    between atoms: C_18  and  C_30
REMARK                            x       y       z     vdW  Elec       q    Type
REMARK                         _______ _______ _______ _____ _____    ______ ____
ROOT
ATOM      1  C   UNL     1      -1.854  -3.079  -0.946  0.00  0.00    +0.256 C 
ATOM      2  O   UNL     1      -2.909  -2.657  -0.521  0.00  0.00    -0.272 OA
ATOM      3  N   UNL     1      -0.692  -2.624  -0.436  0.00  0.00    -0.301 N 
ATOM      4  H   UNL     1       0.265  -3.007  -0.821  0.00  0.00    +0.150 HD
ENDROOT
BRANCH   1  10
ATOM      5  C   UNL     1       0.961  -3.823  -5.144  0.00  0.00    +0.109 C 
ATOM      6  C   UNL     1      -0.235  -4.738  -5.197  0.00  0.00    +0.217 C 
ATOM      7  O   UNL     1      -0.260  -5.658  -5.987  0.00  0.00    -0.276 OA
ATOM      8  N   UNL     1      -1.277  -4.535  -4.366  0.00  0.00    -0.264 N 
ATOM      9  C   UNL     1      -1.222  -3.508  -3.311  0.00  0.00    +0.168 C 
ATOM     10  C   UNL     1      -1.842  -4.112  -2.043  0.00  0.00    +0.276 C 
ATOM     11  O   UNL     1      -3.182  -4.517  -2.334  0.00  0.00    -0.476 OA
ATOM     12  C   UNL     1      -3.388  -5.274  -3.443  0.00  0.00    +0.143 A 
ATOM     13  C   UNL     1      -2.453  -5.296  -4.475  0.00  0.00    +0.078 A 
ATOM     14  C   UNL     1      -2.679  -6.068  -5.603  0.00  0.00    +0.027 A 
ATOM     15  C   UNL     1      -3.835  -6.820  -5.703  0.00  0.00    +0.002 A 
ATOM     16  C   UNL     1      -4.764  -6.802  -4.679  0.00  0.00    +0.004 A 
ATOM     17  C   UNL     1      -4.544  -6.032  -3.552  0.00  0.00    +0.047 A 
ENDBRANCH   1  10
BRANCH   3  18
ATOM     18  C   UNL     1      -0.703  -1.621   0.631  0.00  0.00    +0.140 C 
BRANCH  18  19
ATOM     19  C   UNL     1       0.590  -0.847   0.606  0.00  0.00    -0.022 A 
ATOM     20  C   UNL     1       1.784  -1.500   0.364  0.00  0.00    +0.006 A 
ATOM     21  C   UNL     1       2.964  -0.785   0.345  0.00  0.00    +0.004 A 
ATOM     22  C   UNL     1       2.962   0.586   0.566  0.00  0.00    -0.044 A 
ATOM     23  C   UNL     1       1.772   1.237   0.803  0.00  0.00    -0.044 A 
ATOM     24  C   UNL     1       0.586   0.515   0.825  0.00  0.00    +0.009 A 
ATOM     25  C   UNL     1       1.693   2.723   1.034  0.00  0.00    +0.035 C 
ATOM     26  C   UNL     1       3.065   3.282   1.406  0.00  0.00    +0.005 C 
ATOM     27  C   UNL     1       4.081   2.806   0.361  0.00  0.00    +0.005 C 
ATOM     28  C   UNL     1       4.287   1.303   0.539  0.00  0.00    +0.035 C 
ENDBRANCH  18  19
BRANCH  18  29
ATOM     29  C   UNL     1      -0.853  -2.307   1.964  0.00  0.00    +0.014 A 
ATOM     30  C   UNL     1      -1.585  -1.929   3.041  0.00  0.00    +0.013 A 
ATOM     31  C   UNL     1      -1.575  -2.725   4.171  0.00  0.00    +0.008 A 
ATOM     32  C   UNL     1      -0.825  -3.855   4.172  0.00  0.00    +0.045 A 
ATOM     33  S   UNL     1      -0.106  -3.823   2.539  0.00  0.00    -0.099 S 
ENDBRANCH  18  29
ENDBRANCH   3  18
TORSDOF 4
