REMARK  Name = ZINC04354633
REMARK  8 active torsions:
REMARK  status: ('A' for Active; 'I' for Inactive)
REMARK    1  A    between atoms: C_1  and  C_2
REMARK    2  A    between atoms: C_2  and  C_3
REMARK    3  A    between atoms: C_4  and  C_16
REMARK    4  A    between atoms: C_5  and  O_15
REMARK    5  A    between atoms: N_6  and  C_8
REMARK    6  A    between atoms: N_20  and  C_24
REMARK    7  A    between atoms: C_24  and  C_25
REMARK    8  A    between atoms: C_28  and  C_31
REMARK                            x       y       z     vdW  Elec       q    Type
REMARK                         _______ _______ _______ _____ _____    ______ ____
ROOT
ATOM      1  C   UNL     1      -1.402   3.788   3.880  0.00  0.00    +0.043 C 
ATOM      2  C   UNL     1      -1.320   2.788   2.962  0.00  0.00    +0.099 C 
ATOM      3  C   UNL     1      -0.435   2.714   1.854  0.00  0.00    +0.269 C 
ATOM      4  O   UNL     1       0.403   3.540   1.540  0.00  0.00    -0.268 OA
ATOM      5  N   UNL     1      -0.698   1.558   1.213  0.00  0.00    -0.216 N 
ATOM      6  C   UNL     1      -1.682   0.903   1.851  0.00  0.00    +0.313 C 
ATOM      7  O   UNL     1      -2.137  -0.174   1.514  0.00  0.00    -0.252 OA
ATOM      8  N   UNL     1      -2.089   1.613   2.920  0.00  0.00    -0.265 N 
ATOM      9  H   UNL     1      -2.786   1.361   3.546  0.00  0.00    +0.157 HD
ENDROOT
BRANCH   1  11
ATOM     10  C   UNL     1      -2.111   3.888   6.351  0.00  0.00    +0.074 A 
ATOM     11  C   UNL     1      -2.374   3.703   4.972  0.00  0.00    +0.061 A 
ATOM     12  C   UNL     1      -3.732   3.417   4.852  0.00  0.00    +0.223 A 
ATOM     13  N   UNL     1      -4.253   3.437   6.098  0.00  0.00    -0.200 N 
ATOM     14  N   UNL     1      -3.229   3.734   7.003  0.00  0.00    -0.168 NA
BRANCH  13  15
ATOM     15  C   UNL     1      -5.595   3.199   6.428  0.00  0.00    +0.069 A 
ATOM     16  C   UNL     1      -6.606   3.620   5.575  0.00  0.00    +0.031 A 
ATOM     17  C   UNL     1      -7.927   3.381   5.900  0.00  0.00    +0.040 A 
ATOM     18  C   UNL     1      -8.243   2.730   7.081  0.00  0.00    +0.124 A 
ATOM     19  C   UNL     1      -7.236   2.313   7.935  0.00  0.00    +0.040 A 
ATOM     20  C   UNL     1      -5.914   2.546   7.611  0.00  0.00    +0.031 A 
ATOM     21  F   UNL     1      -9.536   2.501   7.399  0.00  0.00    -0.205 F 
ENDBRANCH  13  15
BRANCH  10  23
ATOM     22  C   UNL     1      -0.595   5.730   7.028  0.00  0.00    +0.010 C 
ATOM     23  C   UNL     1      -0.770   4.212   6.959  0.00  0.00    +0.054 C 
ENDBRANCH  10  23
BRANCH  12  24
ATOM     24  O   UNL     1      -4.403   3.167   3.703  0.00  0.00    -0.492 OA
ATOM     25  H   UNL     1      -4.424   2.232   3.455  0.00  0.00    +0.294 HD
ENDBRANCH  12  24
ENDBRANCH   1  11
BRANCH   5  26
ATOM     26  C   UNL     1      -0.013   1.086   0.008  0.00  0.00    +0.153 C 
BRANCH  26  27
ATOM     27  C   UNL     1      -0.742   1.585  -1.213  0.00  0.00    -0.030 A 
ATOM     28  C   UNL     1      -1.750   0.825  -1.775  0.00  0.00    +0.005 A 
ATOM     29  C   UNL     1      -2.422   1.285  -2.892  0.00  0.00    +0.003 A 
ATOM     30  C   UNL     1      -2.078   2.501  -3.453  0.00  0.00    -0.050 A 
ATOM     31  C   UNL     1      -1.066   3.259  -2.894  0.00  0.00    +0.003 A 
ATOM     32  C   UNL     1      -0.398   2.801  -1.774  0.00  0.00    +0.005 A 
ATOM     33  C   UNL     1      -2.807   2.999  -4.674  0.00  0.00    +0.044 C 
ENDBRANCH  26  27
ENDBRANCH   5  26
TORSDOF 6
