REMARK  Name = ZINC64502501
REMARK  10 active torsions:
REMARK  status: ('A' for Active; 'I' for Inactive)
REMARK    1  A    between atoms: C_1  and  C_2
REMARK    2  A    between atoms: C_2  and  C_3
REMARK    3  A    between atoms: C_3  and  C_4
REMARK    4  A    between atoms: C_8  and  C_11
REMARK    5  A    between atoms: N_13  and  C_14
REMARK    6  A    between atoms: C_18  and  C_20
REMARK    7  A    between atoms: N_22  and  C_23
REMARK    8  A    between atoms: C_23  and  C_24
REMARK    9  A    between atoms: C_24  and  C_25
REMARK   10  A    between atoms: C_28  and  C_34
REMARK                            x       y       z     vdW  Elec       q    Type
REMARK                         _______ _______ _______ _____ _____    ______ ____
ROOT
ATOM      1  C   UNL     1       2.049  -7.655   1.078  0.00  0.00    +0.034 A 
ATOM      2  C   UNL     1       1.055  -7.777   0.114  0.00  0.00    +0.023 A 
ATOM      3  C   UNL     1       0.529  -9.019  -0.190  0.00  0.00    +0.003 A 
ATOM      4  C   UNL     1       0.987 -10.146   0.462  0.00  0.00    +0.013 A 
ATOM      5  C   UNL     1       1.984 -10.034   1.431  0.00  0.00    +0.038 A 
ATOM      6  C   UNL     1       2.520  -8.782   1.734  0.00  0.00    +0.036 A 
ENDROOT
BRANCH   1   9
ATOM      7  C   UNL     1       3.883  -6.271   1.695  0.00  0.00    +0.254 C 
ATOM      8  O   UNL     1       4.580  -7.259   1.795  0.00  0.00    -0.272 OA
ATOM      9  N   UNL     1       2.578  -6.396   1.382  0.00  0.00    -0.283 N 
ATOM     10  H   UNL     1       2.005  -5.613   1.368  0.00  0.00    +0.155 HD
BRANCH   7  14
ATOM     11  C   UNL     1       6.895  -4.614   0.695  0.00  0.00    +0.187 C 
ATOM     12  N   UNL     1       5.673  -4.022   0.105  0.00  0.00    -0.177 NA
ATOM     13  N   UNL     1       4.595  -4.151   0.651  0.00  0.00    -0.167 NA
ATOM     14  C   UNL     1       4.476  -4.904   1.921  0.00  0.00    +0.272 C 
ATOM     15  S   UNL     1       6.263  -5.014   2.386  0.00  0.00    -0.095 S 
BRANCH  11  16
ATOM     16  C   UNL     1       8.036  -3.596   0.752  0.00  0.00    +0.039 C 
BRANCH  16  18
ATOM     17  C   UNL     1      10.410  -3.230   1.437  0.00  0.00    +0.004 C 
ATOM     18  C   UNL     1       9.270  -4.248   1.380  0.00  0.00    -0.000 C 
ENDBRANCH  16  18
ENDBRANCH  11  16
ENDBRANCH   7  14
ENDBRANCH   1   9
BRANCH   5  19
ATOM     19  C   UNL     1       2.477 -11.240   2.131  0.00  0.00    +0.244 C 
ATOM     20  O   UNL     1       3.346 -11.140   2.975  0.00  0.00    -0.270 OA
ATOM     21  N   UNL     1       1.962 -12.449   1.833  0.00  0.00    -0.311 N 
ATOM     22  H   UNL     1       1.269 -12.529   1.160  0.00  0.00    +0.149 HD
BRANCH  21  23
ATOM     23  C   UNL     1       2.450 -13.644   2.526  0.00  0.00    +0.109 C 
BRANCH  23  24
ATOM     24  C   UNL     1       1.707 -14.876   2.006  0.00  0.00    +0.052 C 
BRANCH  24  25
ATOM     25  C   UNL     1       2.209 -16.105   2.719  0.00  0.00    -0.040 C 
ATOM     26  C   UNL     1       1.665 -16.691   3.809  0.00  0.00    -0.001 A 
ATOM     27  C   UNL     1       0.488 -16.372   4.627  0.00  0.00    +0.013 A 
ATOM     28  C   UNL     1       0.189 -17.163   5.683  0.00  0.00    -0.050 A 
ATOM     29  C   UNL     1       0.973 -18.276   6.015  0.00  0.00    +0.005 A 
ATOM     30  C   UNL     1       2.068 -18.633   5.311  0.00  0.00    +0.026 A 
ATOM     31  C   UNL     1       2.475 -17.873   4.180  0.00  0.00    +0.043 A 
ATOM     32  N   UNL     1       3.481 -18.012   3.351  0.00  0.00    -0.380 N 
ATOM     33  C   UNL     1       3.419 -16.936   2.356  0.00  0.00    +0.144 C 
ATOM     34  C   UNL     1      -1.018 -16.837   6.525  0.00  0.00    +0.044 C 
ATOM     35  H   UNL     1       4.152 -18.711   3.388  0.00  0.00    +0.160 HD
ENDBRANCH  24  25
ENDBRANCH  23  24
ENDBRANCH  21  23
ENDBRANCH   5  19
TORSDOF 8
