REMARK  Name = ZINC02193909
REMARK  2 active torsions:
REMARK  status: ('A' for Active; 'I' for Inactive)
REMARK    1  A    between atoms: C_6  and  C_7
REMARK    2  A    between atoms: C_10  and  C_17
REMARK                            x       y       z     vdW  Elec       q    Type
REMARK                         _______ _______ _______ _____ _____    ______ ____
ROOT
ATOM      1  C   UNL     1      -1.293  -0.775   0.011  0.00  0.00    +0.158 C 
ATOM      2  C   UNL     1      -1.626  -1.151  -1.421  0.00  0.00    +0.030 C 
ATOM      3  C   UNL     1      -1.768  -2.461  -1.702  0.00  0.00    +0.073 C 
ATOM      4  N   UNL     1      -1.620  -3.413  -0.747  0.00  0.00    -0.216 NA
ATOM      5  C   UNL     1      -1.333  -3.162   0.508  0.00  0.00    +0.227 C 
ATOM      6  N   UNL     1      -1.155  -1.886   0.962  0.00  0.00    -0.162 N 
ATOM      7  N   UNL     1      -0.865  -1.955   2.325  0.00  0.00    -0.055 NA
ATOM      8  N   UNL     1      -0.860  -3.138   2.687  0.00  0.00    -0.058 NA
ATOM      9  N   UNL     1      -1.147  -3.968   1.598  0.00  0.00    -0.187 N 
ATOM     10  H   UNL     1      -1.204  -4.936   1.613  0.00  0.00    +0.179 HD
ENDROOT
BRANCH   1  16
ATOM     11  C   UNL     1      -0.017   1.378   0.010  0.00  0.00    +0.007 A 
ATOM     12  C   UNL     1       1.171   2.086   0.002  0.00  0.00    +0.020 A 
ATOM     13  C   UNL     1       2.378   1.410  -0.013  0.00  0.00    +0.041 A 
ATOM     14  C   UNL     1       2.396   0.027  -0.021  0.00  0.00    +0.020 A 
ATOM     15  C   UNL     1       1.208  -0.679  -0.013  0.00  0.00    +0.007 A 
ATOM     16  C   UNL     1       0.002  -0.004   0.002  0.00  0.00    -0.021 A 
ATOM     17 CL   UNL     1       3.870   2.298  -0.023  0.00  0.00    -0.084 Cl
ENDBRANCH   1  16
BRANCH   3  18
ATOM     18  C   UNL     1      -2.095  -2.872  -3.090  0.00  0.00    +0.000 A 
ATOM     19  C   UNL     1      -2.245  -1.911  -4.087  0.00  0.00    +0.011 A 
ATOM     20  C   UNL     1      -2.549  -2.298  -5.376  0.00  0.00    +0.016 A 
ATOM     21  C   UNL     1      -2.704  -3.640  -5.679  0.00  0.00    +0.018 A 
ATOM     22  C   UNL     1      -2.555  -4.599  -4.693  0.00  0.00    +0.016 A 
ATOM     23  C   UNL     1      -2.246  -4.222  -3.402  0.00  0.00    +0.011 A 
ATOM     24 BR   UNL     1      -3.120  -4.164  -7.448  0.00  0.00    -0.050 Br
ENDBRANCH   3  18
TORSDOF 2
