REMARK  Name = ZINC64439263
REMARK  7 active torsions:
REMARK  status: ('A' for Active; 'I' for Inactive)
REMARK    1  A    between atoms: C_1  and  C_2
REMARK    2  A    between atoms: N_7  and  C_10
REMARK    3  A    between atoms: C_10  and  C_11
REMARK    4  A    between atoms: N_13  and  C_14
REMARK    5  A    between atoms: C_14  and  C_15
REMARK    6  A    between atoms: C_23  and  C_24
REMARK    7  A    between atoms: C_26  and  C_29
REMARK                            x       y       z     vdW  Elec       q    Type
REMARK                         _______ _______ _______ _____ _____    ______ ____
ROOT
ATOM      1  C   UNL     1      -0.018   1.503   0.010  0.00  0.00    +0.046 C 
ATOM      2  C   UNL     1       0.002  -0.004   0.002  0.00  0.00    -0.017 A 
ATOM      3  C   UNL     1       0.005  -0.699  -1.212  0.00  0.00    +0.076 A 
ATOM      4  C   UNL     1       0.025  -2.108  -1.115  0.00  0.00    +0.116 A 
ATOM      5  N   UNL     1       0.029  -2.884  -2.190  0.00  0.00    -0.230 NA
ATOM      6  C   UNL     1       0.015  -2.384  -3.396  0.00  0.00    +0.203 A 
ATOM      7  N   UNL     1      -0.004  -1.046  -3.615  0.00  0.00    -0.290 N 
ATOM      8  C   UNL     1      -0.010  -0.168  -2.594  0.00  0.00    +0.263 A 
ATOM      9  O   UNL     1      -0.027   1.033  -2.801  0.00  0.00    -0.267 OA
ATOM     10  S   UNL     1       0.039  -2.394   0.637  0.00  0.00    -0.063 S 
ATOM     11  C   UNL     1       0.023  -0.693   1.177  0.00  0.00    +0.082 A 
ENDROOT
BRANCH  11  12
ATOM     12  C   UNL     1       0.030  -0.167   2.548  0.00  0.00    +0.266 A 
ATOM     13  N   UNL     1       0.056  -0.885   3.651  0.00  0.00    -0.187 NA
ATOM     14  C   UNL     1       0.055  -0.078   4.722  0.00  0.00    +0.202 A 
ATOM     15  N   UNL     1       0.028   1.168   4.314  0.00  0.00    -0.056 NA
ATOM     16  O   UNL     1       0.018   1.133   2.895  0.00  0.00    -0.332 OA
BRANCH  14  17
ATOM     17  C   UNL     1       0.079  -0.522   6.139  0.00  0.00    +0.025 A 
ATOM     18  C   UNL     1       0.112  -1.881   6.464  0.00  0.00    +0.031 A 
ATOM     19  C   UNL     1       0.134  -2.251   7.794  0.00  0.00    +0.111 A 
ATOM     20  N   UNL     1       0.123  -1.342   8.749  0.00  0.00    -0.263 NA
ATOM     21  C   UNL     1       0.092  -0.050   8.485  0.00  0.00    +0.111 A 
ATOM     22  C   UNL     1       0.075   0.406   7.182  0.00  0.00    +0.031 A 
ENDBRANCH  14  17
ENDBRANCH  11  12
BRANCH   7  23
ATOM     23  C   UNL     1      -0.019  -0.545  -4.992  0.00  0.00    +0.221 C 
BRANCH  23  24
ATOM     24  C   UNL     1      -1.445  -0.392  -5.456  0.00  0.00    +0.233 C 
ATOM     25  O   UNL     1      -2.358  -0.674  -4.710  0.00  0.00    -0.274 OA
ATOM     26  N   UNL     1      -1.704   0.057  -6.700  0.00  0.00    -0.310 N 
ATOM     27  H   UNL     1      -0.974   0.283  -7.296  0.00  0.00    +0.149 HD
BRANCH  26  28
ATOM     28  C   UNL     1      -3.090   0.206  -7.150  0.00  0.00    +0.141 C 
BRANCH  28  29
ATOM     29  C   UNL     1      -3.106   0.721  -8.566  0.00  0.00    -0.012 A 
ATOM     30  C   UNL     1      -3.327   2.063  -8.811  0.00  0.00    +0.006 A 
ATOM     31  C   UNL     1      -3.341   2.536 -10.110  0.00  0.00    +0.000 A 
ATOM     32  C   UNL     1      -3.134   1.667 -11.165  0.00  0.00    +0.001 A 
ATOM     33  C   UNL     1      -2.912   0.324 -10.921  0.00  0.00    +0.020 A 
ATOM     34  C   UNL     1      -2.892  -0.148  -9.621  0.00  0.00    +0.046 A 
ATOM     35 CL   UNL     1      -2.607  -1.833  -9.314  0.00  0.00    -0.083 Cl
ENDBRANCH  28  29
ENDBRANCH  26  28
ENDBRANCH  23  24
ENDBRANCH   7  23
TORSDOF 6
