REMARK  Name = ZINC19793880
REMARK  4 active torsions:
REMARK  status: ('A' for Active; 'I' for Inactive)
REMARK    1  A    between atoms: C_1  and  C_2
REMARK    2  A    between atoms: C_5  and  N_8
REMARK    3  A    between atoms: C_14  and  C_22
REMARK    4  A    between atoms: C_18  and  C_19
REMARK                            x       y       z     vdW  Elec       q    Type
REMARK                         _______ _______ _______ _____ _____    ______ ____
ROOT
ATOM      1  N   UNL     1      -0.397   3.217   5.823  0.00  0.00    -0.354 N 
ATOM      2  C   UNL     1      -0.010   2.455   4.742  0.00  0.00    +0.064 A 
ATOM      3  C   UNL     1      -0.495   1.137   4.566  0.00  0.00    +0.023 A 
ATOM      4  C   UNL     1      -1.384   0.561   5.485  0.00  0.00    +0.013 A 
ATOM      5  C   UNL     1      -1.830  -0.711   5.286  0.00  0.00    +0.021 A 
ATOM      6  C   UNL     1      -1.419  -1.444   4.176  0.00  0.00    +0.046 A 
ATOM      7  C   UNL     1      -0.551  -0.915   3.267  0.00  0.00    -0.008 A 
ATOM      8  C   UNL     1      -0.070   0.392   3.440  0.00  0.00    +0.053 A 
ATOM      9  N   UNL     1       0.781   0.933   2.555  0.00  0.00    -0.360 N 
ATOM     10  C   UNL     1       1.244   2.148   2.692  0.00  0.00    +0.100 A 
ATOM     11  C   UNL     1       0.877   2.959   3.779  0.00  0.00    +0.103 A 
ATOM     12  C   UNL     1      -0.114  -1.728   2.076  0.00  0.00    +0.047 C 
ATOM     13 CL   UNL     1      -2.014  -3.059   3.949  0.00  0.00    -0.083 Cl
ATOM     14  H   UNL     1       1.109   0.350   1.682  0.00  0.00    +0.165 HD
ATOM     15  H   UNL     1       0.199   3.203   6.747  0.00  0.00    +0.166 HD
ENDROOT
BRANCH   1  20
ATOM     16  C   UNL     1      -5.060   6.429   5.504  0.00  0.00    +0.044 C 
ATOM     17  C   UNL     1      -3.821   5.575   5.589  0.00  0.00    -0.050 A 
ATOM     18  C   UNL     1      -3.146   5.457   6.790  0.00  0.00    +0.005 A 
ATOM     19  C   UNL     1      -2.010   4.676   6.871  0.00  0.00    +0.026 A 
ATOM     20  C   UNL     1      -1.546   4.008   5.744  0.00  0.00    +0.040 A 
ATOM     21  C   UNL     1      -2.224   4.134   4.538  0.00  0.00    +0.026 A 
ATOM     22  C   UNL     1      -3.362   4.913   4.465  0.00  0.00    +0.005 A 
ENDBRANCH   1  20
BRANCH  11  23
ATOM     23  C   UNL     1       1.415   4.322   3.904  0.00  0.00    +0.390 C 
ATOM     24  O   UNL     1       1.173   4.982   4.896  0.00  0.00    -0.240 OA
ATOM     25  O   UNL     1       2.177   4.839   2.920  0.00  0.00    -0.240 OA
ENDBRANCH  11  23
TORSDOF 2
