REMARK  Name = ZINC18320742
REMARK  5 active torsions:
REMARK  status: ('A' for Active; 'I' for Inactive)
REMARK    1  A    between atoms: C_1  and  C_2
REMARK    2  A    between atoms: C_5  and  N_8
REMARK    3  A    between atoms: C_9  and  S_13
REMARK    4  A    between atoms: S_13  and  C_14
REMARK    5  A    between atoms: C_14  and  C_15
REMARK                            x       y       z     vdW  Elec       q    Type
REMARK                         _______ _______ _______ _____ _____    ______ ____
ROOT
ATOM      1  C   UNL     1       3.022  -5.596   4.185  0.00  0.00    +0.143 A 
ATOM      2  N   UNL     1       4.328  -5.460   4.043  0.00  0.00    -0.216 NA
ATOM      3  C   UNL     1       5.146  -5.392   5.081  0.00  0.00    +0.128 A 
ATOM      4  C   UNL     1       4.606  -5.467   6.395  0.00  0.00    +0.051 A 
ATOM      5  C   UNL     1       5.307  -5.417   7.679  0.00  0.00    -0.025 A 
ATOM      6  C   UNL     1       4.552  -5.510   8.792  0.00  0.00    -0.004 A 
ATOM      7  S   UNL     1       2.885  -5.668   8.209  0.00  0.00    -0.073 S 
ATOM      8  C   UNL     1       3.206  -5.610   6.465  0.00  0.00    +0.114 A 
ATOM      9  N   UNL     1       2.462  -5.664   5.377  0.00  0.00    -0.224 NA
ATOM     10  C   UNL     1       5.024  -5.485  10.214  0.00  0.00    +0.043 C 
ATOM     11  C   UNL     1       6.543  -5.712  10.224  0.00  0.00    +0.005 C 
ATOM     12  C   UNL     1       7.183  -4.790   9.183  0.00  0.00    +0.005 C 
ATOM     13  C   UNL     1       6.823  -5.266   7.775  0.00  0.00    +0.037 C 
ATOM     14  N   UNL     1       6.509  -5.251   4.891  0.00  0.00    -0.343 N 
ATOM     15  H   UNL     1       6.852  -4.972   4.027  0.00  0.00    +0.144 HD
ATOM     16  H   UNL     1       7.122  -5.429   5.621  0.00  0.00    +0.144 HD
ENDROOT
BRANCH   1  17
ATOM     17  C   UNL     1       2.151  -5.667   2.957  0.00  0.00    +0.153 C 
BRANCH  17  18
ATOM     18  S   UNL     1       1.634  -3.993   2.484  0.00  0.00    -0.076 S 
BRANCH  18  20
ATOM     19  N   UNL     1       0.014  -3.281   0.326  0.00  0.00    -0.187 N 
ATOM     20  C   UNL     1       0.637  -4.243   1.053  0.00  0.00    +0.214 A 
ATOM     21  N   UNL     1       0.356  -5.397   0.487  0.00  0.00    -0.101 NA
ATOM     22  N   UNL     1      -0.396  -5.224  -0.539  0.00  0.00    -0.022 NA
ATOM     23  N   UNL     1      -0.653  -3.971  -0.701  0.00  0.00    -0.038 NA
BRANCH  19  28
ATOM     24  C   UNL     1       0.070   2.319   1.248  0.00  0.00    +0.044 C 
ATOM     25  C   UNL     1       0.055   0.832   1.003  0.00  0.00    -0.050 A 
ATOM     26  C   UNL     1       0.025   0.346  -0.291  0.00  0.00    +0.005 A 
ATOM     27  C   UNL     1       0.012  -1.016  -0.519  0.00  0.00    +0.028 A 
ATOM     28  C   UNL     1       0.029  -1.898   0.554  0.00  0.00    +0.070 A 
ATOM     29  C   UNL     1       0.059  -1.407   1.852  0.00  0.00    +0.028 A 
ATOM     30  C   UNL     1       0.077  -0.044   2.073  0.00  0.00    +0.005 A 
ENDBRANCH  19  28
ENDBRANCH  18  20
ENDBRANCH  17  18
ENDBRANCH   1  17
TORSDOF 4
