REMARK  Name = ZINC39324829
REMARK  9 active torsions:
REMARK  status: ('A' for Active; 'I' for Inactive)
REMARK    1  A    between atoms: C_1  and  C_2
REMARK    2  A    between atoms: C_7  and  C_14
REMARK    3  A    between atoms: C_14  and  N_15
REMARK    4  A    between atoms: N_15  and  C_16
REMARK    5  A    between atoms: N_15  and  S_25
REMARK    6  A    between atoms: C_16  and  C_17
REMARK    7  A    between atoms: C_17  and  C_18
REMARK    8  A    between atoms: C_23  and  C_24
REMARK    9  A    between atoms: S_25  and  C_28
REMARK                            x       y       z     vdW  Elec       q    Type
REMARK                         _______ _______ _______ _____ _____    ______ ____
ROOT
ATOM      1  N   UNL     1       1.281  -6.297   2.542  0.00  0.00    -0.175 NA
ENDROOT
BRANCH   1   2
ATOM      2  S   UNL     1       2.077  -5.776   3.898  0.00  0.00    +0.063 S 
ATOM      3  O   UNL     1       1.493  -4.532   4.259  0.00  0.00    -0.153 OA
ATOM      4  O   UNL     1       2.127  -6.881   4.789  0.00  0.00    -0.153 OA
BRANCH   2   5
ATOM      5  C   UNL     1       3.740  -5.434   3.426  0.00  0.00    +0.133 A 
ATOM      6  C   UNL     1       4.147  -4.152   3.270  0.00  0.00    +0.031 A 
ATOM      7  C   UNL     1       5.456  -3.844   2.898  0.00  0.00    +0.004 A 
ATOM      8  C   UNL     1       6.375  -4.812   2.676  0.00  0.00    +0.031 A 
ATOM      9  C   UNL     1       6.019  -6.181   2.821  0.00  0.00    +0.102 A 
ATOM     10  C   UNL     1       4.652  -6.503   3.216  0.00  0.00    +0.126 A 
ATOM     11  N   UNL     1       4.433  -7.814   3.326  0.00  0.00    -0.189 NA
ATOM     12  S   UNL     1       5.834  -8.519   2.968  0.00  0.00    +0.117 S 
ATOM     13  N   UNL     1       6.782  -7.260   2.647  0.00  0.00    -0.191 NA
ENDBRANCH   2   5
ENDBRANCH   1   2
BRANCH   1  14
ATOM     14  C   UNL     1       0.867  -5.333   1.520  0.00  0.00    +0.126 C 
BRANCH  14  21
ATOM     15  C   UNL     1      -4.147   0.239   1.431  0.00  0.00    +0.044 C 
ATOM     16  C   UNL     1      -3.324  -0.991   1.149  0.00  0.00    -0.049 A 
ATOM     17  C   UNL     1      -2.962  -1.266  -0.170  0.00  0.00    +0.004 A 
ATOM     18  C   UNL     1      -2.221  -2.360  -0.486  0.00  0.00    +0.010 A 
ATOM     19  C   UNL     1      -1.799  -3.260   0.587  0.00  0.00    -0.007 A 
ATOM     20  C   UNL     1      -1.054  -4.370   0.317  0.00  0.00    -0.003 C 
ATOM     21  C   UNL     1      -0.660  -5.246   1.490  0.00  0.00    +0.114 C 
ATOM     22  C   UNL     1      -1.127  -4.818   2.864  0.00  0.00    +0.225 C 
ATOM     23  O   UNL     1      -0.840  -5.484   3.841  0.00  0.00    -0.275 OA
ATOM     24  N   UNL     1      -1.847  -3.718   2.999  0.00  0.00    -0.284 N 
ATOM     25  C   UNL     1      -2.195  -2.945   1.970  0.00  0.00    +0.041 A 
ATOM     26  C   UNL     1      -2.960  -1.784   2.190  0.00  0.00    +0.027 A 
ATOM     27  H   UNL     1      -2.136  -3.461   3.889  0.00  0.00    +0.155 HD
ENDBRANCH  14  21
ENDBRANCH   1  14
BRANCH   1  28
ATOM     28  C   UNL     1       0.991  -7.722   2.365  0.00  0.00    +0.114 C 
BRANCH  28  29
ATOM     29  C   UNL     1       2.092  -8.366   1.521  0.00  0.00    +0.052 C 
BRANCH  29  30
ATOM     30  C   UNL     1       1.794  -9.832   1.339  0.00  0.00    -0.043 A 
ATOM     31  C   UNL     1       2.355 -10.763   2.195  0.00  0.00    +0.004 A 
ATOM     32  C   UNL     1       2.081 -12.107   2.028  0.00  0.00    +0.000 A 
ATOM     33  C   UNL     1       1.246 -12.521   1.006  0.00  0.00    +0.000 A 
ATOM     34  C   UNL     1       0.686 -11.591   0.152  0.00  0.00    +0.003 A 
ATOM     35  C   UNL     1       0.956 -10.246   0.321  0.00  0.00    -0.047 A 
ATOM     36  C   UNL     1       0.340  -9.230  -0.607  0.00  0.00    +0.044 C 
ENDBRANCH  29  30
ENDBRANCH  28  29
ENDBRANCH   1  28
TORSDOF 7
