REMARK  Name = ZINC45777137
REMARK  4 active torsions:
REMARK  status: ('A' for Active; 'I' for Inactive)
REMARK    1  A    between atoms: C_3  and  N_22
REMARK    2  A    between atoms: C_6  and  C_7
REMARK    3  A    between atoms: C_7  and  N_8
REMARK    4  A    between atoms: C_9  and  C_11
REMARK                            x       y       z     vdW  Elec       q    Type
REMARK                         _______ _______ _______ _____ _____    ______ ____
ROOT
ATOM      1  N   UNL     1      -1.625  -1.176  -1.381  0.00  0.00    -0.307 N 
ATOM      2  C   UNL     1      -2.749  -1.880  -1.623  0.00  0.00    +0.251 C 
ATOM      3  O   UNL     1      -3.493  -2.173  -0.706  0.00  0.00    -0.270 OA
ATOM      4  H   UNL     1      -1.032  -0.943  -2.112  0.00  0.00    +0.149 HD
ENDROOT
BRANCH   2   5
ATOM      5  C   UNL     1      -3.075  -2.293  -2.991  0.00  0.00    +0.074 A 
ATOM      6  C   UNL     1      -4.162  -3.003  -3.452  0.00  0.00    +0.024 A 
ATOM      7  C   UNL     1      -4.205  -3.282  -4.821  0.00  0.00    -0.036 A 
ATOM      8  C   UNL     1      -3.159  -2.866  -5.561  0.00  0.00    -0.006 A 
ATOM      9  S   UNL     1      -2.175  -2.002  -4.500  0.00  0.00    -0.088 S 
ATOM     10  C   UNL     1      -2.767  -3.108  -6.998  0.00  0.00    +0.043 C 
ATOM     11  C   UNL     1      -3.759  -4.016  -7.725  0.00  0.00    +0.005 C 
ATOM     12  C   UNL     1      -4.990  -3.238  -8.160  0.00  0.00    +0.000 C 
ATOM     13  C   UNL     1      -5.424  -2.204  -7.141  0.00  0.00    +0.000 C 
ATOM     14  C   UNL     1      -6.292  -2.933  -6.110  0.00  0.00    +0.005 C 
ATOM     15  C   UNL     1      -5.435  -3.974  -5.389  0.00  0.00    +0.036 C 
ENDBRANCH   2   5
BRANCH   1  16
ATOM     16  C   UNL     1      -1.300  -0.764  -0.014  0.00  0.00    +0.139 C 
BRANCH  16  22
ATOM     17  C   UNL     1      -0.013   1.376  -0.181  0.00  0.00    +0.007 A 
ATOM     18  C   UNL     1       1.175   2.082  -0.183  0.00  0.00    +0.023 A 
ATOM     19  C   UNL     1       2.379   1.411  -0.019  0.00  0.00    +0.035 A 
ATOM     20  C   UNL     1       2.386   0.033   0.147  0.00  0.00    +0.023 A 
ATOM     21  C   UNL     1       1.196  -0.667   0.148  0.00  0.00    +0.007 A 
ATOM     22  C   UNL     1      -0.002   0.003  -0.016  0.00  0.00    -0.030 A 
BRANCH  19  23
ATOM     23  N   UNL     1       3.584   2.124  -0.021  0.00  0.00    -0.270 N 
ATOM     24  C   UNL     1       3.628   3.375   0.478  0.00  0.00    +0.301 C 
ATOM     25  O   UNL     1       2.647   3.849   1.017  0.00  0.00    -0.253 OA
ATOM     26  N   UNL     1       4.760   4.100   0.379  0.00  0.00    -0.313 N 
ATOM     27  H   UNL     1       4.387   1.717  -0.382  0.00  0.00    +0.156 HD
ATOM     28  H   UNL     1       5.542   3.722  -0.051  0.00  0.00    +0.146 HD
ATOM     29  H   UNL     1       4.791   5.001   0.739  0.00  0.00    +0.146 HD
ENDBRANCH  19  23
ENDBRANCH  16  22
ENDBRANCH   1  16
TORSDOF 4
