REMARK  Name = ZINC25172347
REMARK  7 active torsions:
REMARK  status: ('A' for Active; 'I' for Inactive)
REMARK    1  A    between atoms: C_4  and  C_7
REMARK    2  A    between atoms: C_7  and  C_8
REMARK    3  A    between atoms: C_7  and  N_17
REMARK    4  A    between atoms: C_18  and  C_20
REMARK    5  A    between atoms: C_23  and  C_25
REMARK    6  A    between atoms: C_25  and  S_26
REMARK    7  A    between atoms: S_26  and  C_29
REMARK                            x       y       z     vdW  Elec       q    Type
REMARK                         _______ _______ _______ _____ _____    ______ ____
ROOT
ATOM      1  N   UNL     1       3.611  -1.865  -0.930  0.00  0.00    -0.298 N 
ATOM      2  C   UNL     1       3.825  -1.716  -2.253  0.00  0.00    +0.280 C 
ATOM      3  O   UNL     1       4.100  -0.620  -2.705  0.00  0.00    -0.267 OA
ATOM      4  H   UNL     1       3.392  -2.738  -0.569  0.00  0.00    +0.150 HD
ENDROOT
BRANCH   2   5
ATOM      5  C   UNL     1       3.725  -2.874  -3.146  0.00  0.00    +0.190 A 
ATOM      6  C   UNL     1       3.921  -2.865  -4.497  0.00  0.00    +0.055 A 
ATOM      7  C   UNL     1       3.726  -4.182  -4.943  0.00  0.00    +0.047 A 
ATOM      8  C   UNL     1       3.424  -4.928  -3.858  0.00  0.00    +0.127 A 
ATOM      9  O   UNL     1       3.429  -4.138  -2.776  0.00  0.00    -0.453 OA
BRANCH   8  10
ATOM     10  C   UNL     1       3.134  -6.407  -3.863  0.00  0.00    +0.245 C 
BRANCH  10  11
ATOM     11  S   UNL     1       4.679  -7.327  -3.627  0.00  0.00    +0.004 S 
ATOM     12  O   UNL     1       5.521  -7.169  -4.761  0.00  0.00    -0.169 OA
ATOM     13  O   UNL     1       5.182  -7.111  -2.316  0.00  0.00    -0.169 OA
BRANCH  11  14
ATOM     14  C   UNL     1       4.205  -9.024  -3.652  0.00  0.00    +0.089 A 
ATOM     15  C   UNL     1       3.849  -9.659  -2.478  0.00  0.00    +0.027 A 
ATOM     16  C   UNL     1       3.476 -10.990  -2.498  0.00  0.00    +0.002 A 
ATOM     17  C   UNL     1       3.459 -11.686  -3.692  0.00  0.00    +0.000 A 
ATOM     18  C   UNL     1       3.814 -11.050  -4.867  0.00  0.00    +0.002 A 
ATOM     19  C   UNL     1       4.182  -9.717  -4.848  0.00  0.00    +0.027 A 
ENDBRANCH  11  14
ENDBRANCH  10  11
ENDBRANCH   8  10
ENDBRANCH   2   5
BRANCH   1  20
ATOM     20  C   UNL     1       3.711  -0.707  -0.038  0.00  0.00    +0.134 C 
BRANCH  20  21
ATOM     21  C   UNL     1       4.044  -1.175   1.356  0.00  0.00    -0.021 A 
ATOM     22  C   UNL     1       3.450  -2.325   1.857  0.00  0.00    +0.008 A 
ATOM     23  C   UNL     1       3.739  -2.765   3.118  0.00  0.00    +0.030 A 
ATOM     24  C   UNL     1       4.640  -2.054   3.914  0.00  0.00    +0.089 A 
ATOM     25  C   UNL     1       5.241  -0.890   3.408  0.00  0.00    +0.066 A 
ATOM     26  C   UNL     1       4.940  -0.460   2.122  0.00  0.00    +0.033 A 
ATOM     27  N   UNL     1       6.066  -0.420   4.410  0.00  0.00    -0.344 N 
ATOM     28  C   UNL     1       5.952  -1.275   5.462  0.00  0.00    +0.197 A 
ATOM     29  N   UNL     1       5.119  -2.231   5.173  0.00  0.00    -0.236 NA
ATOM     30  H   UNL     1       6.624   0.373   4.371  0.00  0.00    +0.167 HD
ENDBRANCH  20  21
BRANCH  20  34
ATOM     31  C   UNL     1      -0.017   1.378   0.010  0.00  0.00    +0.000 A 
ATOM     32  C   UNL     1       1.171   2.086   0.002  0.00  0.00    +0.000 A 
ATOM     33  C   UNL     1       2.377   1.411  -0.013  0.00  0.00    +0.006 A 
ATOM     34  C   UNL     1       2.396   0.029  -0.020  0.00  0.00    -0.023 A 
ATOM     35  C   UNL     1       1.208  -0.679  -0.012  0.00  0.00    +0.006 A 
ATOM     36  C   UNL     1       0.002  -0.004   0.002  0.00  0.00    +0.000 A 
ENDBRANCH  20  34
ENDBRANCH   1  20
TORSDOF 7
