REMARK  Name = ZINC09312774
REMARK  10 active torsions:
REMARK  status: ('A' for Active; 'I' for Inactive)
REMARK    1  A    between atoms: C_1  and  C_2
REMARK    2  A    between atoms: C_3  and  C_35
REMARK    3  A    between atoms: C_4  and  C_26
REMARK    4  A    between atoms: C_6  and  C_24
REMARK    5  A    between atoms: C_7  and  S_9
REMARK    6  A    between atoms: S_9  and  C_10
REMARK    7  A    between atoms: C_10  and  C_11
REMARK    8  A    between atoms: C_11  and  N_13
REMARK    9  A    between atoms: C_31  and  N_32
REMARK   10  A    between atoms: C_35  and  C_37
REMARK                            x       y       z     vdW  Elec       q    Type
REMARK                         _______ _______ _______ _____ _____    ______ ____
ROOT
ATOM      1  C   UNL     1      -2.960   2.304  -1.083  0.00  0.00    +0.061 C 
ATOM      2  C   UNL     1      -2.201   1.171  -0.441  0.00  0.00    +0.013 C 
ATOM      3  C   UNL     1      -2.738  -0.067  -0.432  0.00  0.00    +0.024 C 
ATOM      4  C   UNL     1      -2.019  -1.232   0.186  0.00  0.00    +0.099 C 
ATOM      5  C   UNL     1      -0.908  -0.761   1.081  0.00  0.00    +0.069 C 
ATOM      6  C   UNL     1      -0.440   0.514   1.013  0.00  0.00    +0.080 C 
ATOM      7  N   UNL     1      -0.980   1.412   0.117  0.00  0.00    -0.312 N 
ATOM      8  H   UNL     1      -0.492   2.218  -0.116  0.00  0.00    +0.152 HD
ENDROOT
BRANCH   4   9
ATOM      9  C   UNL     1      -1.443  -2.095  -0.907  0.00  0.00    -0.005 A 
ATOM     10  C   UNL     1      -0.635  -1.532  -1.878  0.00  0.00    +0.007 A 
ATOM     11  C   UNL     1      -0.107  -2.324  -2.880  0.00  0.00    +0.000 A 
ATOM     12  C   UNL     1      -0.385  -3.678  -2.911  0.00  0.00    +0.002 A 
ATOM     13  C   UNL     1      -1.191  -4.240  -1.940  0.00  0.00    +0.033 A 
ATOM     14  C   UNL     1      -1.716  -3.449  -0.935  0.00  0.00    +0.130 A 
BRANCH  14  15
ATOM     15  N   UNL     1      -2.576  -4.052   0.109  0.00  0.00    +0.057 N 
ATOM     16  O   UNL     1      -3.448  -4.830  -0.202  0.00  0.00    -0.126 OA
ATOM     17  O   UNL     1      -2.405  -3.768   1.271  0.00  0.00    -0.126 OA
ENDBRANCH  14  15
ENDBRANCH   4   9
BRANCH   3  18
ATOM     18  C   UNL     1      -3.998  -0.271  -1.014  0.00  0.00    +0.159 C 
ATOM     19  O   UNL     1      -4.593   0.662  -1.518  0.00  0.00    -0.293 OA
ATOM     20  C   UNL     1      -4.615  -1.646  -1.014  0.00  0.00    +0.091 C 
ENDBRANCH   3  18
BRANCH   5  21
ATOM     21  C   UNL     1      -0.331  -1.672   2.023  0.00  0.00    +0.098 C 
ATOM     22  N   UNL     1       0.127  -2.394   2.770  0.00  0.00    -0.191 NA
ENDBRANCH   5  21
BRANCH   6  23
ATOM     23  S   UNL     1       0.871   1.020   2.076  0.00  0.00    -0.100 S 
BRANCH  23  24
ATOM     24  C   UNL     1       1.147   2.758   1.634  0.00  0.00    +0.173 C 
BRANCH  24  25
ATOM     25  C   UNL     1       2.260   3.321   2.481  0.00  0.00    +0.249 C 
ATOM     26  O   UNL     1       2.813   2.617   3.304  0.00  0.00    -0.273 OA
BRANCH  25  27
ATOM     27  N   UNL     1       2.636   4.586   2.329  0.00  0.00    -0.156 NA
ATOM     28  C   UNL     1       3.680   5.056   3.007  0.00  0.00    +0.164 A 
ATOM     29  N   UNL     1       4.550   4.361   3.784  0.00  0.00    -0.335 N 
ATOM     30  H   UNL     1       4.444   3.403   3.894  0.00  0.00    +0.168 HD
ATOM     31  C   UNL     1       5.585   5.022   4.418  0.00  0.00    +0.055 A 
ATOM     32  C   UNL     1       6.584   4.506   5.255  0.00  0.00    +0.027 A 
ATOM     33  C   UNL     1       7.540   5.333   5.797  0.00  0.00    +0.002 A 
ATOM     34  C   UNL     1       7.544   6.693   5.535  0.00  0.00    +0.001 A 
ATOM     35  C   UNL     1       6.569   7.227   4.711  0.00  0.00    +0.017 A 
ATOM     36  C   UNL     1       5.613   6.402   4.168  0.00  0.00    +0.039 A 
ATOM     37  S   UNL     1       4.226   6.644   3.089  0.00  0.00    -0.052 S 
ENDBRANCH  25  27
ENDBRANCH  24  25
ENDBRANCH  23  24
ENDBRANCH   6  23
TORSDOF 8
