REMARK  Name = ZINC63205640
REMARK  11 active torsions:
REMARK  status: ('A' for Active; 'I' for Inactive)
REMARK    1  A    between atoms: C_1  and  C_2
REMARK    2  A    between atoms: C_2  and  O_3
REMARK    3  A    between atoms: O_3  and  C_4
REMARK    4  A    between atoms: C_4  and  C_6
REMARK    5  A    between atoms: C_7  and  C_20
REMARK    6  A    between atoms: C_12  and  C_14
REMARK    7  A    between atoms: C_20  and  O_21
REMARK    8  A    between atoms: O_21  and  C_22
REMARK    9  A    between atoms: C_22  and  C_24
REMARK   10  A    between atoms: C_24  and  C_25
REMARK   11  A    between atoms: C_25  and  C_26
REMARK                            x       y       z     vdW  Elec       q    Type
REMARK                         _______ _______ _______ _____ _____    ______ ____
ROOT
ATOM      1  C   UNL     1      -2.795  -2.410   0.126  0.00  0.00    +0.081 C 
ATOM      2  C   UNL     1      -2.985  -3.731  -0.085  0.00  0.00    +0.061 C 
ATOM      3  N   UNL     1      -4.241  -4.255  -0.186  0.00  0.00    -0.269 N 
ATOM      4  C   UNL     1      -5.360  -3.526  -0.089  0.00  0.00    +0.304 C 
ATOM      5  O   UNL     1      -6.436  -4.083  -0.192  0.00  0.00    -0.252 OA
ATOM      6  N   UNL     1      -5.333  -2.195   0.121  0.00  0.00    -0.288 N 
ATOM      7  C   UNL     1      -4.024  -1.533   0.251  0.00  0.00    +0.144 C 
ATOM      8  H   UNL     1      -4.328  -5.210  -0.337  0.00  0.00    +0.156 HD
ATOM      9  H   UNL     1      -6.156  -1.686   0.188  0.00  0.00    +0.151 HD
ENDROOT
BRANCH   7  10
ATOM     10  C   UNL     1      -3.942  -0.465  -0.809  0.00  0.00    -0.022 A 
ATOM     11  C   UNL     1      -4.306  -0.753  -2.111  0.00  0.00    +0.006 A 
ATOM     12  C   UNL     1      -4.231   0.227  -3.083  0.00  0.00    +0.000 A 
ATOM     13  C   UNL     1      -3.792   1.496  -2.753  0.00  0.00    +0.000 A 
ATOM     14  C   UNL     1      -3.429   1.784  -1.451  0.00  0.00    +0.000 A 
ATOM     15  C   UNL     1      -3.508   0.806  -0.478  0.00  0.00    +0.006 A 
ENDBRANCH   7  10
BRANCH   1  16
ATOM     16  C   UNL     1      -1.494  -1.866   0.231  0.00  0.00    +0.339 C 
ATOM     17  O   UNL     1      -1.030  -1.608   1.326  0.00  0.00    -0.245 OA
BRANCH  16  18
ATOM     18  O   UNL     1      -0.768  -1.632  -0.882  0.00  0.00    -0.462 OA
BRANCH  18  20
ATOM     19  C   UNL     1       1.204  -0.888  -2.065  0.00  0.00    +0.048 C 
ATOM     20  C   UNL     1       0.538  -1.081  -0.701  0.00  0.00    +0.229 C 
ENDBRANCH  18  20
ENDBRANCH  16  18
ENDBRANCH   1  16
BRANCH   2  21
ATOM     21  C   UNL     1      -1.789  -4.640  -0.210  0.00  0.00    +0.283 C 
BRANCH  21  22
ATOM     22  O   UNL     1      -1.771  -5.556   0.886  0.00  0.00    -0.459 OA
BRANCH  22  23
ATOM     23  C   UNL     1      -0.763  -6.442   0.924  0.00  0.00    +0.308 C 
ATOM     24  O   UNL     1       0.077  -6.438   0.055  0.00  0.00    -0.251 OA
BRANCH  23  25
ATOM     25  C   UNL     1      -0.677  -7.439   2.050  0.00  0.00    +0.125 C 
BRANCH  25  26
ATOM     26  C   UNL     1       0.556  -8.324   1.856  0.00  0.00    +0.044 C 
BRANCH  26  27
ATOM     27  C   UNL     1       0.641  -9.322   2.982  0.00  0.00    -0.041 C 
ATOM     28  C   UNL     1       0.181 -10.593   2.978  0.00  0.00    -0.001 A 
ATOM     29  C   UNL     1      -0.511 -11.397   1.964  0.00  0.00    +0.010 A 
ATOM     30  C   UNL     1      -0.855 -12.672   2.259  0.00  0.00    +0.001 A 
ATOM     31  C   UNL     1      -0.567 -13.242   3.507  0.00  0.00    +0.002 A 
ATOM     32  C   UNL     1       0.066 -12.567   4.489  0.00  0.00    +0.026 A 
ATOM     33  C   UNL     1       0.473 -11.219   4.288  0.00  0.00    +0.043 A 
ATOM     34  N   UNL     1       1.090 -10.367   5.071  0.00  0.00    -0.380 N 
ATOM     35  C   UNL     1       1.264  -9.105   4.343  0.00  0.00    +0.144 C 
ATOM     36  H   UNL     1       1.385 -10.544   5.978  0.00  0.00    +0.160 HD
ENDBRANCH  26  27
ENDBRANCH  25  26
ENDBRANCH  23  25
ENDBRANCH  22  23
ENDBRANCH  21  22
ENDBRANCH   2  21
TORSDOF 10
