REMARK  Name = ZINC43043978
REMARK  8 active torsions:
REMARK  status: ('A' for Active; 'I' for Inactive)
REMARK    1  A    between atoms: C_1  and  C_2
REMARK    2  A    between atoms: C_8  and  N_10
REMARK    3  A    between atoms: N_13  and  C_14
REMARK    4  A    between atoms: C_20  and  O_22
REMARK    5  A    between atoms: O_22  and  C_23
REMARK    6  A    between atoms: C_23  and  C_24
REMARK    7  A    between atoms: C_23  and  C_25
REMARK    8  A    between atoms: C_23  and  C_26
REMARK                            x       y       z     vdW  Elec       q    Type
REMARK                         _______ _______ _______ _____ _____    ______ ____
ROOT
ATOM      1  N   UNL     1       0.056  -0.038   2.447  0.00  0.00    -0.296 N 
ATOM      2  C   UNL     1       0.738   0.093   3.602  0.00  0.00    +0.300 C 
ATOM      3  O   UNL     1       1.922  -0.180   3.644  0.00  0.00    -0.253 OA
ATOM      4  N   UNL     1       0.107   0.528   4.711  0.00  0.00    -0.296 N 
ATOM      5  H   UNL     1      -0.888   0.180   2.413  0.00  0.00    +0.151 HD
ATOM      6  H   UNL     1      -0.838   0.746   4.678  0.00  0.00    +0.151 HD
ENDROOT
BRANCH   4   7
ATOM      7  C   UNL     1       0.848   0.671   5.967  0.00  0.00    +0.077 C 
ATOM      8  C   UNL     1       0.886  -0.676   6.692  0.00  0.00    +0.041 C 
ATOM      9  C   UNL     1       1.691  -0.531   7.988  0.00  0.00    +0.113 C 
ATOM     10  N   UNL     1       1.118   0.565   8.780  0.00  0.00    -0.267 N 
ATOM     11  C   UNL     1       0.952   1.882   8.149  0.00  0.00    +0.113 C 
ATOM     12  C   UNL     1       0.155   1.710   6.852  0.00  0.00    +0.041 C 
ATOM     13  C   UNL     1       0.751   0.367  10.062  0.00  0.00    +0.403 C 
ATOM     14  O   UNL     1       0.893  -0.727  10.572  0.00  0.00    -0.226 OA
BRANCH  13  15
ATOM     15  O   UNL     1       0.227   1.381  10.777  0.00  0.00    -0.445 OA
BRANCH  15  16
ATOM     16  C   UNL     1      -0.140   1.099  12.129  0.00  0.00    +0.107 C 
ATOM     17  C   UNL     1       1.095   0.643  12.908  0.00  0.00    +0.055 C 
ATOM     18  C   UNL     1      -0.712   2.362  12.775  0.00  0.00    +0.055 C 
ATOM     19  C   UNL     1      -1.195  -0.008  12.151  0.00  0.00    +0.055 C 
ENDBRANCH  15  16
ENDBRANCH  13  15
ENDBRANCH   4   7
BRANCH   1  26
ATOM     20  C   UNL     1      -0.019   1.526   0.010  0.00  0.00    +0.009 C 
ATOM     21  C   UNL     1       0.002  -0.004   0.002  0.00  0.00    +0.006 C 
ATOM     22  C   UNL     1      -1.433  -0.534   0.013  0.00  0.00    +0.005 C 
ATOM     23  C   UNL     1      -1.413  -2.063   0.004  0.00  0.00    +0.000 C 
ATOM     24  C   UNL     1      -0.673  -2.570   1.244  0.00  0.00    +0.002 C 
ATOM     25  C   UNL     1       0.763  -2.041   1.233  0.00  0.00    +0.022 C 
ATOM     26  C   UNL     1       0.742  -0.511   1.242  0.00  0.00    +0.077 C 
ENDBRANCH   1  26
TORSDOF 4
