REMARK  Name = ZINC28629389
REMARK  9 active torsions:
REMARK  status: ('A' for Active; 'I' for Inactive)
REMARK    1  A    between atoms: C_1  and  C_2
REMARK    2  A    between atoms: C_5  and  C_8
REMARK    3  A    between atoms: C_8  and  O_32
REMARK    4  A    between atoms: C_9  and  C_26
REMARK    5  A    between atoms: C_11  and  C_17
REMARK    6  A    between atoms: C_20  and  C_23
REMARK    7  A    between atoms: C_23  and  C_24
REMARK    8  A    between atoms: C_23  and  C_25
REMARK    9  A    between atoms: C_26  and  C_28
REMARK                            x       y       z     vdW  Elec       q    Type
REMARK                         _______ _______ _______ _____ _____    ______ ____
ROOT
ATOM      1  C   UNL     1      -1.911   3.543   3.127  0.00  0.00    +0.172 C 
ATOM      2  C   UNL     1      -1.011   3.306   1.909  0.00  0.00    +0.144 C 
ATOM      3  C   UNL     1       0.372   3.897   2.203  0.00  0.00    +0.120 C 
ATOM      4  N   UNL     1       0.890   3.314   3.441  0.00  0.00    -0.292 N 
ATOM      5  C   UNL     1       0.066   2.899   4.415  0.00  0.00    +0.302 C 
ATOM      6  O   UNL     1       0.549   2.432   5.429  0.00  0.00    -0.253 OA
ATOM      7  N   UNL     1      -1.269   2.979   4.315  0.00  0.00    -0.267 N 
ATOM      8  H   UNL     1       1.975   3.209   3.588  0.00  0.00    +0.151 HD
ATOM      9  H   UNL     1      -1.884   2.610   5.149  0.00  0.00    +0.153 HD
ENDROOT
BRANCH   1  14
ATOM     10  C   UNL     1      -7.015   0.968   2.284  0.00  0.00    +0.044 C 
ATOM     11  C   UNL     1      -5.684   1.640   2.504  0.00  0.00    -0.050 A 
ATOM     12  C   UNL     1      -4.687   0.985   3.202  0.00  0.00    +0.004 A 
ATOM     13  C   UNL     1      -3.466   1.601   3.403  0.00  0.00    +0.008 A 
ATOM     14  C   UNL     1      -3.242   2.871   2.907  0.00  0.00    +0.003 A 
ATOM     15  C   UNL     1      -4.242   3.528   2.214  0.00  0.00    +0.008 A 
ATOM     16  C   UNL     1      -5.461   2.911   2.009  0.00  0.00    +0.004 A 
ENDBRANCH   1  14
BRANCH   3  17
ATOM     17  C   UNL     1       0.259   5.391   2.358  0.00  0.00    -0.026 A 
ATOM     18  C   UNL     1       0.245   6.204   1.240  0.00  0.00    +0.006 A 
ATOM     19  C   UNL     1       0.136   7.574   1.382  0.00  0.00    +0.004 A 
ATOM     20  C   UNL     1       0.051   8.134   2.644  0.00  0.00    -0.045 A 
ATOM     21  C   UNL     1       0.071   7.322   3.762  0.00  0.00    +0.004 A 
ATOM     22  C   UNL     1       0.174   5.951   3.620  0.00  0.00    +0.006 A 
BRANCH  20  23
ATOM     23  C   UNL     1      -0.061   9.628   2.799  0.00  0.00    +0.013 C 
ATOM     24  C   UNL     1       1.166  10.300   2.178  0.00  0.00    +0.012 C 
ATOM     25  C   UNL     1      -1.325  10.121   2.092  0.00  0.00    +0.012 C 
ENDBRANCH  20  23
ENDBRANCH   3  17
BRANCH   2  26
ATOM     26  C   UNL     1      -0.885   1.827   1.652  0.00  0.00    +0.245 C 
ATOM     27  O   UNL     1      -1.044   1.041   2.556  0.00  0.00    -0.287 OA
BRANCH  26  28
ATOM     28  C   UNL     1      -0.562   1.327   0.268  0.00  0.00    +0.451 C 
ATOM     29  F   UNL     1      -0.498  -0.071   0.280  0.00  0.00    -0.163 F 
ATOM     30  F   UNL     1       0.672   1.846  -0.139  0.00  0.00    -0.163 F 
ATOM     31  F   UNL     1      -1.558   1.740  -0.622  0.00  0.00    -0.163 F 
ENDBRANCH  26  28
ENDBRANCH   2  26
BRANCH   1  32
ATOM     32  O   UNL     1      -2.108   4.946   3.309  0.00  0.00    -0.367 OA
ATOM     33  H   UNL     1      -1.245   5.605   3.483  0.00  0.00    +0.212 HD
ENDBRANCH   1  32
TORSDOF 6
