REMARK  Name = ZINC64370096
REMARK  8 active torsions:
REMARK  status: ('A' for Active; 'I' for Inactive)
REMARK    1  A    between atoms: C_1  and  C_2
REMARK    2  A    between atoms: C_2  and  N_3
REMARK    3  A    between atoms: C_4  and  C_20
REMARK    4  A    between atoms: C_7  and  S_8
REMARK    5  A    between atoms: S_8  and  C_9
REMARK    6  A    between atoms: C_9  and  C_10
REMARK    7  A    between atoms: N_12  and  C_13
REMARK    8  A    between atoms: C_21  and  N_29
REMARK                            x       y       z     vdW  Elec       q    Type
REMARK                         _______ _______ _______ _____ _____    ______ ____
ROOT
ATOM      1  N   UNL     1      -1.354  -0.554   0.011  0.00  0.00    -0.302 N 
ATOM      2  C   UNL     1      -2.123  -0.851   1.114  0.00  0.00    +0.173 A 
ATOM      3  N   UNL     1      -3.287  -1.276   0.669  0.00  0.00    -0.128 NA
ATOM      4  N   UNL     1      -3.295  -1.263  -0.616  0.00  0.00    -0.122 NA
ATOM      5  C   UNL     1      -2.144  -0.826  -1.073  0.00  0.00    +0.192 A 
ENDROOT
BRANCH   2   6
ATOM      6  C   UNL     1      -1.722  -0.719   2.522  0.00  0.00    +0.080 A 
ATOM      7  C   UNL     1      -2.449  -1.007   3.636  0.00  0.00    +0.052 A 
ATOM      8  C   UNL     1      -1.841  -0.797   4.941  0.00  0.00    +0.029 A 
ATOM      9  C   UNL     1      -2.395  -1.022   6.225  0.00  0.00    +0.014 A 
ATOM     10  C   UNL     1      -1.632  -0.752   7.337  0.00  0.00    +0.020 A 
ATOM     11  C   UNL     1      -0.340  -0.266   7.200  0.00  0.00    +0.112 A 
ATOM     12  N   UNL     1       0.173  -0.058   6.002  0.00  0.00    -0.248 NA
ATOM     13  C   UNL     1      -0.517  -0.301   4.910  0.00  0.00    +0.111 A 
ATOM     14  S   UNL     1      -0.164  -0.152   3.176  0.00  0.00    -0.064 S 
BRANCH   7  15
ATOM     15  N   UNL     1      -3.757  -1.495   3.529  0.00  0.00    -0.356 N 
ATOM     16  H   UNL     1      -4.154  -1.631   2.655  0.00  0.00    +0.142 HD
ATOM     17  H   UNL     1      -4.267  -1.697   4.330  0.00  0.00    +0.142 HD
ENDBRANCH   7  15
ENDBRANCH   2   6
BRANCH   1  19
ATOM     18  C   UNL     1      -0.001   1.484   0.019  0.00  0.00    +0.027 C 
ATOM     19  C   UNL     1       0.020  -0.046  -0.000  0.00  0.00    +0.122 C 
ENDBRANCH   1  19
BRANCH   5  20
ATOM     20  S   UNL     1      -1.698  -0.631  -2.766  0.00  0.00    -0.077 S 
BRANCH  20  21
ATOM     21  C   UNL     1      -3.177  -1.162  -3.673  0.00  0.00    +0.173 C 
BRANCH  21  22
ATOM     22  C   UNL     1      -2.926  -1.043  -5.155  0.00  0.00    +0.228 C 
ATOM     23  O   UNL     1      -1.856  -0.640  -5.559  0.00  0.00    -0.275 OA
ATOM     24  N   UNL     1      -3.892  -1.384  -6.030  0.00  0.00    -0.284 N 
ATOM     25  H   UNL     1      -4.724  -1.767  -5.710  0.00  0.00    +0.155 HD
BRANCH  24  26
ATOM     26  C   UNL     1      -3.695  -1.186  -7.402  0.00  0.00    +0.052 A 
ATOM     27  C   UNL     1      -2.431  -1.345  -7.953  0.00  0.00    +0.025 A 
ATOM     28  C   UNL     1      -2.239  -1.149  -9.307  0.00  0.00    +0.002 A 
ATOM     29  C   UNL     1      -3.305  -0.795 -10.114  0.00  0.00    +0.002 A 
ATOM     30  C   UNL     1      -4.566  -0.636  -9.569  0.00  0.00    +0.022 A 
ATOM     31  C   UNL     1      -4.766  -0.836  -8.216  0.00  0.00    +0.062 A 
ATOM     32 CL   UNL     1      -6.350  -0.643  -7.533  0.00  0.00    -0.082 Cl
ENDBRANCH  24  26
ENDBRANCH  21  22
ENDBRANCH  20  21
ENDBRANCH   5  20
TORSDOF 7
