REMARK  Name = ZINC35345317
REMARK  11 active torsions:
REMARK  status: ('A' for Active; 'I' for Inactive)
REMARK    1  A    between atoms: C_1  and  C_2
REMARK    2  A    between atoms: C_8  and  C_10
REMARK    3  A    between atoms: C_10  and  N_11
REMARK    4  A    between atoms: N_11  and  C_12
REMARK    5  A    between atoms: N_11  and  S_19
REMARK    6  A    between atoms: C_12  and  C_13
REMARK    7  A    between atoms: C_13  and  N_14
REMARK    8  A    between atoms: S_19  and  C_22
REMARK    9  A    between atoms: C_22  and  C_23
REMARK   10  A    between atoms: C_28  and  C_29
REMARK   11  A    between atoms: C_28  and  C_30
REMARK                            x       y       z     vdW  Elec       q    Type
REMARK                         _______ _______ _______ _____ _____    ______ ____
ROOT
ATOM      1  N   UNL     1      -5.055  -3.989   0.003  0.00  0.00    -0.174 NA
ENDROOT
BRANCH   1   2
ATOM      2  S   UNL     1      -5.878  -3.891   1.437  0.00  0.00    +0.033 S 
ATOM      3  O   UNL     1      -7.226  -4.192   1.102  0.00  0.00    -0.158 OA
ATOM      4  O   UNL     1      -5.151  -4.722   2.331  0.00  0.00    -0.158 OA
BRANCH   2   5
ATOM      5  C   UNL     1      -5.734  -2.154   1.940  0.00  0.00    +0.200 C 
BRANCH   5   6
ATOM      6  C   UNL     1      -6.622  -1.901   3.159  0.00  0.00    +0.055 C 
ATOM      7  C   UNL     1      -6.264  -2.712   4.442  0.00  0.00    +0.017 C 
ATOM      8  C   UNL     1      -6.924  -1.925   5.598  0.00  0.00    +0.005 C 
ATOM      9  C   UNL     1      -7.625  -0.719   4.898  0.00  0.00    +0.003 C 
ATOM     10  C   UNL     1      -6.615  -0.438   3.728  0.00  0.00    -0.018 C 
ATOM     11  C   UNL     1      -5.235  -0.029   4.246  0.00  0.00    +0.012 C 
ATOM     12  C   UNL     1      -7.168   0.573   2.722  0.00  0.00    +0.012 C 
ATOM     13  C   UNL     1      -8.812  -1.363   4.118  0.00  0.00    +0.079 C 
ATOM     14  C   UNL     1      -8.127  -2.121   2.949  0.00  0.00    +0.142 C 
ATOM     15  O   UNL     1      -8.657  -2.765   2.075  0.00  0.00    -0.297 OA
ENDBRANCH   5   6
ENDBRANCH   2   5
ENDBRANCH   1   2
BRANCH   1  16
ATOM     16  C   UNL     1      -3.646  -4.389  -0.006  0.00  0.00    +0.205 C 
BRANCH  16  24
ATOM     17  C   UNL     1      -0.018   1.503   0.010  0.00  0.00    +0.089 C 
ATOM     18  C   UNL     1       0.002  -0.004   0.002  0.00  0.00    +0.136 A 
ATOM     19  C   UNL     1      -1.076  -0.808   0.003  0.00  0.00    +0.091 A 
ATOM     20  C   UNL     1      -0.625  -2.147  -0.007  0.00  0.00    +0.168 A 
ATOM     21  N   UNL     1       0.683  -2.130  -0.013  0.00  0.00    -0.063 NA
ATOM     22  O   UNL     1       1.100  -0.776  -0.013  0.00  0.00    -0.358 OA
ATOM     23  N   UNL     1      -1.432  -3.285  -0.010  0.00  0.00    -0.267 N 
ATOM     24  C   UNL     1      -2.774  -3.159  -0.003  0.00  0.00    +0.234 C 
ATOM     25  O   UNL     1      -3.280  -2.057   0.006  0.00  0.00    -0.274 OA
ATOM     26  H   UNL     1      -1.027  -4.166  -0.017  0.00  0.00    +0.156 HD
ENDBRANCH  16  24
ENDBRANCH   1  16
BRANCH   1  27
ATOM     27  C   UNL     1      -5.735  -3.675  -1.255  0.00  0.00    +0.091 C 
BRANCH  27  28
ATOM     28  C   UNL     1      -6.258  -4.966  -1.888  0.00  0.00    -0.062 C 
BRANCH  28  29
ATOM     29  N   UNL     1      -6.940  -4.651  -3.151  0.00  0.00    +0.381 N 
ATOM     30  C   UNL     1      -5.957  -4.188  -4.163  0.00  0.00    -0.079 C 
ATOM     31  C   UNL     1      -6.684  -4.445  -5.507  0.00  0.00    -0.020 C 
ATOM     32  C   UNL     1      -7.431  -5.773  -5.247  0.00  0.00    -0.020 C 
ATOM     33  C   UNL     1      -7.556  -5.872  -3.716  0.00  0.00    -0.079 C 
ATOM     34  H   UNL     1      -7.644  -3.945  -2.999  0.00  0.00    -0.082 HD
ENDBRANCH  28  29
ENDBRANCH  27  28
ENDBRANCH   1  27
TORSDOF 8
