REMARK  Name = ZINC16571338
REMARK  6 active torsions:
REMARK  status: ('A' for Active; 'I' for Inactive)
REMARK    1  A    between atoms: C_4  and  C_7
REMARK    2  A    between atoms: C_7  and  C_8
REMARK    3  A    between atoms: C_8  and  C_10
REMARK    4  A    between atoms: C_8  and  N_25
REMARK    5  A    between atoms: C_16  and  C_18
REMARK    6  A    between atoms: C_26  and  C_28
REMARK                            x       y       z     vdW  Elec       q    Type
REMARK                         _______ _______ _______ _____ _____    ______ ____
ROOT
ATOM      1  C   UNL     1      -2.945   0.711   1.462  0.00  0.00    +0.164 C 
ENDROOT
BRANCH   1   2
ATOM      2  C   UNL     1      -4.172  -0.164   1.465  0.00  0.00    +0.239 C 
ATOM      3  O   UNL     1      -5.200   0.234   1.972  0.00  0.00    -0.273 OA
ATOM      4  N   UNL     1      -4.127  -1.389   0.905  0.00  0.00    -0.262 N 
ATOM      5  C   UNL     1      -5.259  -2.196   0.908  0.00  0.00    +0.188 A 
ATOM      6  N   UNL     1      -6.468  -1.967   1.404  0.00  0.00    -0.125 NA
ATOM      7  N   UNL     1      -7.396  -2.816   1.316  0.00  0.00    -0.140 NA
ATOM      8  C   UNL     1      -7.216  -3.995   0.733  0.00  0.00    +0.134 A 
ATOM      9  S   UNL     1      -5.498  -3.844   0.250  0.00  0.00    -0.030 S 
ATOM     10  H   UNL     1      -3.306  -1.708   0.500  0.00  0.00    +0.157 HD
BRANCH   8  11
ATOM     11  C   UNL     1      -8.162  -5.113   0.538  0.00  0.00    +0.009 A 
ATOM     12  C   UNL     1      -7.750  -6.274  -0.118  0.00  0.00    +0.012 A 
ATOM     13  C   UNL     1      -8.636  -7.316  -0.293  0.00  0.00    +0.020 A 
ATOM     14  C   UNL     1      -9.936  -7.208   0.172  0.00  0.00    +0.041 A 
ATOM     15  C   UNL     1     -10.353  -6.057   0.818  0.00  0.00    +0.020 A 
ATOM     16  C   UNL     1      -9.474  -5.010   1.003  0.00  0.00    +0.012 A 
ATOM     17 CL   UNL     1     -11.048  -8.522  -0.058  0.00  0.00    -0.084 Cl
ENDBRANCH   8  11
ENDBRANCH   1   2
BRANCH   1  18
ATOM     18  N   UNL     1      -3.249   1.981   2.126  0.00  0.00    -0.300 N 
ATOM     19  C   UNL     1      -2.260   2.700   2.692  0.00  0.00    +0.245 C 
ATOM     20  O   UNL     1      -1.115   2.294   2.652  0.00  0.00    -0.270 OA
ATOM     21  H   UNL     1      -4.163   2.305   2.158  0.00  0.00    +0.150 HD
BRANCH  19  22
ATOM     22  C   UNL     1      -2.567   3.982   3.361  0.00  0.00    +0.037 A 
ATOM     23  C   UNL     1      -3.880   4.453   3.404  0.00  0.00    +0.013 A 
ATOM     24  C   UNL     1      -4.161   5.647   4.035  0.00  0.00    +0.001 A 
ATOM     25  C   UNL     1      -3.143   6.383   4.615  0.00  0.00    +0.000 A 
ATOM     26  C   UNL     1      -1.838   5.924   4.571  0.00  0.00    +0.001 A 
ATOM     27  C   UNL     1      -1.545   4.728   3.949  0.00  0.00    +0.013 A 
ENDBRANCH  19  22
ENDBRANCH   1  18
BRANCH   1  28
ATOM     28  C   UNL     1      -2.514   0.980   0.019  0.00  0.00    +0.067 C 
BRANCH  28  32
ATOM     29  C   UNL     1       1.156   3.165   0.008  0.00  0.00    +0.000 A 
ATOM     30  C   UNL     1       1.175   1.783   0.000  0.00  0.00    +0.000 A 
ATOM     31  C   UNL     1      -0.013   1.076   0.008  0.00  0.00    +0.004 A 
ATOM     32  C   UNL     1      -1.219   1.751   0.017  0.00  0.00    -0.045 A 
ATOM     33  C   UNL     1      -1.238   3.133   0.030  0.00  0.00    +0.004 A 
ATOM     34  C   UNL     1      -0.050   3.840   0.022  0.00  0.00    +0.000 A 
ENDBRANCH  28  32
ENDBRANCH   1  28
TORSDOF 6
