REMARK  Name = ZINC05883257
REMARK  2 active torsions:
REMARK  status: ('A' for Active; 'I' for Inactive)
REMARK    1  A    between atoms: N_8  and  S_9
REMARK    2  A    between atoms: S_9  and  C_12
REMARK                            x       y       z     vdW  Elec       q    Type
REMARK                         _______ _______ _______ _____ _____    ______ ____
ROOT
ATOM      1  C   UNL     1      -0.091   1.354   0.188  0.00  0.00    +0.001 A 
ATOM      2  C   UNL     1       1.084   2.092   0.199  0.00  0.00    +0.002 A 
ATOM      3  C   UNL     1       2.310   1.464   0.144  0.00  0.00    +0.026 A 
ATOM      4  C   UNL     1       2.375   0.077   0.077  0.00  0.00    +0.049 A 
ATOM      5  C   UNL     1       1.184  -0.667   0.069  0.00  0.00    +0.026 A 
ATOM      6  C   UNL     1      -0.047  -0.023   0.124  0.00  0.00    +0.012 A 
ATOM      7  C   UNL     1       1.295  -2.139   0.008  0.00  0.00    +0.099 A 
ATOM      8  N   UNL     1       0.254  -2.894  -0.267  0.00  0.00    -0.128 NA
ATOM      9  C   UNL     1       2.624  -2.727   0.267  0.00  0.00    -0.001 A 
ATOM     10  C   UNL     1       3.702  -1.930   0.256  0.00  0.00    +0.022 A 
ATOM     11  N   UNL     1       3.582  -0.584   0.013  0.00  0.00    -0.358 N 
ATOM     12  C   UNL     1       5.097  -2.454   0.494  0.00  0.00    +0.053 C 
ATOM     13  C   UNL     1       5.055  -3.822   1.169  0.00  0.00    +0.006 C 
ATOM     14  C   UNL     1       4.113  -4.727   0.364  0.00  0.00    +0.005 C 
ATOM     15  C   UNL     1       2.688  -4.205   0.541  0.00  0.00    +0.039 C 
ATOM     16  H   UNL     1       4.378  -0.078  -0.213  0.00  0.00    +0.166 HD
ENDROOT
BRANCH   8  17
ATOM     17  S   UNL     1      -0.993  -2.287  -1.171  0.00  0.00    +0.102 S 
ATOM     18  O   UNL     1      -2.123  -2.222  -0.312  0.00  0.00    -0.146 OA
ATOM     19  O   UNL     1      -0.486  -1.146  -1.849  0.00  0.00    -0.146 OA
BRANCH  17  20
ATOM     20  C   UNL     1      -1.369  -3.482  -2.410  0.00  0.00    +0.148 A 
ATOM     21  C   UNL     1      -2.598  -4.115  -2.408  0.00  0.00    +0.035 A 
ATOM     22  C   UNL     1      -2.895  -5.053  -3.379  0.00  0.00    +0.040 A 
ATOM     23  C   UNL     1      -1.961  -5.360  -4.354  0.00  0.00    +0.126 A 
ATOM     24  C   UNL     1      -0.731  -4.726  -4.357  0.00  0.00    +0.078 A 
ATOM     25  C   UNL     1      -0.436  -3.783  -3.387  0.00  0.00    +0.153 A 
ATOM     26  F   UNL     1       0.762  -3.160  -3.392  0.00  0.00    -0.203 F 
ATOM     27  F   UNL     1      -2.251  -6.277  -5.303  0.00  0.00    -0.205 F 
ENDBRANCH  17  20
ENDBRANCH   8  17
TORSDOF 2
