REMARK  Name = ZINC36066321
REMARK  13 active torsions:
REMARK  status: ('A' for Active; 'I' for Inactive)
REMARK    1  A    between atoms: C_1  and  C_2
REMARK    2  A    between atoms: C_2  and  C_3
REMARK    3  A    between atoms: C_3  and  C_4
REMARK    4  A    between atoms: C_4  and  C_5
REMARK    5  A    between atoms: C_5  and  C_6
REMARK    6  A    between atoms: C_6  and  N_7
REMARK    7  A    between atoms: C_8  and  C_34
REMARK    8  A    between atoms: C_16  and  C_22
REMARK    9  A    between atoms: N_24  and  C_25
REMARK   10  A    between atoms: C_28  and  O_31
REMARK   11  A    between atoms: O_31  and  C_32
REMARK   12  A    between atoms: C_32  and  C_33
REMARK   13  A    between atoms: N_36  and  C_37
REMARK                            x       y       z     vdW  Elec       q    Type
REMARK                         _______ _______ _______ _____ _____    ______ ____
ROOT
ATOM      1  N   UNL     1      -4.062  -5.173   0.416  0.00  0.00    -0.287 N 
ATOM      2  C   UNL     1      -4.980  -5.437   1.568  0.00  0.00    +0.198 C 
ATOM      3  C   UNL     1      -6.034  -6.291   0.934  0.00  0.00    +0.127 C 
ATOM      4  C   UNL     1      -5.541  -7.687   0.603  0.00  0.00    +0.009 C 
ATOM      5  C   UNL     1      -6.576  -8.316   0.064  0.00  0.00    +0.004 C 
ATOM      6  C   UNL     1      -7.694  -7.267   0.011  0.00  0.00    +0.155 C 
ATOM      7  O   UNL     1      -7.400  -6.466   1.231  0.00  0.00    -0.358 OA
ATOM      8  C   UNL     1      -7.207  -6.322  -1.155  0.00  0.00    +0.123 C 
ATOM      9  C   UNL     1      -6.176  -5.473  -0.412  0.00  0.00    +0.128 C 
ATOM     10  C   UNL     1      -4.756  -5.293  -0.764  0.00  0.00    +0.223 C 
ATOM     11  O   UNL     1      -4.289  -5.261  -1.883  0.00  0.00    -0.275 OA
ENDROOT
BRANCH   8  12
ATOM     12  C   UNL     1      -6.579  -7.117  -2.270  0.00  0.00    +0.224 C 
ATOM     13  O   UNL     1      -5.417  -6.934  -2.565  0.00  0.00    -0.275 OA
ATOM     14  N   UNL     1      -7.308  -8.032  -2.939  0.00  0.00    -0.285 N 
ATOM     15  H   UNL     1      -8.213  -8.233  -2.654  0.00  0.00    +0.155 HD
BRANCH  14  16
ATOM     16  C   UNL     1      -6.759  -8.693  -4.046  0.00  0.00    +0.034 A 
ATOM     17  C   UNL     1      -7.116 -10.007  -4.318  0.00  0.00    +0.027 A 
ATOM     18  C   UNL     1      -6.575 -10.657  -5.410  0.00  0.00    +0.047 A 
ATOM     19  C   UNL     1      -5.675  -9.998  -6.234  0.00  0.00    +0.121 A 
ATOM     20  C   UNL     1      -5.317  -8.685  -5.962  0.00  0.00    +0.047 A 
ATOM     21  C   UNL     1      -5.862  -8.032  -4.874  0.00  0.00    +0.027 A 
BRANCH  19  22
ATOM     22  O   UNL     1      -5.142 -10.638  -7.308  0.00  0.00    -0.492 OA
BRANCH  22  23
ATOM     23  C   UNL     1      -4.221  -9.899  -8.113  0.00  0.00    +0.225 C 
ATOM     24  C   UNL     1      -3.732 -10.779  -9.266  0.00  0.00    +0.048 C 
ENDBRANCH  22  23
ENDBRANCH  19  22
ENDBRANCH  14  16
ENDBRANCH   8  12
BRANCH   2  25
ATOM     25  C   UNL     1      -4.267  -6.185   2.664  0.00  0.00    +0.237 C 
ATOM     26  O   UNL     1      -3.237  -6.778   2.423  0.00  0.00    -0.274 OA
ATOM     27  N   UNL     1      -4.774  -6.197   3.913  0.00  0.00    -0.311 N 
ATOM     28  H   UNL     1      -5.598  -5.723   4.106  0.00  0.00    +0.149 HD
BRANCH  27  29
ATOM     29  C   UNL     1      -4.081  -6.924   4.979  0.00  0.00    +0.073 C 
ATOM     30  C   UNL     1      -4.504  -8.394   4.952  0.00  0.00    +0.022 C 
ATOM     31  C   UNL     1      -3.780  -9.154   6.065  0.00  0.00    +0.002 C 
ATOM     32  C   UNL     1      -4.144  -8.544   7.420  0.00  0.00    +0.000 C 
ATOM     33  C   UNL     1      -3.721  -7.074   7.447  0.00  0.00    +0.002 C 
ATOM     34  C   UNL     1      -4.445  -6.314   6.334  0.00  0.00    +0.022 C 
ENDBRANCH  27  29
ENDBRANCH   2  25
BRANCH   1  35
ATOM     35  C   UNL     1      -2.642  -4.832   0.529  0.00  0.00    +0.109 C 
BRANCH  35  36
ATOM     36  C   UNL     1      -2.489  -3.313   0.625  0.00  0.00    +0.019 C 
BRANCH  36  37
ATOM     37  C   UNL     1      -1.005  -2.957   0.743  0.00  0.00    +0.002 C 
BRANCH  37  38
ATOM     38  C   UNL     1      -0.852  -1.437   0.839  0.00  0.00    -0.000 C 
BRANCH  38  40
ATOM     39  C   UNL     1       0.785   0.438   1.054  0.00  0.00    +0.004 C 
ATOM     40  C   UNL     1       0.632  -1.081   0.958  0.00  0.00    -0.003 C 
ENDBRANCH  38  40
ENDBRANCH  37  38
ENDBRANCH  36  37
ENDBRANCH  35  36
ENDBRANCH   1  35
TORSDOF 11
