REMARK  Name = ZINC17450097
REMARK  9 active torsions:
REMARK  status: ('A' for Active; 'I' for Inactive)
REMARK    1  A    between atoms: C_1  and  C_2
REMARK    2  A    between atoms: C_2  and  N_3
REMARK    3  A    between atoms: N_3  and  S_4
REMARK    4  A    between atoms: S_4  and  C_7
REMARK    5  A    between atoms: C_10  and  C_29
REMARK    6  A    between atoms: C_11  and  C_13
REMARK    7  A    between atoms: N_15  and  N_16
REMARK    8  A    between atoms: C_17  and  C_19
REMARK    9  A    between atoms: C_20  and  C_28
REMARK                            x       y       z     vdW  Elec       q    Type
REMARK                         _______ _______ _______ _____ _____    ______ ____
ROOT
ATOM      1  C   UNL     1       2.336   3.970  -0.539  0.00  0.00    +0.260 C 
ATOM      2  O   UNL     1       3.404   3.402  -0.659  0.00  0.00    -0.269 OA
ATOM      3  N   UNL     1       2.268   5.310  -0.667  0.00  0.00    -0.230 N 
ATOM      4  H   UNL     1       1.416   5.764  -0.571  0.00  0.00    +0.173 HD
ENDROOT
BRANCH   1   9
ATOM      5  C   UNL     1      -1.271   3.090   0.023  0.00  0.00    +0.106 A 
ATOM      6  C   UNL     1      -1.181   1.732   0.276  0.00  0.00    +0.029 A 
ATOM      7  C   UNL     1       0.051   1.103   0.274  0.00  0.00    +0.006 A 
ATOM      8  C   UNL     1       1.197   1.823   0.008  0.00  0.00    -0.038 A 
ATOM      9  C   UNL     1       1.112   3.192  -0.253  0.00  0.00    +0.043 A 
ATOM     10  C   UNL     1      -0.133   3.822  -0.244  0.00  0.00    +0.042 A 
ATOM     11  C   UNL     1       2.537   1.135  -0.000  0.00  0.00    +0.044 C 
BRANCH   5  12
ATOM     12  S   UNL     1      -2.845   3.884   0.035  0.00  0.00    +0.058 S 
ATOM     13  O   UNL     1      -3.695   3.087   0.848  0.00  0.00    -0.153 OA
ATOM     14  O   UNL     1      -2.604   5.258   0.302  0.00  0.00    -0.153 OA
BRANCH  12  15
ATOM     15  N   UNL     1      -3.447   3.799  -1.505  0.00  0.00    -0.190 NA
ATOM     16  H   UNL     1      -3.582   4.611  -2.019  0.00  0.00    +0.148 HD
BRANCH  15  18
ATOM     17  C   UNL     1      -4.644   2.705  -3.336  0.00  0.00    +0.022 C 
ATOM     18  C   UNL     1      -3.777   2.498  -2.092  0.00  0.00    +0.102 C 
ENDBRANCH  15  18
ENDBRANCH  12  15
ENDBRANCH   5  12
ENDBRANCH   1   9
BRANCH   3  19
ATOM     19  N   UNL     1       3.428   6.048  -0.938  0.00  0.00    -0.228 N 
ATOM     20  C   UNL     1       3.360   7.388  -1.066  0.00  0.00    +0.296 C 
ATOM     21  O   UNL     1       2.291   7.957  -0.946  0.00  0.00    -0.265 OA
ATOM     22  H   UNL     1       4.280   5.594  -1.034  0.00  0.00    +0.173 HD
BRANCH  20  23
ATOM     23  C   UNL     1       4.577   8.162  -1.350  0.00  0.00    +0.195 A 
ATOM     24  C   UNL     1       4.627   9.510  -1.504  0.00  0.00    +0.008 A 
ATOM     25  C   UNL     1       6.029   9.835  -1.768  0.00  0.00    +0.024 A 
ATOM     26  C   UNL     1       6.724  11.023  -2.008  0.00  0.00    +0.012 A 
ATOM     27  C   UNL     1       8.071  10.986  -2.230  0.00  0.00    +0.001 A 
ATOM     28  C   UNL     1       8.753   9.776  -2.219  0.00  0.00    +0.004 A 
ATOM     29  C   UNL     1       8.086   8.594  -1.984  0.00  0.00    +0.047 A 
ATOM     30  C   UNL     1       6.714   8.607  -1.755  0.00  0.00    +0.136 A 
ATOM     31  O   UNL     1       5.811   7.639  -1.503  0.00  0.00    -0.450 OA
ATOM     32  C   UNL     1       3.474  10.476  -1.418  0.00  0.00    +0.048 C 
ENDBRANCH  20  23
ENDBRANCH   3  19
TORSDOF 6
