REMARK  Name = ZINC43761271
REMARK  6 active torsions:
REMARK  status: ('A' for Active; 'I' for Inactive)
REMARK    1  A    between atoms: C_1  and  C_2
REMARK    2  A    between atoms: C_2  and  C_17
REMARK    3  A    between atoms: N_3  and  N_4
REMARK    4  A    between atoms: C_7  and  C_10
REMARK    5  A    between atoms: C_20  and  O_24
REMARK    6  A    between atoms: C_22  and  O_23
REMARK                            x       y       z     vdW  Elec       q    Type
REMARK                         _______ _______ _______ _____ _____    ______ ____
ROOT
ATOM      1  N   UNL     1       0.024  -0.025   2.251  0.00  0.00    -0.124 NA
ATOM      2  C   UNL     1       0.044  -0.692   3.393  0.00  0.00    +0.192 A 
ATOM      3  N   UNL     1       0.044  -0.211   4.681  0.00  0.00    -0.332 N 
ATOM      4  C   UNL     1       0.066  -1.104   5.716  0.00  0.00    +0.055 A 
ATOM      5  C   UNL     1       0.088  -2.428   5.454  0.00  0.00    +0.075 A 
ATOM      6  S   UNL     1       0.070  -2.457   3.669  0.00  0.00    -0.056 S 
ATOM      7  H   UNL     1       0.028   0.744   4.852  0.00  0.00    +0.168 HD
ENDROOT
BRANCH   4   8
ATOM      8  C   UNL     1       0.067  -0.623   7.114  0.00  0.00    -0.001 A 
ATOM      9  C   UNL     1       0.040   0.747   7.383  0.00  0.00    +0.011 A 
ATOM     10  C   UNL     1       0.040   1.190   8.690  0.00  0.00    +0.020 A 
ATOM     11  C   UNL     1       0.069   0.279   9.732  0.00  0.00    +0.041 A 
ATOM     12  C   UNL     1       0.097  -1.080   9.471  0.00  0.00    +0.020 A 
ATOM     13  C   UNL     1       0.090  -1.536   8.169  0.00  0.00    +0.011 A 
ATOM     14 CL   UNL     1       0.070   0.845  11.374  0.00  0.00    -0.084 Cl
ENDBRANCH   4   8
BRANCH   1  17
ATOM     15  C   UNL     1      -0.018   1.503   0.010  0.00  0.00    +0.068 C 
ATOM     16  C   UNL     1       0.002  -0.004   0.002  0.00  0.00    +0.071 C 
ATOM     17  N   UNL     1       0.022  -0.664   1.130  0.00  0.00    -0.151 NA
BRANCH  16  18
ATOM     18  C   UNL     1      -0.000  -0.732  -1.275  0.00  0.00    +0.039 A 
ATOM     19  C   UNL     1      -0.015  -0.030  -2.484  0.00  0.00    +0.017 A 
ATOM     20  C   UNL     1      -0.017  -0.717  -3.679  0.00  0.00    +0.046 A 
ATOM     21  C   UNL     1      -0.004  -2.106  -3.687  0.00  0.00    +0.120 A 
ATOM     22  C   UNL     1       0.011  -2.813  -2.493  0.00  0.00    +0.091 A 
ATOM     23  C   UNL     1       0.019  -2.136  -1.286  0.00  0.00    +0.129 A 
BRANCH  23  24
ATOM     24  O   UNL     1       0.039  -2.826  -0.117  0.00  0.00    -0.506 OA
ATOM     25  H   UNL     1      -0.839  -3.038   0.230  0.00  0.00    +0.292 HD
ENDBRANCH  23  24
BRANCH  21  26
ATOM     26  O   UNL     1      -0.006  -2.776  -4.869  0.00  0.00    -0.507 OA
ATOM     27  H   UNL     1       0.877  -2.961  -5.218  0.00  0.00    +0.292 HD
ENDBRANCH  21  26
ENDBRANCH  16  18
ENDBRANCH   1  17
TORSDOF 5
