REMARK  Name = ZINC14038052
REMARK  12 active torsions:
REMARK  status: ('A' for Active; 'I' for Inactive)
REMARK    1  A    between atoms: C_1  and  C_2
REMARK    2  A    between atoms: C_2  and  C_4
REMARK    3  A    between atoms: C_2  and  O_22
REMARK    4  A    between atoms: N_6  and  N_7
REMARK    5  A    between atoms: C_8  and  C_10
REMARK    6  A    between atoms: C_10  and  O_11
REMARK    7  A    between atoms: O_11  and  C_12
REMARK    8  A    between atoms: C_15  and  C_19
REMARK    9  A    between atoms: C_19  and  C_20
REMARK   10  A    between atoms: C_19  and  C_21
REMARK   11  A    between atoms: O_22  and  C_23
REMARK   12  A    between atoms: C_26  and  N_29
REMARK                            x       y       z     vdW  Elec       q    Type
REMARK                         _______ _______ _______ _____ _____    ______ ____
ROOT
ATOM      1  C   UNL     1       0.627  -0.283  -1.345  0.00  0.00    +0.270 C 
ATOM      2  O   UNL     1      -0.044  -0.756  -2.238  0.00  0.00    -0.270 OA
ATOM      3  N   UNL     1       1.927  -0.000  -1.555  0.00  0.00    -0.231 N 
ATOM      4  H   UNL     1       2.463   0.378  -0.841  0.00  0.00    +0.173 HD
ENDROOT
BRANCH   3   5
ATOM      5  N   UNL     1       2.505  -0.252  -2.806  0.00  0.00    -0.231 N 
ATOM      6  C   UNL     1       3.806   0.030  -3.017  0.00  0.00    +0.267 C 
ATOM      7  O   UNL     1       4.476   0.503  -2.123  0.00  0.00    -0.271 OA
ATOM      8  H   UNL     1       1.969  -0.630  -3.521  0.00  0.00    +0.173 HD
BRANCH   6   9
ATOM      9  C   UNL     1       4.428  -0.241  -4.363  0.00  0.00    +0.326 C 
BRANCH   9  10
ATOM     10  O   UNL     1       5.805   0.140  -4.337  0.00  0.00    -0.482 OA
BRANCH  10  11
ATOM     11  C   UNL     1       6.517  -0.041  -5.480  0.00  0.00    +0.135 A 
ATOM     12  C   UNL     1       5.901  -0.569  -6.606  0.00  0.00    +0.047 A 
ATOM     13  C   UNL     1       6.627  -0.752  -7.767  0.00  0.00    +0.007 A 
ATOM     14  C   UNL     1       7.966  -0.410  -7.808  0.00  0.00    -0.044 A 
ATOM     15  C   UNL     1       8.583   0.116  -6.688  0.00  0.00    +0.022 A 
ATOM     16  C   UNL     1       7.860   0.307  -5.526  0.00  0.00    +0.060 A 
ATOM     17 BR   UNL     1       8.701   1.034  -3.996  0.00  0.00    -0.047 Br
BRANCH  14  18
ATOM     18  C   UNL     1       8.755  -0.611  -9.076  0.00  0.00    +0.013 C 
ATOM     19  C   UNL     1       9.305   0.735  -9.554  0.00  0.00    +0.012 C 
ATOM     20  C   UNL     1       9.916  -1.570  -8.808  0.00  0.00    +0.012 C 
ENDBRANCH  14  18
ENDBRANCH  10  11
ENDBRANCH   9  10
ENDBRANCH   6   9
ENDBRANCH   3   5
BRANCH   1  22
ATOM     21  C   UNL     1       0.004   1.495   0.268  0.00  0.00    +0.062 C 
ATOM     22  C   UNL     1       0.005  -0.012   0.001  0.00  0.00    +0.257 C 
BRANCH  22  23
ATOM     23  O   UNL     1      -1.339  -0.499   0.012  0.00  0.00    -0.480 OA
BRANCH  23  24
ATOM     24  C   UNL     1      -1.869  -0.818   1.222  0.00  0.00    +0.122 A 
ATOM     25  C   UNL     1      -3.124  -1.405   1.297  0.00  0.00    +0.048 A 
ATOM     26  C   UNL     1      -3.661  -1.729   2.528  0.00  0.00    +0.036 A 
ATOM     27  C   UNL     1      -2.949  -1.468   3.684  0.00  0.00    +0.126 A 
ATOM     28  C   UNL     1      -1.699  -0.882   3.612  0.00  0.00    +0.036 A 
ATOM     29  C   UNL     1      -1.155  -0.561   2.383  0.00  0.00    +0.048 A 
BRANCH  27  30
ATOM     30  N   UNL     1      -3.527  -1.816   5.002  0.00  0.00    +0.056 N 
ATOM     31  O   UNL     1      -4.620  -2.328   5.066  0.00  0.00    -0.126 OA
ATOM     32  O   UNL     1      -2.906  -1.588   6.013  0.00  0.00    -0.126 OA
ENDBRANCH  27  30
ENDBRANCH  23  24
ENDBRANCH  22  23
ENDBRANCH   1  22
TORSDOF 9
