REMARK  Name = ZINC39666297
REMARK  9 active torsions:
REMARK  status: ('A' for Active; 'I' for Inactive)
REMARK    1  A    between atoms: C_1  and  C_2
REMARK    2  A    between atoms: C_5  and  O_8
REMARK    3  A    between atoms: O_8  and  C_9
REMARK    4  A    between atoms: C_9  and  C_11
REMARK    5  A    between atoms: C_9  and  C_12
REMARK    6  A    between atoms: C_12  and  N_13
REMARK    7  A    between atoms: C_14  and  C_16
REMARK    8  A    between atoms: C_27  and  C_29
REMARK    9  A    between atoms: N_33  and  C_34
REMARK                            x       y       z     vdW  Elec       q    Type
REMARK                         _______ _______ _______ _____ _____    ______ ____
ROOT
ATOM      1  C   UNL     1       5.386  -6.388   0.957  0.00  0.00    +0.100 C 
ATOM      2  C   UNL     1       5.311  -5.519  -0.319  0.00  0.00    +0.121 C 
ATOM      3  N   UNL     1       6.358  -6.072  -1.210  0.00  0.00    -0.295 N 
ATOM      4  C   UNL     1       6.272  -7.539  -1.015  0.00  0.00    +0.115 C 
ATOM      5  C   UNL     1       6.017  -7.713   0.496  0.00  0.00    -0.004 C 
ATOM      6  C   UNL     1       7.333  -7.955   1.229  0.00  0.00    -0.010 C 
ATOM      7  C   UNL     1       7.912  -9.304   0.796  0.00  0.00    -0.082 C 
ATOM      8  N   UNL     1       6.954 -10.372   1.104  0.00  0.00    +0.379 N 
ATOM      9  C   UNL     1       5.725 -10.183   0.324  0.00  0.00    -0.082 C 
ATOM     10  C   UNL     1       5.053  -8.870   0.737  0.00  0.00    -0.010 C 
ATOM     11  C   UNL     1       7.198  -5.393  -2.017  0.00  0.00    +0.265 C 
ATOM     12  O   UNL     1       8.089  -5.982  -2.600  0.00  0.00    -0.268 OA
ATOM     13  H   UNL     1       7.362 -11.265   0.874  0.00  0.00    -0.086 HD
ATOM     14  H   UNL     1       6.733 -10.350   2.088  0.00  0.00    -0.086 HD
ENDROOT
BRANCH  11  15
ATOM     15  C   UNL     1       7.038  -3.945  -2.191  0.00  0.00    +0.124 A 
ATOM     16  C   UNL     1       6.002  -3.175  -1.744  0.00  0.00    +0.143 A 
ATOM     17  N   UNL     1       6.242  -1.916  -2.110  0.00  0.00    -0.243 NA
ATOM     18  C   UNL     1       7.375  -1.855  -2.763  0.00  0.00    +0.199 A 
ATOM     19  N   UNL     1       7.909  -3.087  -2.835  0.00  0.00    -0.330 N 
ATOM     20  C   UNL     1       9.174  -3.451  -3.478  0.00  0.00    +0.150 C 
ENDBRANCH  11  15
BRANCH   1  22
ATOM     21  N   UNL     1       3.833  -6.823   2.832  0.00  0.00    -0.312 N 
ATOM     22  C   UNL     1       4.005  -6.629   1.509  0.00  0.00    +0.218 C 
ATOM     23  O   UNL     1       3.048  -6.649   0.764  0.00  0.00    -0.275 OA
ATOM     24  H   UNL     1       4.598  -6.807   3.428  0.00  0.00    +0.149 HD
BRANCH  21  25
ATOM     25  C   UNL     1       2.490  -7.057   3.369  0.00  0.00    +0.148 C 
BRANCH  25  26
ATOM     26  C   UNL     1       2.573  -7.245   4.885  0.00  0.00    +0.187 C 
ATOM     27  C   UNL     1       1.191  -7.613   5.430  0.00  0.00    +0.053 C 
BRANCH  26  28
ATOM     28  O   UNL     1       3.016  -6.030   5.492  0.00  0.00    -0.488 OA
BRANCH  28  33
ATOM     29  C   UNL     1       5.472  -6.442  10.544  0.00  0.00    +0.044 C 
ATOM     30  C   UNL     1       4.815  -6.332   9.193  0.00  0.00    -0.050 A 
ATOM     31  C   UNL     1       4.352  -7.468   8.556  0.00  0.00    +0.007 A 
ATOM     32  C   UNL     1       3.749  -7.370   7.316  0.00  0.00    +0.046 A 
ATOM     33  C   UNL     1       3.608  -6.129   6.712  0.00  0.00    +0.121 A 
ATOM     34  C   UNL     1       4.073  -4.990   7.353  0.00  0.00    +0.046 A 
ATOM     35  C   UNL     1       4.670  -5.093   8.595  0.00  0.00    +0.007 A 
ENDBRANCH  28  33
ENDBRANCH  26  28
ENDBRANCH  25  26
ENDBRANCH  21  25
ENDBRANCH   1  22
TORSDOF 6
