REMARK  Name = ZINC40386844
REMARK  4 active torsions:
REMARK  status: ('A' for Active; 'I' for Inactive)
REMARK    1  A    between atoms: C_1  and  N_2
REMARK    2  A    between atoms: C_10  and  C_25
REMARK    3  A    between atoms: C_12  and  N_24
REMARK    4  A    between atoms: N_13  and  C_17
REMARK                            x       y       z     vdW  Elec       q    Type
REMARK                         _______ _______ _______ _____ _____    ______ ____
ROOT
ATOM      1  C   UNL     1       1.079   1.886  -0.205  0.00  0.00    -0.096 C 
ATOM      2  N   UNL     1       0.798   0.446  -0.128  0.00  0.00    +0.380 N 
ATOM      3  C   UNL     1       1.313  -0.217  -1.333  0.00  0.00    -0.060 C 
ATOM      4  C   UNL     1       0.921  -1.698  -1.308  0.00  0.00    +0.089 C 
ATOM      5  N   UNL     1       1.394  -2.284  -0.044  0.00  0.00    -0.303 N 
ATOM      6  C   UNL     1       1.060  -1.590   1.209  0.00  0.00    +0.089 C 
ATOM      7  C   UNL     1       1.446  -0.114   1.065  0.00  0.00    -0.060 C 
ATOM      8  C   UNL     1       2.132  -3.453  -0.035  0.00  0.00    +0.220 A 
ATOM      9  N   UNL     1       2.528  -3.938   1.139  0.00  0.00    -0.213 NA
ATOM     10  C   UNL     1       3.239  -5.054   1.238  0.00  0.00    +0.091 A 
ATOM     11  C   UNL     1       3.579  -5.739   0.050  0.00  0.00    +0.086 A 
ATOM     12  C   UNL     1       4.284  -6.894  -0.266  0.00  0.00    +0.131 A 
ATOM     13  N   UNL     1       4.265  -7.027  -1.607  0.00  0.00    -0.216 N 
ATOM     14  N   UNL     1       3.553  -5.967  -2.180  0.00  0.00    -0.144 NA
ATOM     15  C   UNL     1       3.121  -5.167  -1.229  0.00  0.00    +0.189 A 
ATOM     16  N   UNL     1       2.401  -4.029  -1.189  0.00  0.00    -0.193 NA
ATOM     17  H   UNL     1      -0.198   0.301  -0.068  0.00  0.00    -0.082 HD
ENDROOT
BRANCH  13  18
ATOM     18  C   UNL     1       4.869  -8.069  -2.320  0.00  0.00    +0.068 A 
ATOM     19  C   UNL     1       6.062  -8.620  -1.872  0.00  0.00    +0.029 A 
ATOM     20  C   UNL     1       6.655  -9.648  -2.577  0.00  0.00    +0.022 A 
ATOM     21  C   UNL     1       6.062 -10.130  -3.730  0.00  0.00    +0.041 A 
ATOM     22  C   UNL     1       4.873  -9.583  -4.180  0.00  0.00    +0.022 A 
ATOM     23  C   UNL     1       4.272  -8.558  -3.475  0.00  0.00    +0.029 A 
ATOM     24 CL   UNL     1       6.810 -11.423  -4.615  0.00  0.00    -0.084 Cl
ENDBRANCH  13  18
BRANCH  10  25
ATOM     25  C   UNL     1       3.664  -5.567   2.559  0.00  0.00    +0.036 A 
ATOM     26  C   UNL     1       5.018  -5.770   2.829  0.00  0.00    +0.013 A 
ATOM     27  C   UNL     1       5.409  -6.248   4.062  0.00  0.00    +0.001 A 
ATOM     28  C   UNL     1       4.462  -6.529   5.032  0.00  0.00    +0.003 A 
ATOM     29  C   UNL     1       3.118  -6.331   4.773  0.00  0.00    +0.039 A 
ATOM     30  C   UNL     1       2.713  -5.847   3.543  0.00  0.00    +0.133 A 
ATOM     31  F   UNL     1       1.400  -5.648   3.292  0.00  0.00    -0.205 F 
ENDBRANCH  10  25
BRANCH  12  32
ATOM     32  N   UNL     1       4.893  -7.751   0.632  0.00  0.00    -0.342 N 
ATOM     33  H   UNL     1       4.857  -7.563   1.583  0.00  0.00    +0.144 HD
ATOM     34  H   UNL     1       5.357  -8.540   0.310  0.00  0.00    +0.144 HD
ENDBRANCH  12  32
TORSDOF 3
