REMARK  Name = ZINC03840589
REMARK  14 active torsions:
REMARK  status: ('A' for Active; 'I' for Inactive)
REMARK    1  A    between atoms: C_1  and  C_2
REMARK    2  A    between atoms: N_9  and  C_10
REMARK    3  A    between atoms: C_12  and  O_18
REMARK    4  A    between atoms: C_15  and  O_16
REMARK    5  A    between atoms: O_16  and  C_17
REMARK    6  A    between atoms: O_18  and  C_19
REMARK    7  A    between atoms: C_21  and  C_41
REMARK    8  A    between atoms: C_24  and  O_40
REMARK    9  A    between atoms: C_26  and  C_30
REMARK   10  A    between atoms: C_30  and  C_32
REMARK   11  A    between atoms: C_30  and  C_33
REMARK   12  A    between atoms: N_35  and  C_36
REMARK   13  A    between atoms: N_35  and  C_37
REMARK   14  A    between atoms: C_37  and  C_38
REMARK                            x       y       z     vdW  Elec       q    Type
REMARK                         _______ _______ _______ _____ _____    ______ ____
ROOT
ATOM      1  C   UNL     1       5.664  -2.795   2.331  0.00  0.00    +0.014 C 
ATOM      2  C   UNL     1       6.085  -3.326   0.959  0.00  0.00    +0.042 C 
ATOM      3  C   UNL     1       7.394  -4.091   1.092  0.00  0.00    +0.057 A 
ATOM      4  C   UNL     1       8.364  -3.948   0.155  0.00  0.00    +0.015 A 
ATOM      5  S   UNL     1       9.643  -5.021   0.751  0.00  0.00    -0.057 S 
ATOM      6  C   UNL     1       8.813  -5.570   2.176  0.00  0.00    +0.163 A 
ATOM      7  N   UNL     1       7.669  -4.922   2.096  0.00  0.00    -0.229 NA
ATOM      8  N   UNL     1       9.244  -6.461   3.147  0.00  0.00    -0.291 N 
ATOM      9  C   UNL     1       8.333  -3.104  -1.075  0.00  0.00    +0.051 C 
ATOM     10  C   UNL     1       6.884  -2.641  -1.323  0.00  0.00    -0.022 C 
ATOM     11  C   UNL     1       6.273  -2.151  -0.009  0.00  0.00    +0.033 C 
ATOM     12  C   UNL     1       4.907  -1.528  -0.249  0.00  0.00    +0.123 C 
ATOM     13  C   UNL     1       5.010  -0.378  -1.248  0.00  0.00    +0.029 C 
ATOM     14  C   UNL     1       5.547  -0.923  -2.574  0.00  0.00    +0.007 C 
ATOM     15  C   UNL     1       6.943  -1.497  -2.340  0.00  0.00    +0.008 C 
ATOM     16  C   UNL     1       6.055  -3.798  -1.885  0.00  0.00    +0.012 C 
ATOM     17  H   UNL     1       8.630  -6.763   3.836  0.00  0.00    +0.154 HD
ENDROOT
BRANCH   8  18
ATOM     18  C   UNL     1      10.564  -6.926   3.135  0.00  0.00    +0.078 A 
ATOM     19  C   UNL     1      11.575  -6.133   2.609  0.00  0.00    +0.072 A 
ATOM     20  C   UNL     1      12.881  -6.596   2.598  0.00  0.00    +0.122 A 
ATOM     21  C   UNL     1      13.179  -7.850   3.111  0.00  0.00    +0.049 A 
ATOM     22  C   UNL     1      12.174  -8.642   3.635  0.00  0.00    +0.051 A 
ATOM     23  C   UNL     1      10.867  -8.182   3.655  0.00  0.00    +0.141 A 
BRANCH  23  24
ATOM     24  O   UNL     1       9.880  -8.959   4.177  0.00  0.00    -0.493 OA
ATOM     25  C   UNL     1      10.263 -10.235   4.693  0.00  0.00    +0.277 C 
ENDBRANCH  23  24
BRANCH  20  26
ATOM     26  O   UNL     1      13.872  -5.820   2.083  0.00  0.00    -0.495 OA
ATOM     27  C   UNL     1      15.195  -6.360   2.104  0.00  0.00    +0.277 C 
ENDBRANCH  20  26
ENDBRANCH   8  18
BRANCH  13  28
ATOM     28  C   UNL     1       3.625   0.236  -1.468  0.00  0.00    +0.078 C 
ATOM     29  C   UNL     1       2.709  -0.798  -2.127  0.00  0.00    +0.017 C 
BRANCH  28  30
ATOM     30  C   UNL     1       3.747   1.442  -2.363  0.00  0.00    +0.219 C 
ATOM     31  O   UNL     1       4.788   1.664  -2.944  0.00  0.00    -0.275 OA
ATOM     32  N   UNL     1       2.698   2.275  -2.518  0.00  0.00    -0.301 N 
ATOM     33  C   UNL     1       1.440   2.007  -1.816  0.00  0.00    +0.132 C 
BRANCH  32  34
ATOM     34  C   UNL     1       2.817   3.447  -3.388  0.00  0.00    +0.134 C 
BRANCH  34  35
ATOM     35  C   UNL     1       2.406   3.076  -4.790  0.00  0.00    -0.016 C 
ATOM     36  C   UNL     1       1.464   3.754  -5.398  0.00  0.00    +0.005 C 
ENDBRANCH  34  35
ENDBRANCH  32  34
ENDBRANCH  28  30
ENDBRANCH  13  28
BRANCH  12  37
ATOM     37  O   UNL     1       4.383  -1.036   0.986  0.00  0.00    -0.391 OA
ATOM     38  H   UNL     1       3.466  -0.736   0.933  0.00  0.00    +0.210 HD
ENDBRANCH  12  37
TORSDOF 8
