REMARK  Name = ZINC36234138
REMARK  8 active torsions:
REMARK  status: ('A' for Active; 'I' for Inactive)
REMARK    1  A    between atoms: C_1  and  C_2
REMARK    2  A    between atoms: C_2  and  C_3
REMARK    3  A    between atoms: C_3  and  C_27
REMARK    4  A    between atoms: N_6  and  C_10
REMARK    5  A    between atoms: C_10  and  C_11
REMARK    6  A    between atoms: N_13  and  C_14
REMARK    7  A    between atoms: C_19  and  S_20
REMARK    8  A    between atoms: S_20  and  C_21
REMARK                            x       y       z     vdW  Elec       q    Type
REMARK                         _______ _______ _______ _____ _____    ______ ____
ROOT
ATOM      1  C   UNL     1       0.166   1.371  -4.552  0.00  0.00    +0.214 C 
ENDROOT
BRANCH   1   5
ATOM      2  C   UNL     1      -1.409  -1.002  -2.168  0.00  0.00    +0.138 C 
ATOM      3  C   UNL     1      -1.436  -0.164  -3.431  0.00  0.00    +0.251 C 
ATOM      4  O   UNL     1      -2.345  -0.070  -4.227  0.00  0.00    -0.272 OA
ATOM      5  N   UNL     1      -0.240   0.454  -3.484  0.00  0.00    -0.215 N 
ATOM      6  C   UNL     1       0.531   0.128  -2.441  0.00  0.00    +0.310 C 
ATOM      7  O   UNL     1       1.655   0.559  -2.269  0.00  0.00    -0.252 OA
ATOM      8  N   UNL     1      -0.075  -0.733  -1.603  0.00  0.00    -0.281 N 
ATOM      9  H   UNL     1       0.293  -1.103  -0.785  0.00  0.00    +0.152 HD
BRANCH   2  10
ATOM     10  C   UNL     1      -1.560  -2.465  -2.494  0.00  0.00    -0.015 A 
ATOM     11  C   UNL     1      -2.815  -3.046  -2.497  0.00  0.00    +0.007 A 
ATOM     12  C   UNL     1      -2.955  -4.388  -2.797  0.00  0.00    +0.020 A 
ATOM     13  C   UNL     1      -1.839  -5.150  -3.094  0.00  0.00    +0.041 A 
ATOM     14  C   UNL     1      -0.584  -4.568  -3.091  0.00  0.00    +0.020 A 
ATOM     15  C   UNL     1      -0.446  -3.225  -2.797  0.00  0.00    +0.007 A 
ATOM     16 CL   UNL     1      -2.014  -6.836  -3.470  0.00  0.00    -0.084 Cl
ENDBRANCH   2  10
BRANCH   2  18
ATOM     17  C   UNL     1      -2.360   0.947  -0.926  0.00  0.00    +0.007 C 
ATOM     18  C   UNL     1      -2.505  -0.552  -1.199  0.00  0.00    +0.037 C 
ENDBRANCH   2  18
ENDBRANCH   1   5
BRANCH   1  19
ATOM     19  C   UNL     1      -0.228   2.778  -4.183  0.00  0.00    +0.235 C 
ATOM     20  O   UNL     1      -0.792   2.994  -3.131  0.00  0.00    -0.274 OA
ATOM     21  N   UNL     1       0.047   3.796  -5.022  0.00  0.00    -0.283 N 
ATOM     22  H   UNL     1       0.564   3.636  -5.827  0.00  0.00    +0.155 HD
BRANCH  21  23
ATOM     23  C   UNL     1      -0.413   5.088  -4.731  0.00  0.00    +0.047 A 
ATOM     24  C   UNL     1      -0.591   5.482  -3.414  0.00  0.00    +0.024 A 
ATOM     25  C   UNL     1      -1.045   6.756  -3.128  0.00  0.00    +0.002 A 
ATOM     26  C   UNL     1      -1.322   7.642  -4.154  0.00  0.00    +0.001 A 
ATOM     27  C   UNL     1      -1.148   7.258  -5.470  0.00  0.00    +0.017 A 
ATOM     28  C   UNL     1      -0.687   5.982  -5.766  0.00  0.00    +0.034 A 
BRANCH  28  29
ATOM     29  S   UNL     1      -0.457   5.492  -7.442  0.00  0.00    -0.088 S 
BRANCH  29  30
ATOM     30  C   UNL     1      -0.877   6.931  -8.368  0.00  0.00    +0.013 A 
ATOM     31  C   UNL     1       0.077   7.916  -8.595  0.00  0.00    +0.015 A 
ATOM     32  C   UNL     1      -0.256   9.043  -9.322  0.00  0.00    +0.001 A 
ATOM     33  C   UNL     1      -1.536   9.191  -9.823  0.00  0.00    +0.000 A 
ATOM     34  C   UNL     1      -2.488   8.213  -9.599  0.00  0.00    +0.001 A 
ATOM     35  C   UNL     1      -2.161   7.081  -8.879  0.00  0.00    +0.015 A 
ENDBRANCH  29  30
ENDBRANCH  28  29
ENDBRANCH  21  23
ENDBRANCH   1  19
TORSDOF 7
