REMARK  Name = ZINC39367234
REMARK  7 active torsions:
REMARK  status: ('A' for Active; 'I' for Inactive)
REMARK    1  A    between atoms: C_1  and  C_2
REMARK    2  A    between atoms: C_4  and  C_20
REMARK    3  A    between atoms: C_9  and  C_13
REMARK    4  A    between atoms: C_9  and  C_14
REMARK    5  A    between atoms: C_23  and  N_26
REMARK    6  A    between atoms: N_26  and  C_27
REMARK    7  A    between atoms: N_26  and  C_28
REMARK                            x       y       z     vdW  Elec       q    Type
REMARK                         _______ _______ _______ _____ _____    ______ ____
ROOT
ATOM      1  C   UNL     1      -0.027   1.517  -0.021  0.00  0.00    +0.067 C 
ATOM      2  C   UNL     1       0.002   0.010  -0.028  0.00  0.00    +0.064 C 
ATOM      3  C   UNL     1      -1.060  -0.759  -0.014  0.00  0.00    +0.008 C 
ATOM      4  C   UNL     1      -2.528  -0.503   0.161  0.00  0.00    +0.085 C 
ATOM      5  C   UNL     1      -3.050  -1.552   1.130  0.00  0.00    +0.023 C 
ATOM      6  C   UNL     1      -2.312  -2.619   1.503  0.00  0.00    +0.014 C 
ATOM      7  C   UNL     1      -2.897  -3.655   2.442  0.00  0.00    +0.057 C 
ATOM      8  C   UNL     1      -3.867  -2.983   3.413  0.00  0.00    -0.023 C 
ATOM      9  C   UNL     1      -4.978  -2.313   2.596  0.00  0.00    +0.086 C 
ATOM     10  C   UNL     1      -4.351  -1.354   1.624  0.00  0.00    +0.162 C 
ATOM     11  O   UNL     1      -4.983  -0.383   1.257  0.00  0.00    -0.292 OA
ATOM     12  C   UNL     1      -4.474  -4.033   4.345  0.00  0.00    +0.011 C 
ATOM     13  C   UNL     1      -3.126  -1.928   4.237  0.00  0.00    +0.011 C 
ATOM     14  N   UNL     1      -1.021  -2.844   1.096  0.00  0.00    -0.321 N 
ATOM     15  C   UNL     1      -0.517  -2.186  -0.112  0.00  0.00    +0.241 C 
ATOM     16  N   UNL     1       0.931  -1.966  -0.068  0.00  0.00    -0.160 NA
ATOM     17  N   UNL     1       1.130  -0.744  -0.054  0.00  0.00    -0.157 NA
ATOM     18  H   UNL     1      -0.446  -3.435   1.606  0.00  0.00    +0.148 HD
ENDROOT
BRANCH   4  19
ATOM     19  C   UNL     1      -2.745   0.876   0.727  0.00  0.00    -0.035 A 
ATOM     20  C   UNL     1      -2.200   1.212   1.953  0.00  0.00    +0.006 A 
ATOM     21  C   UNL     1      -2.397   2.475   2.476  0.00  0.00    +0.023 A 
ATOM     22  C   UNL     1      -3.144   3.409   1.768  0.00  0.00    +0.029 A 
ATOM     23  C   UNL     1      -3.690   3.068   0.537  0.00  0.00    +0.023 A 
ATOM     24  C   UNL     1      -3.484   1.805   0.018  0.00  0.00    +0.006 A 
BRANCH  22  25
ATOM     25  N   UNL     1      -3.346   4.687   2.293  0.00  0.00    -0.336 N 
ATOM     26  C   UNL     1      -2.878   5.006   3.645  0.00  0.00    +0.129 C 
ATOM     27  C   UNL     1      -4.025   5.710   1.493  0.00  0.00    +0.129 C 
ENDBRANCH  22  25
ENDBRANCH   4  19
TORSDOF 2
