REMARK  Name = ZINC38685647
REMARK  10 active torsions:
REMARK  status: ('A' for Active; 'I' for Inactive)
REMARK    1  A    between atoms: C_1  and  C_2
REMARK    2  A    between atoms: C_6  and  N_9
REMARK    3  A    between atoms: C_7  and  C_8
REMARK    4  A    between atoms: N_12  and  C_15
REMARK    5  A    between atoms: C_15  and  C_16
REMARK    6  A    between atoms: N_18  and  C_19
REMARK    7  A    between atoms: C_21  and  C_33
REMARK    8  A    between atoms: C_27  and  C_29
REMARK    9  A    between atoms: C_29  and  O_31
REMARK   10  A    between atoms: O_31  and  C_32
REMARK                            x       y       z     vdW  Elec       q    Type
REMARK                         _______ _______ _______ _____ _____    ______ ____
ROOT
ATOM      1  C   UNL     1       0.221  -4.089   8.628  0.00  0.00    +0.231 C 
ATOM      2  O   UNL     1       0.599  -4.691   7.646  0.00  0.00    -0.274 OA
ATOM      3  N   UNL     1       0.910  -4.180   9.783  0.00  0.00    -0.285 N 
ATOM      4  H   UNL     1       0.584  -3.734  10.579  0.00  0.00    +0.155 HD
ENDROOT
BRANCH   3   5
ATOM      5  C   UNL     1       2.066  -4.899   9.830  0.00  0.00    +0.053 C 
ATOM      6  C   UNL     1       2.954  -4.987  10.889  0.00  0.00    +0.021 A 
ATOM      7  C   UNL     1       2.960  -4.405  12.179  0.00  0.00    -0.040 A 
ATOM      8  C   UNL     1       3.981  -4.672  13.031  0.00  0.00    +0.004 A 
ATOM      9  C   UNL     1       5.037  -5.512  12.669  0.00  0.00    +0.002 A 
ATOM     10  C   UNL     1       5.096  -6.103  11.451  0.00  0.00    +0.026 A 
ATOM     11  C   UNL     1       4.065  -5.874  10.504  0.00  0.00    +0.045 A 
ATOM     12  N   UNL     1       3.893  -6.321   9.277  0.00  0.00    -0.367 N 
ATOM     13  C   UNL     1       2.643  -5.774   8.738  0.00  0.00    +0.234 C 
ATOM     14  C   UNL     1       1.839  -3.492  12.604  0.00  0.00    +0.044 C 
ATOM     15  H   UNL     1       4.494  -6.919   8.806  0.00  0.00    +0.161 HD
BRANCH  13  16
ATOM     16  C   UNL     1       1.685  -6.888   8.405  0.00  0.00    +0.335 C 
ATOM     17  O   UNL     1       1.543  -7.811   9.172  0.00  0.00    -0.248 OA
BRANCH  16  18
ATOM     18  O   UNL     1       0.990  -6.855   7.258  0.00  0.00    -0.466 OA
ATOM     19  C   UNL     1       0.100  -7.945   7.007  0.00  0.00    +0.280 C 
ENDBRANCH  16  18
ENDBRANCH  13  16
ENDBRANCH   3   5
BRANCH   1  20
ATOM     20  C   UNL     1      -1.021  -3.238   8.558  0.00  0.00    +0.180 C 
BRANCH  20  24
ATOM     21  N   UNL     1      -2.779  -2.554   4.809  0.00  0.00    -0.327 N 
ATOM     22  C   UNL     1      -3.627  -3.169   5.842  0.00  0.00    +0.120 C 
ATOM     23  C   UNL     1      -3.004  -2.888   7.214  0.00  0.00    +0.104 C 
ATOM     24  N   UNL     1      -1.604  -3.332   7.213  0.00  0.00    -0.291 NA
ATOM     25  C   UNL     1      -0.805  -2.575   6.240  0.00  0.00    +0.104 C 
ATOM     26  C   UNL     1      -1.338  -2.849   4.824  0.00  0.00    +0.120 C 
BRANCH  21  32
ATOM     27  C   UNL     1      -4.057   1.961   3.346  0.00  0.00    +0.044 C 
ATOM     28  C   UNL     1      -3.961   0.477   3.100  0.00  0.00    -0.046 A 
ATOM     29  C   UNL     1      -4.419  -0.056   1.909  0.00  0.00    +0.004 A 
ATOM     30  C   UNL     1      -4.334  -1.417   1.679  0.00  0.00    +0.002 A 
ATOM     31  C   UNL     1      -3.790  -2.248   2.639  0.00  0.00    +0.023 A 
ATOM     32  C   UNL     1      -3.329  -1.716   3.836  0.00  0.00    +0.033 A 
ATOM     33  C   UNL     1      -3.412  -0.347   4.062  0.00  0.00    -0.027 A 
ATOM     34  C   UNL     1      -2.908   0.235   5.357  0.00  0.00    +0.046 C 
ENDBRANCH  21  32
ENDBRANCH  20  24
ENDBRANCH   1  20
TORSDOF 6
