REMARK  Name = ZINC09933164
REMARK  8 active torsions:
REMARK  status: ('A' for Active; 'I' for Inactive)
REMARK    1  A    between atoms: C_1  and  C_2
REMARK    2  A    between atoms: C_2  and  N_3
REMARK    3  A    between atoms: C_5  and  C_14
REMARK    4  A    between atoms: C_14  and  N_15
REMARK    5  A    between atoms: N_15  and  C_16
REMARK    6  A    between atoms: C_17  and  C_19
REMARK    7  A    between atoms: C_19  and  C_20
REMARK    8  A    between atoms: C_20  and  C_21
REMARK                            x       y       z     vdW  Elec       q    Type
REMARK                         _______ _______ _______ _____ _____    ______ ____
ROOT
ATOM      1  N   UNL     1      -3.427   9.833  -5.242  0.00  0.00    -0.301 N 
ATOM      2  C   UNL     1      -3.328  10.189  -3.825  0.00  0.00    +0.132 C 
ATOM      3  C   UNL     1      -3.479   8.538  -5.610  0.00  0.00    +0.216 C 
ATOM      4  O   UNL     1      -3.562   8.244  -6.784  0.00  0.00    -0.276 OA
ENDROOT
BRANCH   1   5
ATOM      5  C   UNL     1      -3.470  10.886  -6.260  0.00  0.00    +0.153 C 
BRANCH   5   8
ATOM      6  N   UNL     1      -6.376  12.784  -7.781  0.00  0.00    -0.324 N 
ATOM      7  C   UNL     1      -4.979  12.374  -7.600  0.00  0.00    +0.151 C 
ATOM      8  C   UNL     1      -4.925  11.284  -6.521  0.00  0.00    +0.208 C 
ATOM      9  O   UNL     1      -5.658  10.152  -7.001  0.00  0.00    -0.484 OA
ATOM     10  C   UNL     1      -6.866  10.405  -7.575  0.00  0.00    +0.142 A 
ATOM     11  C   UNL     1      -7.227  11.689  -7.966  0.00  0.00    +0.072 A 
ATOM     12  C   UNL     1      -8.467  11.903  -8.559  0.00  0.00    +0.027 A 
ATOM     13  C   UNL     1      -9.335  10.847  -8.754  0.00  0.00    +0.002 A 
ATOM     14  C   UNL     1      -8.976   9.571  -8.362  0.00  0.00    +0.004 A 
ATOM     15  C   UNL     1      -7.744   9.350  -7.774  0.00  0.00    +0.047 A 
BRANCH   6  17
ATOM     16  C   UNL     1      -6.150  13.053 -10.204  0.00  0.00    +0.024 C 
ATOM     17  C   UNL     1      -6.505  13.743  -8.886  0.00  0.00    +0.102 C 
ENDBRANCH   6  17
ENDBRANCH   5   8
ENDBRANCH   1   5
BRANCH   3  18
ATOM     18  C   UNL     1      -3.435   7.455  -4.563  0.00  0.00    +0.103 C 
BRANCH  18  19
ATOM     19  C   UNL     1      -3.509   6.086  -5.242  0.00  0.00    +0.083 C 
BRANCH  19  20
ATOM     20  C   UNL     1      -3.464   5.003  -4.196  0.00  0.00    +0.111 A 
ATOM     21  N   UNL     1      -3.519   3.711  -4.599  0.00  0.00    -0.310 N 
ATOM     22  H   UNL     1      -3.585   3.526  -5.549  0.00  0.00    +0.170 HD
ATOM     23  C   UNL     1      -3.486   2.665  -3.739  0.00  0.00    +0.260 A 
ATOM     24  O   UNL     1      -3.536   1.509  -4.121  0.00  0.00    -0.267 OA
ATOM     25  C   UNL     1      -3.388   3.007  -2.348  0.00  0.00    +0.075 A 
ATOM     26  C   UNL     1      -3.337   2.085  -1.227  0.00  0.00    -0.023 A 
ATOM     27  C   UNL     1      -3.246   2.635   0.007  0.00  0.00    -0.004 A 
ATOM     28  S   UNL     1      -3.224   4.388  -0.266  0.00  0.00    -0.073 S 
ATOM     29  C   UNL     1      -3.338   4.381  -2.027  0.00  0.00    +0.116 A 
ATOM     30  N   UNL     1      -3.375   5.355  -2.932  0.00  0.00    -0.227 NA
ATOM     31  C   UNL     1      -3.179   1.914   1.318  0.00  0.00    +0.043 C 
ATOM     32  C   UNL     1      -3.604   0.456   1.092  0.00  0.00    +0.005 C 
ATOM     33  C   UNL     1      -2.852  -0.090  -0.125  0.00  0.00    +0.005 C 
ATOM     34  C   UNL     1      -3.381   0.569  -1.399  0.00  0.00    +0.037 C 
ENDBRANCH  19  20
ENDBRANCH  18  19
ENDBRANCH   3  18
TORSDOF 6
