REMARK  Name = ZINC33034394
REMARK  7 active torsions:
REMARK  status: ('A' for Active; 'I' for Inactive)
REMARK    1  A    between atoms: C_5  and  C_7
REMARK    2  A    between atoms: C_7  and  N_8
REMARK    3  A    between atoms: C_9  and  C_11
REMARK    4  A    between atoms: C_14  and  N_26
REMARK    5  A    between atoms: C_15  and  N_17
REMARK    6  A    between atoms: N_17  and  S_18
REMARK    7  A    between atoms: S_18  and  C_21
REMARK                            x       y       z     vdW  Elec       q    Type
REMARK                         _______ _______ _______ _____ _____    ______ ____
ROOT
ATOM      1  C   UNL     1       1.812  -4.501   2.932  0.00  0.00    +0.039 A 
ATOM      2  C   UNL     1       1.989  -3.598   3.983  0.00  0.00    +0.015 A 
ATOM      3  C   UNL     1       2.233  -4.061   5.257  0.00  0.00    +0.026 A 
ATOM      4  C   UNL     1       2.305  -5.427   5.501  0.00  0.00    +0.054 A 
ATOM      5  C   UNL     1       2.129  -6.336   4.455  0.00  0.00    +0.096 A 
ATOM      6  C   UNL     1       1.877  -5.876   3.176  0.00  0.00    +0.041 A 
ENDROOT
BRANCH   4   7
ATOM      7  N   UNL     1       2.552  -5.891   6.792  0.00  0.00    -0.332 N 
ATOM      8  C   UNL     1       3.927  -6.113   7.265  0.00  0.00    +0.086 C 
ATOM      9  C   UNL     1       4.097  -5.406   8.614  0.00  0.00    -0.063 C 
ATOM     10  N   UNL     1       3.056  -5.866   9.541  0.00  0.00    +0.381 N 
ATOM     11  C   UNL     1       1.733  -5.463   9.047  0.00  0.00    -0.063 C 
ATOM     12  C   UNL     1       1.446  -6.167   7.722  0.00  0.00    +0.086 C 
ATOM     13  H   UNL     1       3.093  -6.872   9.615  0.00  0.00    -0.086 HD
ATOM     14  H   UNL     1       3.213  -5.458  10.450  0.00  0.00    -0.086 HD
ENDBRANCH   4   7
BRANCH   1  16
ATOM     15  N   UNL     1       1.488  -2.679   1.333  0.00  0.00    -0.307 N 
ATOM     16  C   UNL     1       1.550  -4.005   1.567  0.00  0.00    +0.244 C 
ATOM     17  O   UNL     1       1.392  -4.792   0.654  0.00  0.00    -0.270 OA
ATOM     18  H   UNL     1       1.614  -2.051   2.062  0.00  0.00    +0.149 HD
BRANCH  15  19
ATOM     19  C   UNL     1       1.228  -2.186  -0.022  0.00  0.00    +0.142 C 
BRANCH  19  24
ATOM     20  C   UNL     1      -0.017   1.378   0.010  0.00  0.00    +0.000 A 
ATOM     21  C   UNL     1       1.171   2.087   0.002  0.00  0.00    +0.003 A 
ATOM     22  C   UNL     1       2.377   1.414  -0.013  0.00  0.00    +0.038 A 
ATOM     23  C   UNL     1       2.397   0.029  -0.021  0.00  0.00    +0.128 A 
ATOM     24  C   UNL     1       1.208  -0.679  -0.013  0.00  0.00    +0.005 A 
ATOM     25  C   UNL     1       0.002  -0.004   0.002  0.00  0.00    +0.008 A 
ATOM     26  F   UNL     1       3.577  -0.630  -0.036  0.00  0.00    -0.205 F 
ENDBRANCH  19  24
ENDBRANCH  15  19
ENDBRANCH   1  16
BRANCH   5  27
ATOM     27  N   UNL     1       2.202  -7.713   4.702  0.00  0.00    -0.095 NA
BRANCH  27  28
ATOM     28  S   UNL     1       1.994  -8.789   3.461  0.00  0.00    +0.098 S 
ATOM     29  O   UNL     1       0.645  -8.659   3.033  0.00  0.00    -0.148 OA
ATOM     30  O   UNL     1       3.094  -8.611   2.580  0.00  0.00    -0.148 OA
BRANCH  28  31
ATOM     31  C   UNL     1       2.151 -10.407   4.143  0.00  0.00    +0.148 A 
ATOM     32  C   UNL     1       1.192 -11.213   4.659  0.00  0.00    +0.037 A 
ATOM     33  C   UNL     1       1.550 -12.457   5.142  0.00  0.00    +0.010 A 
ATOM     34  C   UNL     1       2.851 -12.835   5.086  0.00  0.00    +0.047 A 
ATOM     35  S   UNL     1       3.615 -11.412   4.325  0.00  0.00    -0.077 S 
ENDBRANCH  28  31
ENDBRANCH  27  28
ENDBRANCH   5  27
TORSDOF 7
