REMARK  Name = ZINC14731245
REMARK  5 active torsions:
REMARK  status: ('A' for Active; 'I' for Inactive)
REMARK    1  A    between atoms: C_2  and  C_3
REMARK    2  A    between atoms: C_3  and  N_4
REMARK    3  A    between atoms: C_7  and  C_9
REMARK    4  A    between atoms: C_18  and  N_66
REMARK    5  A    between atoms: C_22  and  N_66
REMARK                            x       y       z     vdW  Elec       q    Type
REMARK                         _______ _______ _______ _____ _____    ______ ____
ROOT
ATOM      1  N   UNL     1      -2.054   3.755  -1.114  0.00  0.00    -0.264 N 
ATOM      2  C   UNL     1      -1.658   3.892  -2.390  0.00  0.00    +0.043 A 
ATOM      3  C   UNL     1      -2.337   4.944  -2.911  0.00  0.00    +0.004 A 
ATOM      4  C   UNL     1      -3.153   5.428  -1.874  0.00  0.00    +0.151 A 
ATOM      5  N   UNL     1      -2.925   4.659  -0.823  0.00  0.00    -0.166 NA
ATOM      6  C   UNL     1      -2.190   5.442  -4.322  0.00  0.00    +0.023 C 
ATOM      7  C   UNL     1      -0.903   4.847  -4.911  0.00  0.00    -0.066 C 
ATOM      8  C   UNL     1      -0.879   3.336  -4.663  0.00  0.00    -0.009 C 
ATOM      9  C   UNL     1      -0.670   3.062  -3.169  0.00  0.00    +0.054 C 
ENDROOT
BRANCH   4  10
ATOM     10  C   UNL     1      -4.083   6.573  -1.945  0.00  0.00    +0.267 C 
ATOM     11  O   UNL     1      -4.113   7.271  -2.939  0.00  0.00    -0.268 OA
ATOM     12  N   UNL     1      -4.899   6.843  -0.906  0.00  0.00    -0.295 N 
ATOM     13  C   UNL     1      -4.964   5.914   0.223  0.00  0.00    +0.119 C 
ATOM     14  C   UNL     1      -4.405   6.604   1.478  0.00  0.00    +0.088 C 
ATOM     15  S   UNL     1      -5.359   8.123   1.779  0.00  0.00    -0.158 S 
ATOM     16  C   UNL     1      -5.247   9.002   0.192  0.00  0.00    +0.088 C 
ATOM     17  C   UNL     1      -5.712   8.060  -0.924  0.00  0.00    +0.119 C 
ENDBRANCH   4  10
BRANCH   7  18
ATOM     18  N   UNL     1      -0.868   5.104  -6.363  0.00  0.00    +0.385 N 
ATOM     19  H   UNL     1      -1.681   5.673  -6.626  0.00  0.00    -0.085 HD
ATOM     20  H   UNL     1      -0.899   4.210  -6.866  0.00  0.00    -0.085 HD
BRANCH  18  21
ATOM     21  C   UNL     1       0.367   5.824  -6.726  0.00  0.00    -0.067 C 
ATOM     22  C   UNL     1       1.585   5.007  -6.290  0.00  0.00    -0.009 C 
ATOM     23  C   UNL     1       2.864   5.753  -6.676  0.00  0.00    -0.012 C 
ATOM     24  C   UNL     1       2.900   5.955  -8.192  0.00  0.00    +0.007 C 
ATOM     25  C   UNL     1       1.682   6.772  -8.627  0.00  0.00    -0.012 C 
ATOM     26  C   UNL     1       0.403   6.025  -8.242  0.00  0.00    -0.009 C 
ATOM     27  C   UNL     1       1.707   8.134  -7.931  0.00  0.00    +0.007 C 
ATOM     28  C   UNL     1       1.671   7.933  -6.415  0.00  0.00    -0.012 C 
ATOM     29  C   UNL     1       2.889   7.116  -5.980  0.00  0.00    +0.007 C 
ATOM     30  C   UNL     1       0.392   7.186  -6.030  0.00  0.00    -0.009 C 
ENDBRANCH  18  21
ENDBRANCH   7  18
BRANCH   1  31
ATOM     31  C   UNL     1      -1.563   2.732  -0.188  0.00  0.00    +0.170 C 
BRANCH  31  33
ATOM     32  C   UNL     1      -1.903   0.340  -0.539  0.00  0.00    +0.006 C 
ATOM     33  C   UNL     1      -2.437   1.508  -0.281  0.00  0.00    -0.012 C 
ENDBRANCH  31  33
ENDBRANCH   1  31
TORSDOF 5
