REMARK  Name = ZINC02211399
REMARK  8 active torsions:
REMARK  status: ('A' for Active; 'I' for Inactive)
REMARK    1  A    between atoms: C_1  and  C_2
REMARK    2  A    between atoms: C_5  and  N_9
REMARK    3  A    between atoms: C_7  and  C_8
REMARK    4  A    between atoms: C_10  and  N_28
REMARK    5  A    between atoms: C_11  and  C_22
REMARK    6  A    between atoms: C_22  and  O_24
REMARK    7  A    between atoms: O_24  and  C_25
REMARK    8  A    between atoms: C_25  and  C_26
REMARK                            x       y       z     vdW  Elec       q    Type
REMARK                         _______ _______ _______ _____ _____    ______ ____
ROOT
ATOM      1  N   UNL     1      -1.323  -4.191   0.724  0.00  0.00    -0.280 N 
ATOM      2  C   UNL     1      -1.262  -2.886   1.114  0.00  0.00    +0.119 A 
ATOM      3  C   UNL     1      -1.247  -2.048   0.003  0.00  0.00    +0.126 A 
ATOM      4  C   UNL     1      -1.292  -2.922  -1.181  0.00  0.00    +0.125 A 
ATOM      5  C   UNL     1      -1.340  -4.289  -0.654  0.00  0.00    +0.167 A 
ATOM      6  N   UNL     1      -1.389  -5.303  -1.491  0.00  0.00    -0.225 NA
ATOM      7  C   UNL     1      -1.393  -5.080  -2.811  0.00  0.00    +0.092 A 
ATOM      8  C   UNL     1      -1.444  -6.159  -3.713  0.00  0.00    +0.030 A 
ATOM      9  C   UNL     1      -1.448  -5.923  -5.052  0.00  0.00    +0.002 A 
ATOM     10  C   UNL     1      -1.403  -4.622  -5.551  0.00  0.00    +0.002 A 
ATOM     11  C   UNL     1      -1.352  -3.553  -4.711  0.00  0.00    +0.030 A 
ATOM     12  C   UNL     1      -1.346  -3.757  -3.318  0.00  0.00    +0.090 A 
ATOM     13  N   UNL     1      -1.297  -2.713  -2.482  0.00  0.00    -0.241 NA
ENDROOT
BRANCH   1  18
ATOM     14  C   UNL     1      -1.460  -8.615   4.275  0.00  0.00    +0.044 C 
ATOM     15  C   UNL     1      -1.423  -7.441   3.332  0.00  0.00    -0.047 A 
ATOM     16  C   UNL     1      -0.338  -7.261   2.494  0.00  0.00    +0.005 A 
ATOM     17  C   UNL     1      -0.301  -6.185   1.629  0.00  0.00    +0.026 A 
ATOM     18  C   UNL     1      -1.357  -5.283   1.601  0.00  0.00    +0.050 A 
ATOM     19  C   UNL     1      -2.443  -5.463   2.447  0.00  0.00    +0.030 A 
ATOM     20  C   UNL     1      -2.476  -6.544   3.306  0.00  0.00    -0.046 A 
ATOM     21  C   UNL     1      -3.657  -6.744   4.220  0.00  0.00    +0.044 C 
ENDBRANCH   1  18
BRANCH   2  22
ATOM     22  N   UNL     1      -1.226  -2.460   2.415  0.00  0.00    -0.343 N 
ATOM     23  H   UNL     1      -1.187  -1.512   2.614  0.00  0.00    +0.144 HD
ATOM     24  H   UNL     1      -1.240  -3.107   3.138  0.00  0.00    +0.144 HD
ENDBRANCH   2  22
BRANCH   3  25
ATOM     25  C   UNL     1      -1.192  -0.633   0.010  0.00  0.00    +0.345 C 
ATOM     26  O   UNL     1      -2.221   0.016   0.023  0.00  0.00    -0.245 OA
BRANCH  25  27
ATOM     27  O   UNL     1       0.002  -0.004   0.002  0.00  0.00    -0.457 OA
BRANCH  27  28
ATOM     28  C   UNL     1      -0.017   1.425   0.010  0.00  0.00    +0.259 C 
BRANCH  28  29
ATOM     29  C   UNL     1       1.397   1.946  -0.001  0.00  0.00    +0.006 C 
ATOM     30  C   UNL     1       1.726   2.930  -0.801  0.00  0.00    +0.007 C 
ENDBRANCH  28  29
ENDBRANCH  27  28
ENDBRANCH  25  27
ENDBRANCH   3  25
TORSDOF 6
