REMARK  Name = ZINC32929420
REMARK  3 active torsions:
REMARK  status: ('A' for Active; 'I' for Inactive)
REMARK    1  A    between atoms: C_3  and  N_20
REMARK    2  A    between atoms: C_6  and  N_7
REMARK    3  A    between atoms: C_8  and  C_12
REMARK                            x       y       z     vdW  Elec       q    Type
REMARK                         _______ _______ _______ _____ _____    ______ ____
ROOT
ATOM      1  N   UNL     1       2.257   4.396   0.106  0.00  0.00    -0.212 N 
ATOM      2  C   UNL     1       1.196   3.592  -0.220  0.00  0.00    +0.096 A 
ATOM      3  C   UNL     1       0.089   4.388  -0.199  0.00  0.00    +0.165 A 
ATOM      4  N   UNL     1       0.456   5.627   0.120  0.00  0.00    -0.137 NA
ATOM      5  N   UNL     1       1.728   5.680   0.306  0.00  0.00    -0.060 NA
ENDROOT
BRANCH   2   6
ATOM      6  C   UNL     1       1.243   2.146  -0.526  0.00  0.00    +0.022 A 
ATOM      7  C   UNL     1       2.159   1.656  -1.457  0.00  0.00    +0.031 A 
ATOM      8  C   UNL     1       2.197   0.305  -1.739  0.00  0.00    +0.042 A 
ATOM      9  C   UNL     1       1.327  -0.563  -1.101  0.00  0.00    +0.021 A 
ATOM     10  C   UNL     1       0.416  -0.084  -0.177  0.00  0.00    +0.022 A 
ATOM     11  C   UNL     1       0.368   1.265   0.114  0.00  0.00    +0.050 A 
ATOM     12 CL   UNL     1      -0.776   1.865   1.273  0.00  0.00    -0.083 Cl
ATOM     13 CL   UNL     1       3.337  -0.307  -2.897  0.00  0.00    -0.084 Cl
ENDBRANCH   2   6
BRANCH   1  19
ATOM     14  C   UNL     1       3.937   2.822   0.841  0.00  0.00    +0.030 A 
ATOM     15  C   UNL     1       5.262   2.445   0.941  0.00  0.00    +0.035 A 
ATOM     16  C   UNL     1       6.255   3.259   0.427  0.00  0.00    +0.126 A 
ATOM     17  C   UNL     1       5.924   4.450  -0.193  0.00  0.00    +0.035 A 
ATOM     18  C   UNL     1       4.600   4.829  -0.301  0.00  0.00    +0.030 A 
ATOM     19  C   UNL     1       3.601   4.014   0.214  0.00  0.00    +0.068 A 
BRANCH  16  20
ATOM     20  N   UNL     1       7.674   2.855   0.542  0.00  0.00    +0.056 N 
ATOM     21  O   UNL     1       8.549   3.572   0.090  0.00  0.00    -0.126 OA
ATOM     22  O   UNL     1       7.967   1.807   1.088  0.00  0.00    -0.126 OA
ENDBRANCH  16  20
ENDBRANCH   1  19
TORSDOF 3
