REMARK  Name = ZINC24312005
REMARK  9 active torsions:
REMARK  status: ('A' for Active; 'I' for Inactive)
REMARK    1  A    between atoms: C_1  and  C_2
REMARK    2  A    between atoms: C_2  and  C_4
REMARK    3  A    between atoms: C_2  and  O_23
REMARK    4  A    between atoms: N_6  and  N_7
REMARK    5  A    between atoms: C_8  and  C_10
REMARK    6  A    between atoms: C_14  and  S_16
REMARK    7  A    between atoms: S_16  and  N_19
REMARK    8  A    between atoms: N_19  and  C_20
REMARK    9  A    between atoms: O_23  and  C_24
REMARK                            x       y       z     vdW  Elec       q    Type
REMARK                         _______ _______ _______ _____ _____    ______ ____
ROOT
ATOM      1  N   UNL     1       0.636  -0.459   4.248  0.00  0.00    -0.230 N 
ATOM      2  C   UNL     1       0.601  -1.735   4.682  0.00  0.00    +0.260 C 
ATOM      3  O   UNL     1      -0.066  -2.560   4.089  0.00  0.00    -0.269 OA
ATOM      4  H   UNL     1       1.240   0.288   4.785  0.00  0.00    +0.173 HD
ENDROOT
BRANCH   2   5
ATOM      5  C   UNL     1       1.375  -2.131   5.878  0.00  0.00    +0.040 A 
ATOM      6  C   UNL     1       2.147  -1.187   6.557  0.00  0.00    +0.013 A 
ATOM      7  C   UNL     1       2.863  -1.562   7.675  0.00  0.00    +0.003 A 
ATOM      8  C   UNL     1       2.825  -2.872   8.117  0.00  0.00    +0.028 A 
ATOM      9  C   UNL     1       2.066  -3.814   7.445  0.00  0.00    +0.106 A 
ATOM     10  C   UNL     1       1.341  -3.451   6.329  0.00  0.00    +0.041 A 
BRANCH   9  11
ATOM     11  S   UNL     1       2.026  -5.480   8.016  0.00  0.00    +0.059 S 
ATOM     12  O   UNL     1       2.356  -5.444   9.398  0.00  0.00    -0.153 OA
ATOM     13  O   UNL     1       0.813  -6.044   7.537  0.00  0.00    -0.153 OA
BRANCH  11  14
ATOM     14  N   UNL     1       3.256  -6.288   7.257  0.00  0.00    -0.187 NA
ATOM     15  H   UNL     1       3.018  -6.983   6.438  0.00  0.00    +0.148 HD
BRANCH  14  16
ATOM     16  C   UNL     1       4.649  -5.918   7.522  0.00  0.00    +0.077 C 
ATOM     17  C   UNL     1       5.645  -6.046   6.368  0.00  0.00    +0.022 C 
ATOM     18  C   UNL     1       5.688  -7.041   7.530  0.00  0.00    +0.022 C 
ENDBRANCH  14  16
ENDBRANCH  11  14
ENDBRANCH   9  11
ENDBRANCH   2   5
BRANCH   1  21
ATOM     19  C   UNL     1      -0.063   1.192   2.682  0.00  0.00    +0.270 C 
ATOM     20  O   UNL     1       0.603   2.015   3.273  0.00  0.00    -0.270 OA
ATOM     21  N   UNL     1      -0.098  -0.084   3.115  0.00  0.00    -0.231 N 
ATOM     22  H   UNL     1      -0.702  -0.831   2.579  0.00  0.00    +0.173 HD
BRANCH  19  24
ATOM     23  C   UNL     1      -0.295   0.875   0.234  0.00  0.00    +0.062 C 
ATOM     24  C   UNL     1      -0.852   1.595   1.463  0.00  0.00    +0.257 C 
BRANCH  24  25
ATOM     25  O   UNL     1      -0.748   3.008   1.275  0.00  0.00    -0.480 OA
BRANCH  25  26
ATOM     26  C   UNL     1      -1.755   3.615   0.593  0.00  0.00    +0.123 A 
ATOM     27  C   UNL     1      -2.762   2.854   0.018  0.00  0.00    +0.046 A 
ATOM     28  C   UNL     1      -3.785   3.473  -0.675  0.00  0.00    +0.005 A 
ATOM     29  C   UNL     1      -3.806   4.850  -0.795  0.00  0.00    +0.015 A 
ATOM     30  C   UNL     1      -2.803   5.612  -0.222  0.00  0.00    +0.021 A 
ATOM     31  C   UNL     1      -1.780   4.997   0.476  0.00  0.00    +0.061 A 
ATOM     32 BR   UNL     1      -2.835   7.495  -0.388  0.00  0.00    -0.050 Br
ENDBRANCH  25  26
ENDBRANCH  24  25
ENDBRANCH  19  24
ENDBRANCH   1  21
TORSDOF 8
