REMARK  Name = ZINC11307115
REMARK  9 active torsions:
REMARK  status: ('A' for Active; 'I' for Inactive)
REMARK    1  A    between atoms: C_1  and  C_2
REMARK    2  A    between atoms: C_2  and  C_4
REMARK    3  A    between atoms: C_2  and  O_11
REMARK    4  A    between atoms: N_9  and  C_10
REMARK    5  A    between atoms: O_11  and  C_12
REMARK    6  A    between atoms: C_12  and  C_14
REMARK    7  A    between atoms: C_14  and  N_15
REMARK    8  A    between atoms: N_15  and  S_16
REMARK    9  A    between atoms: S_16  and  C_19
REMARK                            x       y       z     vdW  Elec       q    Type
REMARK                         _______ _______ _______ _____ _____    ______ ____
ROOT
ATOM      1  C   UNL     1       2.227   5.169  -2.431  0.00  0.00    +0.226 C 
ENDROOT
BRANCH   1   2
ATOM      2  C   UNL     1       2.979   5.546  -3.682  0.00  0.00    +0.323 C 
ATOM      3  O   UNL     1       4.109   5.153  -3.849  0.00  0.00    -0.249 OA
BRANCH   2   4
ATOM      4  O   UNL     1       2.393   6.319  -4.610  0.00  0.00    -0.451 OA
BRANCH   4   6
ATOM      5  C   UNL     1       2.944   5.579  -6.863  0.00  0.00    +0.062 C 
ATOM      6  C   UNL     1       3.176   6.643  -5.788  0.00  0.00    +0.259 C 
BRANCH   6   7
ATOM      7  C   UNL     1       2.756   7.990  -6.316  0.00  0.00    +0.261 C 
ATOM      8  O   UNL     1       1.883   8.616  -5.755  0.00  0.00    -0.271 OA
ATOM      9  N   UNL     1       3.352   8.500  -7.413  0.00  0.00    -0.237 N 
ATOM     10  C   UNL     1       2.976   9.705  -7.885  0.00  0.00    +0.306 C 
ATOM     11  O   UNL     1       2.101  10.332  -7.322  0.00  0.00    -0.252 OA
ATOM     12  N   UNL     1       3.571  10.214  -8.982  0.00  0.00    -0.302 N 
ATOM     13  C   UNL     1       3.163  11.524  -9.495  0.00  0.00    +0.129 C 
ATOM     14  H   UNL     1       4.051   7.999  -7.862  0.00  0.00    +0.159 HD
ATOM     15  H   UNL     1       4.270   9.714  -9.431  0.00  0.00    +0.150 HD
ENDBRANCH   6   7
ENDBRANCH   4   6
ENDBRANCH   2   4
ENDBRANCH   1   2
BRANCH   1  16
ATOM     16  N   UNL     1       3.077   4.328  -1.585  0.00  0.00    -0.179 NA
ATOM     17  H   UNL     1       3.878   3.923  -1.953  0.00  0.00    +0.149 HD
BRANCH  16  18
ATOM     18  S   UNL     1       2.671   4.069  -0.001  0.00  0.00    +0.062 S 
ATOM     19  O   UNL     1       2.388   5.343   0.559  0.00  0.00    -0.153 OA
ATOM     20  O   UNL     1       3.662   3.204   0.536  0.00  0.00    -0.153 OA
BRANCH  18  21
ATOM     21  C   UNL     1       1.157   3.167   0.008  0.00  0.00    +0.142 A 
ATOM     22  C   UNL     1       1.176   1.784   0.000  0.00  0.00    +0.070 A 
ATOM     23  C   UNL     1      -0.013   1.076   0.008  0.00  0.00    +0.037 A 
ATOM     24  C   UNL     1      -1.220   1.751   0.017  0.00  0.00    +0.021 A 
ATOM     25  C   UNL     1      -1.239   3.134   0.031  0.00  0.00    +0.037 A 
ATOM     26  C   UNL     1      -0.050   3.842   0.023  0.00  0.00    +0.070 A 
ATOM     27 CL   UNL     1      -0.074   5.578   0.033  0.00  0.00    -0.081 Cl
ATOM     28 BR   UNL     1      -2.844   0.783   0.020  0.00  0.00    -0.050 Br
ATOM     29 CL   UNL     1       2.691   0.936  -0.018  0.00  0.00    -0.081 Cl
ENDBRANCH  18  21
ENDBRANCH  16  18
ENDBRANCH   1  16
TORSDOF 7
