REMARK  Name = ZINC33051502
REMARK  9 active torsions:
REMARK  status: ('A' for Active; 'I' for Inactive)
REMARK    1  A    between atoms: C_1  and  C_2
REMARK    2  A    between atoms: C_5  and  C_41
REMARK    3  A    between atoms: C_6  and  N_8
REMARK    4  A    between atoms: C_14  and  C_40
REMARK    5  A    between atoms: N_16  and  C_34
REMARK    6  A    between atoms: C_23  and  C_25
REMARK    7  A    between atoms: C_28  and  C_31
REMARK    8  A    between atoms: C_31  and  C_32
REMARK    9  A    between atoms: C_31  and  C_33
REMARK                            x       y       z     vdW  Elec       q    Type
REMARK                         _______ _______ _______ _____ _____    ______ ____
ROOT
ATOM      1  N   UNL     1      -2.736  11.024  -0.775  0.00  0.00    -0.269 N 
ATOM      2  C   UNL     1      -3.346   9.924  -0.292  0.00  0.00    +0.308 C 
ATOM      3  O   UNL     1      -4.400  10.027   0.305  0.00  0.00    -0.252 OA
ATOM      4  N   UNL     1      -2.787   8.711  -0.469  0.00  0.00    -0.268 N 
ATOM      5  C   UNL     1      -1.503   8.537  -1.189  0.00  0.00    +0.151 C 
ATOM      6  C   UNL     1      -0.640   7.499  -0.534  0.00  0.00    +0.035 A 
ATOM      7  C   UNL     1       0.542   7.663   0.182  0.00  0.00    +0.067 A 
ATOM      8  N   UNL     1       0.979   6.477   0.537  0.00  0.00    -0.169 NA
ATOM      9  N   UNL     1       0.086   5.509   0.048  0.00  0.00    -0.215 N 
ATOM     10  C   UNL     1      -0.911   6.161  -0.580  0.00  0.00    +0.146 A 
ATOM     11  N   UNL     1      -2.093   5.693  -1.165  0.00  0.00    -0.303 N 
ATOM     12  C   UNL     1      -2.310   4.657  -2.007  0.00  0.00    +0.093 A 
ATOM     13  C   UNL     1      -3.618   4.668  -2.351  0.00  0.00    +0.020 A 
ATOM     14  C   UNL     1      -4.228   5.744  -1.670  0.00  0.00    +0.025 A 
ATOM     15  C   UNL     1      -3.281   6.340  -0.928  0.00  0.00    +0.050 A 
ATOM     16  C   UNL     1      -3.420   7.474   0.044  0.00  0.00    +0.155 C 
ATOM     17  C   UNL     1       1.204   8.978   0.501  0.00  0.00    +0.068 C 
ATOM     18  H   UNL     1      -1.815  10.927  -1.369  0.00  0.00    +0.156 HD
ENDROOT
BRANCH   1  24
ATOM     19  C   UNL     1      -6.633  13.838   0.256  0.00  0.00    +0.044 C 
ATOM     20  C   UNL     1      -5.160  13.684  -0.019  0.00  0.00    -0.049 A 
ATOM     21  C   UNL     1      -4.337  14.796  -0.020  0.00  0.00    +0.004 A 
ATOM     22  C   UNL     1      -2.984  14.658  -0.271  0.00  0.00    +0.005 A 
ATOM     23  C   UNL     1      -2.450  13.409  -0.517  0.00  0.00    -0.029 A 
ATOM     24  C   UNL     1      -3.273  12.291  -0.522  0.00  0.00    +0.038 A 
ATOM     25  C   UNL     1      -4.632  12.433  -0.269  0.00  0.00    +0.027 A 
ATOM     26  C   UNL     1      -0.974  13.259  -0.784  0.00  0.00    +0.045 C 
ENDBRANCH   1  24
BRANCH  16  27
ATOM     27  C   UNL     1      -2.767   7.090   1.346  0.00  0.00    -0.021 A 
ATOM     28  C   UNL     1      -2.746   5.767   1.745  0.00  0.00    +0.006 A 
ATOM     29  C   UNL     1      -2.142   5.414   2.937  0.00  0.00    +0.004 A 
ATOM     30  C   UNL     1      -1.568   6.385   3.736  0.00  0.00    -0.045 A 
ATOM     31  C   UNL     1      -1.594   7.709   3.340  0.00  0.00    +0.004 A 
ATOM     32  C   UNL     1      -2.193   8.062   2.145  0.00  0.00    +0.006 A 
BRANCH  30  33
ATOM     33  C   UNL     1      -0.914   6.001   5.038  0.00  0.00    +0.013 C 
ATOM     34  C   UNL     1      -1.947   5.335   5.950  0.00  0.00    +0.012 C 
ATOM     35  C   UNL     1       0.231   5.024   4.765  0.00  0.00    +0.012 C 
ENDBRANCH  30  33
ENDBRANCH  16  27
BRANCH   9  36
ATOM     36  C   UNL     1       0.207   4.120   0.191  0.00  0.00    +0.068 A 
ATOM     37  C   UNL     1       1.462   3.526   0.165  0.00  0.00    +0.028 A 
ATOM     38  C   UNL     1       1.579   2.157   0.307  0.00  0.00    +0.002 A 
ATOM     39  C   UNL     1       0.448   1.379   0.475  0.00  0.00    +0.000 A 
ATOM     40  C   UNL     1      -0.803   1.967   0.495  0.00  0.00    +0.002 A 
ATOM     41  C   UNL     1      -0.926   3.336   0.359  0.00  0.00    +0.028 A 
ENDBRANCH   9  36
TORSDOF 4
