REMARK  Name = ZINC08643649
REMARK  13 active torsions:
REMARK  status: ('A' for Active; 'I' for Inactive)
REMARK    1  A    between atoms: C_1  and  C_2
REMARK    2  A    between atoms: C_2  and  O_3
REMARK    3  A    between atoms: O_3  and  C_4
REMARK    4  A    between atoms: C_4  and  C_6
REMARK    5  A    between atoms: C_7  and  C_34
REMARK    6  A    between atoms: C_8  and  C_30
REMARK    7  A    between atoms: C_10  and  N_11
REMARK    8  A    between atoms: C_12  and  C_14
REMARK    9  A    between atoms: C_14  and  N_15
REMARK   10  A    between atoms: C_18  and  C_22
REMARK   11  A    between atoms: C_18  and  C_23
REMARK   12  A    between atoms: C_26  and  C_29
REMARK   13  A    between atoms: N_32  and  C_33
REMARK                            x       y       z     vdW  Elec       q    Type
REMARK                         _______ _______ _______ _____ _____    ______ ____
ROOT
ATOM      1  N   UNL     1      -5.262  -2.022   0.014  0.00  0.00    -0.278 N 
ATOM      2  C   UNL     1      -4.745  -3.267   0.004  0.00  0.00    +0.236 C 
ATOM      3  O   UNL     1      -3.542  -3.423  -0.001  0.00  0.00    -0.274 OA
ATOM      4  H   UNL     1      -6.224  -1.897   0.019  0.00  0.00    +0.155 HD
ENDROOT
BRANCH   1   9
ATOM      5  C   UNL     1      -4.761   0.432   0.026  0.00  0.00    +0.091 A 
ATOM      6  C   UNL     1      -3.726   1.355   0.027  0.00  0.00    -0.015 A 
ATOM      7  C   UNL     1      -2.445   0.874   0.018  0.00  0.00    +0.079 A 
ATOM      8  S   UNL     1      -2.689  -0.891   0.002  0.00  0.00    -0.068 S 
ATOM      9  C   UNL     1      -4.422  -0.925   0.017  0.00  0.00    +0.087 A 
ATOM     10  C   UNL     1      -4.003   2.837   0.037  0.00  0.00    +0.046 C 
BRANCH   7  11
ATOM     11  C   UNL     1      -1.187   1.624   0.017  0.00  0.00    +0.251 C 
ATOM     12  O   UNL     1      -1.204   2.841   0.023  0.00  0.00    -0.270 OA
ATOM     13  N   UNL     1      -0.011   0.966   0.007  0.00  0.00    -0.314 N 
ATOM     14  C   UNL     1       1.248   1.716  -0.001  0.00  0.00    +0.128 C 
ATOM     15  H   UNL     1       0.002  -0.004   0.002  0.00  0.00    +0.149 HD
ENDBRANCH   7  11
BRANCH   5  16
ATOM     16  C   UNL     1      -6.163   0.864   0.035  0.00  0.00    +0.342 C 
ATOM     17  O   UNL     1      -6.749   1.049  -1.014  0.00  0.00    -0.245 OA
BRANCH  16  18
ATOM     18  O   UNL     1      -6.803   1.056   1.207  0.00  0.00    -0.461 OA
BRANCH  18  20
ATOM     19  C   UNL     1      -8.741   1.647   2.556  0.00  0.00    +0.048 C 
ATOM     20  C   UNL     1      -8.189   1.483   1.139  0.00  0.00    +0.229 C 
ENDBRANCH  18  20
ENDBRANCH  16  18
ENDBRANCH   5  16
ENDBRANCH   1   9
BRANCH   2  21
ATOM     21  C   UNL     1      -5.661  -4.463   0.001  0.00  0.00    +0.214 C 
BRANCH  21  22
ATOM     22  N   UNL     1      -4.861  -5.691  -0.009  0.00  0.00    -0.215 N 
ATOM     23  C   UNL     1      -4.443  -6.331   1.100  0.00  0.00    +0.251 C 
ATOM     24  O   UNL     1      -4.649  -6.012   2.251  0.00  0.00    -0.272 OA
ATOM     25  C   UNL     1      -3.661  -7.533   0.609  0.00  0.00    +0.135 C 
ATOM     26  N   UNL     1      -3.736  -7.419  -0.858  0.00  0.00    -0.281 N 
ATOM     27  C   UNL     1      -4.460  -6.317  -1.122  0.00  0.00    +0.310 C 
ATOM     28  O   UNL     1      -4.718  -5.931  -2.245  0.00  0.00    -0.252 OA
ATOM     29  C   UNL     1      -2.208  -7.461   1.084  0.00  0.00    +0.047 C 
ATOM     30  H   UNL     1      -3.343  -8.024  -1.507  0.00  0.00    +0.152 HD
BRANCH  25  31
ATOM     31  C   UNL     1      -4.306  -8.813   1.075  0.00  0.00    -0.015 A 
ATOM     32  C   UNL     1      -5.003  -8.840   2.268  0.00  0.00    +0.006 A 
ATOM     33  C   UNL     1      -5.599 -10.012   2.694  0.00  0.00    +0.004 A 
ATOM     34  C   UNL     1      -5.490 -11.160   1.931  0.00  0.00    -0.050 A 
ATOM     35  C   UNL     1      -4.789 -11.134   0.740  0.00  0.00    +0.004 A 
ATOM     36  C   UNL     1      -4.197  -9.960   0.312  0.00  0.00    +0.006 A 
ATOM     37  C   UNL     1      -6.136 -12.439   2.397  0.00  0.00    +0.044 C 
ENDBRANCH  25  31
ENDBRANCH  21  22
ENDBRANCH   2  21
TORSDOF 8
