REMARK  Name = ZINC65265667
REMARK  4 active torsions:
REMARK  status: ('A' for Active; 'I' for Inactive)
REMARK    1  A    between atoms: C_4  and  C_7
REMARK    2  A    between atoms: C_7  and  N_8
REMARK    3  A    between atoms: N_21  and  S_24
REMARK    4  A    between atoms: S_24  and  C_27
REMARK                            x       y       z     vdW  Elec       q    Type
REMARK                         _______ _______ _______ _____ _____    ______ ____
ROOT
ATOM      1  N   UNL     1       4.152  -0.952   1.338  0.00  0.00    -0.371 N 
ATOM      2  C   UNL     1       5.264  -1.574   1.560  0.00  0.00    +0.098 C 
ATOM      3  N   UNL     1       6.068  -2.018   0.524  0.00  0.00    -0.286 N 
ATOM      4  C   UNL     1       6.710  -3.253   0.681  0.00  0.00    +0.145 A 
ATOM      5  C   UNL     1       6.740  -3.869   1.933  0.00  0.00    +0.069 A 
ATOM      6  C   UNL     1       7.391  -5.086   2.075  0.00  0.00    +0.028 A 
ATOM      7  C   UNL     1       7.986  -5.649   0.953  0.00  0.00    +0.022 A 
ATOM      8  C   UNL     1       7.910  -4.988  -0.256  0.00  0.00    +0.113 A 
ATOM      9  N   UNL     1       7.287  -3.829  -0.361  0.00  0.00    -0.238 NA
ATOM     10  N   UNL     1       6.112  -3.277   3.037  0.00  0.00    -0.329 N 
ATOM     11  C   UNL     1       5.756  -1.849   2.965  0.00  0.00    +0.088 C 
ATOM     12  C   UNL     1       4.647  -1.537   3.967  0.00  0.00    +0.050 C 
ATOM     13  C   UNL     1       5.139  -1.850   5.384  0.00  0.00    +0.112 C 
ATOM     14  N   UNL     1       6.395  -1.124   5.619  0.00  0.00    -0.176 NA
ATOM     15  C   UNL     1       7.500  -1.296   4.665  0.00  0.00    +0.112 C 
ATOM     16  C   UNL     1       6.985  -0.990   3.255  0.00  0.00    +0.050 C 
ATOM     17  H   UNL     1       3.610  -0.648   2.082  0.00  0.00    +0.161 HD
ATOM     18  H   UNL     1       5.916  -3.797   3.833  0.00  0.00    +0.147 HD
ATOM     19  H   UNL     1       6.183  -1.492  -0.282  0.00  0.00    +0.155 HD
ENDROOT
BRANCH  14  20
ATOM     20  S   UNL     1       6.562  -0.131   6.933  0.00  0.00    +0.061 S 
ATOM     21  O   UNL     1       7.577   0.809   6.606  0.00  0.00    -0.153 OA
ATOM     22  O   UNL     1       5.252   0.264   7.313  0.00  0.00    -0.153 OA
BRANCH  20  23
ATOM     23  C   UNL     1       7.194  -1.114   8.252  0.00  0.00    +0.105 A 
ATOM     24  C   UNL     1       6.324  -1.766   9.106  0.00  0.00    +0.028 A 
ATOM     25  C   UNL     1       6.820  -2.537  10.141  0.00  0.00    +0.002 A 
ATOM     26  C   UNL     1       8.185  -2.657  10.321  0.00  0.00    +0.000 A 
ATOM     27  C   UNL     1       9.055  -2.006   9.467  0.00  0.00    +0.002 A 
ATOM     28  C   UNL     1       8.559  -1.238   8.429  0.00  0.00    +0.028 A 
ENDBRANCH  20  23
ENDBRANCH  14  20
BRANCH   1  29
ATOM     29  C   UNL     1       3.711  -0.707  -0.038  0.00  0.00    +0.149 C 
BRANCH  29  33
ATOM     30  C   UNL     1      -0.017   1.378   0.010  0.00  0.00    +0.000 A 
ATOM     31  C   UNL     1       1.171   2.086   0.002  0.00  0.00    +0.000 A 
ATOM     32  C   UNL     1       2.377   1.411  -0.013  0.00  0.00    +0.005 A 
ATOM     33  C   UNL     1       2.396   0.029  -0.020  0.00  0.00    -0.028 A 
ATOM     34  C   UNL     1       1.208  -0.679  -0.012  0.00  0.00    +0.005 A 
ATOM     35  C   UNL     1       0.002  -0.004   0.002  0.00  0.00    +0.000 A 
ENDBRANCH  29  33
ENDBRANCH   1  29
TORSDOF 4
