REMARK  Name = ZINC12792826
REMARK  9 active torsions:
REMARK  status: ('A' for Active; 'I' for Inactive)
REMARK    1  A    between atoms: C_1  and  C_2
REMARK    2  A    between atoms: C_5  and  O_29
REMARK    3  A    between atoms: C_6  and  C_8
REMARK    4  A    between atoms: C_8  and  C_10
REMARK    5  A    between atoms: C_8  and  N_59
REMARK    6  A    between atoms: C_11  and  C_12
REMARK    7  A    between atoms: C_11  and  N_59
REMARK    8  A    between atoms: N_14  and  C_15
REMARK    9  A    between atoms: O_29  and  C_30
REMARK                            x       y       z     vdW  Elec       q    Type
REMARK                         _______ _______ _______ _____ _____    ______ ____
ROOT
ATOM      1  C   UNL     1      -3.601   1.691   0.130  0.00  0.00    +0.200 C 
ATOM      2  O   UNL     1      -3.621   2.903   0.137  0.00  0.00    -0.278 OA
ATOM      3  N   UNL     1      -2.428   1.037   0.019  0.00  0.00    -0.287 N 
ATOM      4  H   UNL     1      -2.417   0.070  -0.064  0.00  0.00    +0.155 HD
ENDROOT
BRANCH   3   5
ATOM      5  C   UNL     1      -1.224   1.753   0.023  0.00  0.00    +0.037 A 
ATOM      6  C   UNL     1      -0.148   1.307  -0.733  0.00  0.00    +0.027 A 
ATOM      7  C   UNL     1       1.042   2.009  -0.725  0.00  0.00    +0.051 A 
ATOM      8  C   UNL     1       1.164   3.163   0.033  0.00  0.00    +0.167 A 
ATOM      9  C   UNL     1       0.085   3.615   0.788  0.00  0.00    +0.169 A 
ATOM     10  C   UNL     1      -1.107   2.911   0.779  0.00  0.00    +0.072 A 
ATOM     11  O   UNL     1       0.455   4.759   1.438  0.00  0.00    -0.447 OA
ATOM     12  C   UNL     1       1.639   5.213   0.767  0.00  0.00    +0.254 C 
ATOM     13  O   UNL     1       2.212   4.022   0.209  0.00  0.00    -0.448 OA
ATOM     14  C   UNL     1       2.602   5.848   1.765  0.00  0.00    +0.093 C 
ATOM     15  C   UNL     1       1.958   7.098   2.372  0.00  0.00    +0.008 C 
ATOM     16  C   UNL     1       1.625   8.091   1.258  0.00  0.00    +0.000 C 
ATOM     17  C   UNL     1       0.642   7.448   0.276  0.00  0.00    +0.008 C 
ATOM     18  C   UNL     1       1.280   6.199  -0.338  0.00  0.00    +0.093 C 
ENDBRANCH   3   5
BRANCH   1  19
ATOM     19  C   UNL     1      -4.888   0.915   0.245  0.00  0.00    +0.016 C 
BRANCH  19  20
ATOM     20  N   UNL     1      -6.014   1.861   0.353  0.00  0.00    +0.389 N 
ATOM     21  H   UNL     1      -5.885   2.448   1.185  0.00  0.00    -0.084 HD
ATOM     22  H   UNL     1      -6.039   2.455  -0.484  0.00  0.00    -0.084 HD
BRANCH  20  23
ATOM     23  C   UNL     1      -7.290   1.128   0.467  0.00  0.00    -0.040 C 
ATOM     24  C   UNL     1      -7.802   0.774  -0.930  0.00  0.00    -0.009 C 
BRANCH  23  30
ATOM     25  C   UNL     1      -8.953   5.674   1.731  0.00  0.00    +0.044 C 
ATOM     26  C   UNL     1      -9.097   4.175   1.773  0.00  0.00    -0.050 A 
ATOM     27  C   UNL     1     -10.156   3.602   2.453  0.00  0.00    +0.007 A 
ATOM     28  C   UNL     1     -10.290   2.228   2.492  0.00  0.00    +0.046 A 
ATOM     29  C   UNL     1      -9.362   1.422   1.848  0.00  0.00    +0.122 A 
ATOM     30  C   UNL     1      -8.300   2.000   1.167  0.00  0.00    -0.020 A 
ATOM     31  C   UNL     1      -8.167   3.374   1.135  0.00  0.00    +0.009 A 
BRANCH  29  32
ATOM     32  O   UNL     1      -9.492   0.070   1.884  0.00  0.00    -0.495 OA
ATOM     33  C   UNL     1     -10.610  -0.455   2.604  0.00  0.00    +0.277 C 
ENDBRANCH  29  32
ENDBRANCH  23  30
ENDBRANCH  20  23
ENDBRANCH  19  20
ENDBRANCH   1  19
TORSDOF 6
