REMARK  Name = ZINC20414353
REMARK  7 active torsions:
REMARK  status: ('A' for Active; 'I' for Inactive)
REMARK    1  A    between atoms: C_1  and  N_2
REMARK    2  A    between atoms: N_5  and  C_8
REMARK    3  A    between atoms: C_8  and  N_9
REMARK    4  A    between atoms: C_16  and  C_19
REMARK    5  A    between atoms: C_16  and  O_32
REMARK    6  A    between atoms: C_19  and  C_20
REMARK    7  A    between atoms: C_20  and  C_22
REMARK                            x       y       z     vdW  Elec       q    Type
REMARK                         _______ _______ _______ _____ _____    ______ ____
ROOT
ATOM      1  N   UNL     1       9.580   1.704  -3.406  0.00  0.00    -0.255 N 
ATOM      2  C   UNL     1       9.588   1.363  -4.759  0.00  0.00    +0.044 A 
ATOM      3  C   UNL     1      10.583   0.789  -5.548  0.00  0.00    +0.024 A 
ATOM      4  C   UNL     1      10.351   0.543  -6.886  0.00  0.00    +0.002 A 
ATOM      5  C   UNL     1       9.131   0.864  -7.454  0.00  0.00    +0.000 A 
ATOM      6  C   UNL     1       8.138   1.434  -6.677  0.00  0.00    +0.009 A 
ATOM      7  C   UNL     1       8.368   1.680  -5.342  0.00  0.00    +0.015 A 
ATOM      8  C   UNL     1       7.515   2.276  -4.245  0.00  0.00    +0.175 C 
ATOM      9  C   UNL     1       8.409   2.242  -3.024  0.00  0.00    +0.258 C 
ATOM     10  O   UNL     1       8.123   2.629  -1.911  0.00  0.00    -0.272 OA
ENDROOT
BRANCH   8  11
ATOM     11  O   UNL     1       7.154   3.621  -4.567  0.00  0.00    -0.374 OA
ATOM     12  H   UNL     1       6.531   4.205  -3.873  0.00  0.00    +0.211 HD
ENDBRANCH   8  11
BRANCH   1  13
ATOM     13  C   UNL     1      10.716   1.498  -2.505  0.00  0.00    +0.200 C 
BRANCH  13  18
ATOM     14  C   UNL     1      14.913   5.278  -2.470  0.00  0.00    -0.096 C 
ATOM     15  N   UNL     1      14.055   4.085  -2.457  0.00  0.00    +0.379 N 
ATOM     16  C   UNL     1      13.161   4.093  -1.291  0.00  0.00    -0.064 C 
ATOM     17  C   UNL     1      12.342   2.800  -1.270  0.00  0.00    +0.067 C 
ATOM     18  N   UNL     1      11.575   2.690  -2.519  0.00  0.00    -0.290 NA
ATOM     19  C   UNL     1      12.469   2.682  -3.685  0.00  0.00    +0.067 C 
ATOM     20  C   UNL     1      13.287   3.975  -3.705  0.00  0.00    -0.064 C 
ATOM     21  H   UNL     1      14.707   3.202  -2.380  0.00  0.00    -0.082 HD
ENDBRANCH  13  18
ENDBRANCH   1  13
BRANCH   8  22
ATOM     22  C   UNL     1       6.264   1.427  -4.017  0.00  0.00    +0.129 C 
BRANCH  22  23
ATOM     23  C   UNL     1       5.432   2.041  -2.921  0.00  0.00    +0.167 C 
ATOM     24  O   UNL     1       5.803   3.059  -2.376  0.00  0.00    -0.292 OA
BRANCH  23  25
ATOM     25  C   UNL     1       4.169   1.406  -2.512  0.00  0.00    +0.018 A 
ATOM     26  C   UNL     1       3.734   0.232  -3.136  0.00  0.00    +0.011 A 
ATOM     27  C   UNL     1       2.550  -0.347  -2.744  0.00  0.00    +0.004 A 
ATOM     28  C   UNL     1       1.780   0.220  -1.734  0.00  0.00    -0.044 A 
ATOM     29  C   UNL     1       2.204   1.374  -1.111  0.00  0.00    -0.044 A 
ATOM     30  C   UNL     1       3.394   1.970  -1.498  0.00  0.00    +0.015 A 
ATOM     31  C   UNL     1       1.424   2.030  -0.001  0.00  0.00    +0.035 C 
ATOM     32  C   UNL     1      -0.019   1.529   0.010  0.00  0.00    +0.005 C 
ATOM     33  C   UNL     1       0.002  -0.004   0.002  0.00  0.00    +0.005 C 
ATOM     34  C   UNL     1       0.492  -0.472  -1.367  0.00  0.00    +0.035 C 
ENDBRANCH  23  25
ENDBRANCH  22  23
ENDBRANCH   8  22
TORSDOF 6
