REMARK  Name = ZINC04867566
REMARK  4 active torsions:
REMARK  status: ('A' for Active; 'I' for Inactive)
REMARK    1  A    between atoms: C_1  and  O_2
REMARK    2  A    between atoms: O_2  and  C_3
REMARK    3  A    between atoms: C_10  and  C_19
REMARK    4  A    between atoms: C_23  and  N_25
REMARK                            x       y       z     vdW  Elec       q    Type
REMARK                         _______ _______ _______ _____ _____    ______ ____
ROOT
ATOM      1  C   UNL     1      -4.542   2.153  -1.712  0.00  0.00    +0.141 A 
ATOM      2  C   UNL     1      -4.883   0.821  -1.846  0.00  0.00    +0.049 A 
ATOM      3  C   UNL     1      -4.031  -0.165  -1.384  0.00  0.00    +0.024 A 
ATOM      4  C   UNL     1      -2.838   0.189  -0.780  0.00  0.00    +0.047 A 
ATOM      5  C   UNL     1      -2.491   1.518  -0.637  0.00  0.00    +0.002 A 
ATOM      6  C   UNL     1      -3.333   2.525  -1.111  0.00  0.00    +0.075 A 
ATOM      7  N   UNL     1      -3.038   3.888  -1.046  0.00  0.00    -0.334 N 
ATOM      8  C   UNL     1      -1.803   4.263  -0.333  0.00  0.00    +0.105 C 
ATOM      9  C   UNL     1      -0.757   3.229  -0.694  0.00  0.00    +0.029 C 
ATOM     10  C   UNL     1      -1.228   1.926   0.018  0.00  0.00    +0.050 C 
ATOM     11  C   UNL     1      -0.013   1.076   0.008  0.00  0.00    -0.023 C 
ATOM     12  C   UNL     1       1.055   1.866   0.002  0.00  0.00    -0.030 C 
ATOM     13  C   UNL     1       0.618   3.333  -0.025  0.00  0.00    +0.033 C 
ATOM     14 CL   UNL     1      -1.768  -1.048  -0.198  0.00  0.00    -0.083 Cl
ATOM     15  H   UNL     1      -3.826   4.413  -0.698  0.00  0.00    +0.147 HD
ENDROOT
BRANCH   8  16
ATOM     16  C   UNL     1      -1.353   5.629  -0.783  0.00  0.00    -0.025 A 
ATOM     17  C   UNL     1      -1.498   6.003  -2.106  0.00  0.00    +0.005 A 
ATOM     18  C   UNL     1      -1.085   7.255  -2.520  0.00  0.00    +0.003 A 
ATOM     19  C   UNL     1      -0.527   8.135  -1.610  0.00  0.00    +0.033 A 
ATOM     20  C   UNL     1      -0.382   7.761  -0.288  0.00  0.00    +0.127 A 
ATOM     21  C   UNL     1      -0.799   6.510   0.127  0.00  0.00    +0.038 A 
BRANCH  20  22
ATOM     22  N   UNL     1       0.215   8.702   0.686  0.00  0.00    +0.056 N 
ATOM     23  O   UNL     1       0.578   9.806   0.322  0.00  0.00    -0.126 OA
ATOM     24  O   UNL     1       0.342   8.373   1.852  0.00  0.00    -0.126 OA
ENDBRANCH  20  22
ENDBRANCH   8  16
BRANCH   1  26
ATOM     25  C   UNL     1      -6.606   2.670  -2.774  0.00  0.00    +0.277 C 
ATOM     26  O   UNL     1      -5.389   3.113  -2.170  0.00  0.00    -0.493 OA
ENDBRANCH   1  26
TORSDOF 3
