REMARK  Name = ZINC20721605
REMARK  10 active torsions:
REMARK  status: ('A' for Active; 'I' for Inactive)
REMARK    1  A    between atoms: C_1  and  O_2
REMARK    2  A    between atoms: O_2  and  C_3
REMARK    3  A    between atoms: C_3  and  C_5
REMARK    4  A    between atoms: C_5  and  C_6
REMARK    5  A    between atoms: C_6  and  C_7
REMARK    6  A    between atoms: C_7  and  C_9
REMARK    7  A    between atoms: C_7  and  N_13
REMARK    8  A    between atoms: C_9  and  O_11
REMARK    9  A    between atoms: O_11  and  C_12
REMARK   10  A    between atoms: C_25  and  C_27
REMARK                            x       y       z     vdW  Elec       q    Type
REMARK                         _______ _______ _______ _____ _____    ______ ____
ROOT
ATOM      1  N   UNL     1       1.098  -6.701  -1.504  0.00  0.00    -0.286 N 
ATOM      2  C   UNL     1       2.015  -5.872  -0.967  0.00  0.00    +0.304 C 
ATOM      3  O   UNL     1       2.208  -4.778  -1.460  0.00  0.00    -0.253 OA
ATOM      4  N   UNL     1       2.718  -6.256   0.116  0.00  0.00    -0.273 N 
ATOM      5  C   UNL     1       3.639  -5.327   0.787  0.00  0.00    +0.116 C 
ATOM      6  C   UNL     1       5.073  -5.858   0.661  0.00  0.00    +0.076 C 
ATOM      7  C   UNL     1       5.075  -7.332   0.978  0.00  0.00    +0.066 A 
ATOM      8  C   UNL     1       3.974  -8.115   0.974  0.00  0.00    +0.064 A 
ATOM      9  N   UNL     1       4.373  -9.373   1.303  0.00  0.00    -0.346 N 
ATOM     10  H   UNL     1       3.806 -10.157   1.379  0.00  0.00    +0.167 HD
ATOM     11  C   UNL     1       5.710  -9.324   1.502  0.00  0.00    +0.197 A 
ATOM     12  N   UNL     1       6.120  -8.098   1.306  0.00  0.00    -0.240 NA
ATOM     13  C   UNL     1       2.580  -7.619   0.664  0.00  0.00    +0.159 C 
ATOM     14  H   UNL     1       0.992  -7.599  -1.154  0.00  0.00    +0.151 HD
ENDROOT
BRANCH  13  15
ATOM     15  C   UNL     1       1.751  -7.584   1.922  0.00  0.00    +0.017 A 
ATOM     16  C   UNL     1       2.367  -7.667   3.157  0.00  0.00    +0.011 A 
ATOM     17  C   UNL     1       1.609  -7.635   4.313  0.00  0.00    +0.042 A 
ATOM     18  C   UNL     1       0.231  -7.520   4.235  0.00  0.00    +0.161 A 
ATOM     19  C   UNL     1      -0.388  -7.436   2.998  0.00  0.00    +0.194 A 
ATOM     20  C   UNL     1       0.375  -7.463   1.841  0.00  0.00    +0.167 A 
ATOM     21  F   UNL     1      -0.226  -7.375   0.634  0.00  0.00    -0.202 F 
ATOM     22  F   UNL     1      -1.732  -7.324   2.921  0.00  0.00    -0.199 F 
ATOM     23  F   UNL     1      -0.509  -7.489   5.365  0.00  0.00    -0.202 F 
ENDBRANCH  13  15
BRANCH   1  24
ATOM     24  C   UNL     1       0.260  -6.245  -2.616  0.00  0.00    +0.184 C 
BRANCH  24  25
ATOM     25  C   UNL     1      -0.936  -5.506  -2.074  0.00  0.00    +0.327 C 
ATOM     26  O   UNL     1      -1.075  -5.374  -0.881  0.00  0.00    -0.249 OA
BRANCH  25  27
ATOM     27  O   UNL     1      -1.848  -4.995  -2.916  0.00  0.00    -0.467 OA
ATOM     28  C   UNL     1      -2.956  -4.307  -2.333  0.00  0.00    +0.280 C 
ENDBRANCH  25  27
ENDBRANCH  24  25
BRANCH  24  29
ATOM     29  C   UNL     1      -0.211  -7.453  -3.428  0.00  0.00    +0.045 C 
BRANCH  29  30
ATOM     30  C   UNL     1       0.995  -8.131  -4.081  0.00  0.00    +0.123 C 
BRANCH  30  31
ATOM     31  C   UNL     1       0.530  -9.320  -4.881  0.00  0.00    +0.307 C 
ATOM     32  O   UNL     1      -0.645  -9.598  -4.924  0.00  0.00    -0.251 OA
BRANCH  31  34
ATOM     33  C   UNL     1       0.912 -11.184  -6.283  0.00  0.00    +0.280 C 
ATOM     34  O   UNL     1       1.422 -10.072  -5.545  0.00  0.00    -0.468 OA
ENDBRANCH  31  34
ENDBRANCH  30  31
ENDBRANCH  29  30
ENDBRANCH  24  29
ENDBRANCH   1  24
TORSDOF 8
