REMARK  Name = ZINC58251678
REMARK  7 active torsions:
REMARK  status: ('A' for Active; 'I' for Inactive)
REMARK    1  A    between atoms: C_1  and  C_2
REMARK    2  A    between atoms: C_2  and  C_3
REMARK    3  A    between atoms: C_2  and  C_4
REMARK    4  A    between atoms: C_2  and  N_11
REMARK    5  A    between atoms: C_12  and  C_14
REMARK    6  A    between atoms: C_17  and  S_19
REMARK    7  A    between atoms: S_19  and  N_22
REMARK                            x       y       z     vdW  Elec       q    Type
REMARK                         _______ _______ _______ _____ _____    ______ ____
ROOT
ATOM      1  N   UNL     1       0.556  -0.272  -1.327  0.00  0.00    -0.300 N 
ATOM      2  C   UNL     1       1.849   0.006  -1.587  0.00  0.00    +0.280 C 
ATOM      3  O   UNL     1       2.556   0.479  -0.718  0.00  0.00    -0.267 OA
ATOM      4  H   UNL     1      -0.008  -0.650  -2.021  0.00  0.00    +0.150 HD
ENDROOT
BRANCH   2   5
ATOM      5  C   UNL     1       2.404  -0.263  -2.918  0.00  0.00    +0.192 A 
ATOM      6  C   UNL     1       3.691  -0.035  -3.312  0.00  0.00    +0.057 A 
ATOM      7  C   UNL     1       3.780  -0.435  -4.654  0.00  0.00    +0.072 A 
ATOM      8  C   UNL     1       2.558  -0.885  -5.016  0.00  0.00    +0.258 A 
ATOM      9  O   UNL     1       1.733  -0.784  -3.966  0.00  0.00    -0.432 OA
BRANCH   8  10
ATOM     10  S   UNL     1       2.123  -1.506  -6.607  0.00  0.00    +0.089 S 
ATOM     11  O   UNL     1       0.719  -1.335  -6.739  0.00  0.00    -0.150 OA
ATOM     12  O   UNL     1       3.049  -0.946  -7.528  0.00  0.00    -0.150 OA
BRANCH  10  13
ATOM     13  N   UNL     1       2.402  -3.138  -6.588  0.00  0.00    -0.201 NA
ATOM     14  H   UNL     1       2.744  -3.562  -5.786  0.00  0.00    +0.144 HD
ATOM     15  H   UNL     1       2.223  -3.670  -7.379  0.00  0.00    +0.144 HD
ENDBRANCH  10  13
ENDBRANCH   8  10
ENDBRANCH   2   5
BRANCH   1  17
ATOM     16  C   UNL     1       0.155   1.483   0.328  0.00  0.00    +0.036 C 
ATOM     17  C   UNL     1       0.002  -0.004   0.002  0.00  0.00    +0.054 C 
ATOM     18  C   UNL     1       0.753  -0.835   1.045  0.00  0.00    +0.036 C 
BRANCH  17  19
ATOM     19  C   UNL     1      -1.458  -0.375   0.022  0.00  0.00    -0.025 A 
ATOM     20  C   UNL     1      -2.073  -0.700   1.217  0.00  0.00    +0.007 A 
ATOM     21  C   UNL     1      -3.413  -1.039   1.235  0.00  0.00    +0.015 A 
ATOM     22  C   UNL     1      -4.138  -1.054   0.058  0.00  0.00    +0.018 A 
ATOM     23  C   UNL     1      -3.523  -0.729  -1.138  0.00  0.00    +0.015 A 
ATOM     24  C   UNL     1      -2.185  -0.384  -1.155  0.00  0.00    +0.007 A 
ATOM     25 BR   UNL     1      -5.971  -1.519   0.083  0.00  0.00    -0.050 Br
ENDBRANCH  17  19
ENDBRANCH   1  17
TORSDOF 5
