REMARK  Name = ZINC01182311
REMARK  1 active torsions:
REMARK  status: ('A' for Active; 'I' for Inactive)
REMARK    1  A    between atoms: C_8  and  C_18
REMARK                            x       y       z     vdW  Elec       q    Type
REMARK                         _______ _______ _______ _____ _____    ______ ____
ROOT
ATOM      1  C   UNL     1      -0.199   0.112  -0.069  0.00  0.00    +0.002 A 
ATOM      2  C   UNL     1       0.972  -0.623  -0.122  0.00  0.00    +0.002 A 
ATOM      3  C   UNL     1       2.199   0.018  -0.152  0.00  0.00    +0.025 A 
ATOM      4  C   UNL     1       2.242   1.402  -0.128  0.00  0.00    +0.052 A 
ATOM      5  C   UNL     1       1.070   2.138  -0.038  0.00  0.00    +0.049 A 
ATOM      6  C   UNL     1      -0.157   1.495  -0.026  0.00  0.00    +0.025 A 
ATOM      7  N   UNL     1       1.171   3.523   0.093  0.00  0.00    -0.331 N 
ATOM      8  C   UNL     1       1.788   4.118   1.260  0.00  0.00    +0.137 C 
ATOM      9  C   UNL     1       3.260   3.822   1.414  0.00  0.00    +0.036 C 
ATOM     10  C   UNL     1       3.958   2.909   0.717  0.00  0.00    +0.017 C 
ATOM     11  N   UNL     1       3.432   2.109  -0.245  0.00  0.00    -0.316 N 
ATOM     12  C   UNL     1       5.445   2.718   0.965  0.00  0.00    +0.051 C 
ATOM     13  C   UNL     1       5.771   3.003   2.430  0.00  0.00    +0.014 C 
ATOM     14  C   UNL     1       5.358   4.450   2.727  0.00  0.00    +0.080 C 
ATOM     15  C   UNL     1       3.903   4.607   2.400  0.00  0.00    +0.163 C 
ATOM     16  O   UNL     1       3.253   5.438   3.003  0.00  0.00    -0.292 OA
ATOM     17  H   UNL     1       0.822   4.096  -0.608  0.00  0.00    +0.147 HD
ATOM     18  H   UNL     1       3.924   2.024  -1.077  0.00  0.00    +0.152 HD
ENDROOT
BRANCH   8  19
ATOM     19  C   UNL     1       1.070   3.619   2.486  0.00  0.00    -0.004 A 
ATOM     20  C   UNL     1       1.645   2.638   3.273  0.00  0.00    +0.008 A 
ATOM     21  C   UNL     1       0.987   2.180   4.399  0.00  0.00    +0.020 A 
ATOM     22  C   UNL     1      -0.248   2.703   4.739  0.00  0.00    +0.042 A 
ATOM     23  C   UNL     1      -0.825   3.684   3.953  0.00  0.00    +0.040 A 
ATOM     24  C   UNL     1      -0.163   4.146   2.829  0.00  0.00    +0.048 A 
ATOM     25 CL   UNL     1      -0.882   5.382   1.844  0.00  0.00    -0.083 Cl
ATOM     26 CL   UNL     1      -1.075   2.127   6.153  0.00  0.00    -0.083 Cl
ENDBRANCH   8  19
TORSDOF 1
