REMARK  Name = ZINC11987804
REMARK  8 active torsions:
REMARK  status: ('A' for Active; 'I' for Inactive)
REMARK    1  A    between atoms: C_1  and  C_2
REMARK    2  A    between atoms: C_5  and  C_35
REMARK    3  A    between atoms: C_13  and  S_21
REMARK    4  A    between atoms: N_14  and  C_15
REMARK    5  A    between atoms: C_15  and  C_16
REMARK    6  A    between atoms: S_21  and  C_22
REMARK    7  A    between atoms: C_22  and  C_23
REMARK    8  A    between atoms: N_28  and  C_29
REMARK                            x       y       z     vdW  Elec       q    Type
REMARK                         _______ _______ _______ _____ _____    ______ ____
ROOT
ATOM      1  C   UNL     1       3.627   0.483  -1.350  0.00  0.00    +0.009 C 
ATOM      2  C   UNL     1       2.146   0.106  -1.290  0.00  0.00    +0.004 C 
ATOM      3  C   UNL     1       2.003  -1.416  -1.358  0.00  0.00    +0.009 C 
ATOM      4  C   UNL     1       2.768  -2.054  -0.197  0.00  0.00    +0.004 C 
ATOM      5  C   UNL     1       2.172  -1.572   1.129  0.00  0.00    +0.111 C 
ATOM      6  N   UNL     1       2.173  -0.102   1.141  0.00  0.00    -0.299 N 
ATOM      7  C   UNL     1       1.542   0.614   0.023  0.00  0.00    +0.111 C 
ATOM      8  C   UNL     1       2.758   0.596   2.189  0.00  0.00    +0.221 A 
ATOM      9  N   UNL     1       4.026   0.912   2.291  0.00  0.00    -0.112 NA
ATOM     10  N   UNL     1       4.202   1.612   3.492  0.00  0.00    -0.121 NA
ATOM     11  C   UNL     1       3.036   1.700   4.085  0.00  0.00    +0.194 A 
ATOM     12  N   UNL     1       2.112   1.080   3.292  0.00  0.00    -0.283 N 
ATOM     13  C   UNL     1       2.653  -3.577  -0.285  0.00  0.00    +0.009 C 
ENDROOT
BRANCH  12  14
ATOM     14  C   UNL     1       0.681   0.952   3.576  0.00  0.00    +0.201 C 
BRANCH  14  15
ATOM     15  C   UNL     1       0.448  -0.249   4.455  0.00  0.00    +0.125 A 
ATOM     16  C   UNL     1       0.442  -0.250   5.800  0.00  0.00    +0.046 A 
ATOM     17  C   UNL     1       0.187  -1.580   6.207  0.00  0.00    +0.041 A 
ATOM     18  C   UNL     1       0.053  -2.312   5.087  0.00  0.00    +0.195 A 
ATOM     19  O   UNL     1       0.206  -1.500   4.028  0.00  0.00    -0.466 OA
ENDBRANCH  14  15
ENDBRANCH  12  14
BRANCH  11  20
ATOM     20  S   UNL     1       2.716   2.487   5.628  0.00  0.00    -0.077 S 
BRANCH  20  21
ATOM     21  C   UNL     1       4.339   3.107   6.150  0.00  0.00    +0.173 C 
BRANCH  21  22
ATOM     22  C   UNL     1       4.205   3.811   7.476  0.00  0.00    +0.231 C 
ATOM     23  O   UNL     1       3.122   3.887   8.015  0.00  0.00    -0.274 OA
ATOM     24  N   UNL     1       5.289   4.357   8.062  0.00  0.00    -0.239 N 
ATOM     25  C   UNL     1       5.169   4.987   9.247  0.00  0.00    +0.310 C 
ATOM     26  O   UNL     1       4.083   5.062   9.788  0.00  0.00    -0.252 OA
ATOM     27  N   UNL     1       6.253   5.532   9.833  0.00  0.00    -0.269 N 
ATOM     28  H   UNL     1       6.155   4.296   7.630  0.00  0.00    +0.159 HD
ATOM     29  H   UNL     1       7.102   5.548   9.363  0.00  0.00    +0.156 HD
BRANCH  27  30
ATOM     30  C   UNL     1       6.155   6.075  11.119  0.00  0.00    +0.035 A 
ATOM     31  C   UNL     1       7.024   7.083  11.517  0.00  0.00    +0.023 A 
ATOM     32  C   UNL     1       6.924   7.616  12.787  0.00  0.00    +0.002 A 
ATOM     33  C   UNL     1       5.961   7.148  13.662  0.00  0.00    +0.000 A 
ATOM     34  C   UNL     1       5.095   6.144  13.269  0.00  0.00    +0.002 A 
ATOM     35  C   UNL     1       5.185   5.611  11.998  0.00  0.00    +0.023 A 
ENDBRANCH  27  30
ENDBRANCH  21  22
ENDBRANCH  20  21
ENDBRANCH  11  20
TORSDOF 6
