REMARK  Name = ZINC60241104
REMARK  8 active torsions:
REMARK  status: ('A' for Active; 'I' for Inactive)
REMARK    1  A    between atoms: C_1  and  C_2
REMARK    2  A    between atoms: C_5  and  C_8
REMARK    3  A    between atoms: C_8  and  C_10
REMARK    4  A    between atoms: C_8  and  N_24
REMARK    5  A    between atoms: C_10  and  N_11
REMARK    6  A    between atoms: C_12  and  C_14
REMARK    7  A    between atoms: C_14  and  N_15
REMARK    8  A    between atoms: C_16  and  C_18
REMARK                            x       y       z     vdW  Elec       q    Type
REMARK                         _______ _______ _______ _____ _____    ______ ____
ROOT
ATOM      1  C   UNL     1       1.514  -4.583   0.280  0.00  0.00    +0.093 C 
ENDROOT
BRANCH   1   2
ATOM      2  N   UNL     1       2.335  -4.280  -0.895  0.00  0.00    -0.315 N 
ATOM      3  C   UNL     1       3.651  -4.571  -0.890  0.00  0.00    +0.230 C 
ATOM      4  O   UNL     1       4.156  -5.083   0.086  0.00  0.00    -0.274 OA
ATOM      5  H   UNL     1       1.932  -3.871  -1.677  0.00  0.00    +0.149 HD
BRANCH   3   6
ATOM      6  C   UNL     1       4.496  -4.260  -2.099  0.00  0.00    +0.200 C 
BRANCH   6   7
ATOM      7  N   UNL     1       5.880  -4.668  -1.846  0.00  0.00    -0.300 N 
ATOM      8  C   UNL     1       6.821  -4.485  -2.793  0.00  0.00    +0.280 C 
ATOM      9  O   UNL     1       6.520  -3.981  -3.860  0.00  0.00    -0.267 OA
ATOM     10  H   UNL     1       6.119  -5.069  -0.996  0.00  0.00    +0.150 HD
BRANCH   8  11
ATOM     11  C   UNL     1       8.205  -4.893  -2.540  0.00  0.00    +0.191 A 
ATOM     12  C   UNL     1       9.252  -4.760  -3.407  0.00  0.00    +0.056 A 
ATOM     13  C   UNL     1      10.383  -5.278  -2.757  0.00  0.00    +0.058 A 
ATOM     14  C   UNL     1       9.982  -5.699  -1.535  0.00  0.00    +0.171 A 
ATOM     15  O   UNL     1       8.670  -5.460  -1.406  0.00  0.00    -0.444 OA
ATOM     16 BR   UNL     1      11.091  -6.487  -0.223  0.00  0.00    -0.008 Br
ENDBRANCH   8  11
ENDBRANCH   6   7
ENDBRANCH   3   6
ENDBRANCH   1   2
BRANCH   1  17
ATOM     17  C   UNL     1       0.100  -4.040   0.067  0.00  0.00    -0.020 C 
BRANCH  17  22
ATOM     18  C   UNL     1       0.268   1.731  -0.192  0.00  0.00    +0.044 C 
ATOM     19  C   UNL     1       0.224   0.226  -0.125  0.00  0.00    -0.050 A 
ATOM     20  C   UNL     1       0.152  -0.516  -1.289  0.00  0.00    +0.003 A 
ATOM     21  C   UNL     1       0.112  -1.897  -1.227  0.00  0.00    +0.002 A 
ATOM     22  C   UNL     1       0.144  -2.535  -0.001  0.00  0.00    -0.059 A 
ATOM     23  C   UNL     1       0.216  -1.792   1.163  0.00  0.00    +0.002 A 
ATOM     24  C   UNL     1       0.261  -0.412   1.101  0.00  0.00    +0.003 A 
ENDBRANCH  17  22
BRANCH  17  25
ATOM     25  N   UNL     1      -0.758  -4.454   1.185  0.00  0.00    +0.385 N 
ATOM     26  C   UNL     1      -2.139  -3.946   0.987  0.00  0.00    -0.078 C 
ATOM     27  C   UNL     1      -2.994  -4.890   1.871  0.00  0.00    -0.020 C 
ATOM     28  C   UNL     1      -2.303  -6.260   1.682  0.00  0.00    -0.020 C 
ATOM     29  C   UNL     1      -0.871  -5.928   1.222  0.00  0.00    -0.078 C 
ATOM     30  H   UNL     1      -0.382  -4.113   2.057  0.00  0.00    -0.081 HD
ENDBRANCH  17  25
ENDBRANCH   1  17
TORSDOF 7
