REMARK  Name = ZINC38866413
REMARK  5 active torsions:
REMARK  status: ('A' for Active; 'I' for Inactive)
REMARK    1  A    between atoms: C_1  and  C_2
REMARK    2  A    between atoms: C_4  and  N_21
REMARK    3  A    between atoms: C_9  and  C_12
REMARK    4  A    between atoms: C_22  and  C_24
REMARK    5  A    between atoms: N_29  and  C_31
REMARK                            x       y       z     vdW  Elec       q    Type
REMARK                         _______ _______ _______ _____ _____    ______ ____
ROOT
ATOM      1  C   UNL     1       0.064   1.516  -0.024  0.00  0.00    +0.067 C 
ATOM      2  C   UNL     1       0.070   0.009  -0.025  0.00  0.00    +0.062 A 
ATOM      3  C   UNL     1       0.062  -0.807  -1.160  0.00  0.00    +0.068 A 
ATOM      4  C   UNL     1       0.072  -2.103  -0.744  0.00  0.00    +0.131 A 
ATOM      5  N   UNL     1       0.086  -2.094   0.618  0.00  0.00    -0.194 N 
ATOM      6  N   UNL     1       0.089  -0.757   1.036  0.00  0.00    -0.168 NA
ATOM      7  C   UNL     1       0.099  -3.213   1.447  0.00  0.00    +0.196 A 
ATOM      8  N   UNL     1       0.107  -3.275   2.765  0.00  0.00    -0.218 NA
ATOM      9  C   UNL     1       0.120  -4.438   3.400  0.00  0.00    +0.115 A 
ATOM     10  C   UNL     1       0.124  -5.599   2.671  0.00  0.00    +0.080 A 
ATOM     11  S   UNL     1       0.101  -4.945   1.007  0.00  0.00    -0.056 S 
ENDROOT
BRANCH   9  12
ATOM     12  C   UNL     1       0.130  -4.483   4.876  0.00  0.00    +0.155 A 
ATOM     13  C   UNL     1       0.121  -3.398   5.688  0.00  0.00    +0.060 A 
ATOM     14  C   UNL     1       0.135  -3.917   7.058  0.00  0.00    +0.021 A 
ATOM     15  C   UNL     1       0.135  -3.326   8.323  0.00  0.00    +0.011 A 
ATOM     16  C   UNL     1       0.152  -4.115   9.439  0.00  0.00    +0.001 A 
ATOM     17  C   UNL     1       0.169  -5.497   9.322  0.00  0.00    +0.004 A 
ATOM     18  C   UNL     1       0.168  -6.099   8.082  0.00  0.00    +0.047 A 
ATOM     19  C   UNL     1       0.151  -5.317   6.934  0.00  0.00    +0.136 A 
ATOM     20  O   UNL     1       0.142  -5.609   5.617  0.00  0.00    -0.453 OA
ENDBRANCH   9  12
BRANCH   4  21
ATOM     21  N   UNL     1       0.068  -3.232  -1.561  0.00  0.00    -0.270 N 
ATOM     22  C   UNL     1       0.054  -3.094  -2.902  0.00  0.00    +0.223 C 
ATOM     23  O   UNL     1       0.044  -1.987  -3.397  0.00  0.00    -0.275 OA
ATOM     24  H   UNL     1       0.075  -4.118  -1.165  0.00  0.00    +0.156 HD
BRANCH  22  25
ATOM     25  C   UNL     1       0.050  -4.315  -3.785  0.00  0.00    +0.102 C 
ATOM     26  C   UNL     1      -1.248  -5.133  -3.592  0.00  0.00    +0.110 C 
ATOM     27  C   UNL     1      -2.177  -4.614  -4.668  0.00  0.00    +0.221 C 
ATOM     28  O   UNL     1      -3.378  -4.786  -4.691  0.00  0.00    -0.275 OA
ATOM     29  N   UNL     1      -1.479  -3.934  -5.593  0.00  0.00    -0.271 N 
ATOM     30  C   UNL     1      -0.045  -3.919  -5.275  0.00  0.00    +0.127 C 
BRANCH  29  31
ATOM     31  C   UNL     1      -2.045  -3.319  -6.715  0.00  0.00    +0.036 A 
ATOM     32  C   UNL     1      -3.396  -3.483  -6.991  0.00  0.00    +0.023 A 
ATOM     33  C   UNL     1      -3.952  -2.875  -8.100  0.00  0.00    +0.002 A 
ATOM     34  C   UNL     1      -3.164  -2.104  -8.935  0.00  0.00    +0.000 A 
ATOM     35  C   UNL     1      -1.818  -1.939  -8.663  0.00  0.00    +0.002 A 
ATOM     36  C   UNL     1      -1.258  -2.540  -7.553  0.00  0.00    +0.023 A 
ENDBRANCH  29  31
ENDBRANCH  22  25
ENDBRANCH   4  21
TORSDOF 4
