REMARK  Name = ZINC35038966
REMARK  9 active torsions:
REMARK  status: ('A' for Active; 'I' for Inactive)
REMARK    1  A    between atoms: C_1  and  C_2
REMARK    2  A    between atoms: C_2  and  C_3
REMARK    3  A    between atoms: C_3  and  C_4
REMARK    4  A    between atoms: C_4  and  N_5
REMARK    5  A    between atoms: N_11  and  C_16
REMARK    6  A    between atoms: C_13  and  C_15
REMARK    7  A    between atoms: C_16  and  C_18
REMARK    8  A    between atoms: C_16  and  C_19
REMARK    9  A    between atoms: N_29  and  C_30
REMARK                            x       y       z     vdW  Elec       q    Type
REMARK                         _______ _______ _______ _____ _____    ______ ____
ROOT
ATOM      1  C   UNL     1      -8.418  -6.885  -0.685  0.00  0.00    -0.003 C 
ATOM      2  C   UNL     1      -9.204  -8.129  -0.266  0.00  0.00    -0.005 C 
ENDROOT
BRANCH   1   9
ATOM      3  N   UNL     1      -3.159  -4.505   1.550  0.00  0.00    -0.299 N 
ATOM      4  C   UNL     1      -3.677  -5.745   1.661  0.00  0.00    +0.302 C 
ATOM      5  O   UNL     1      -2.944  -6.693   1.869  0.00  0.00    -0.253 OA
ATOM      6  N   UNL     1      -5.006  -5.934   1.542  0.00  0.00    -0.286 N 
ATOM      7  C   UNL     1      -5.898  -4.822   1.179  0.00  0.00    +0.091 C 
ATOM      8  C   UNL     1      -6.788  -5.273   0.016  0.00  0.00    -0.058 C 
ATOM      9  N   UNL     1      -7.483  -6.512   0.385  0.00  0.00    +0.388 N 
ATOM     10  C   UNL     1      -6.509  -7.593   0.580  0.00  0.00    -0.055 C 
ATOM     11  C   UNL     1      -5.604  -7.259   1.765  0.00  0.00    +0.058 C 
ATOM     12  C   UNL     1      -4.499  -8.310   1.879  0.00  0.00    +0.026 C 
ATOM     13  H   UNL     1      -3.735  -3.758   1.325  0.00  0.00    +0.150 HD
ATOM     14  H   UNL     1      -7.997  -6.366   1.242  0.00  0.00    -0.081 HD
BRANCH   3  15
ATOM     15  C   UNL     1      -1.727  -4.287   1.768  0.00  0.00    +0.106 C 
BRANCH  15  16
ATOM     16  C   UNL     1      -1.404  -2.803   1.582  0.00  0.00    +0.018 C 
BRANCH  16  18
ATOM     17  C   UNL     1       0.415  -1.091   1.625  0.00  0.00    +0.004 C 
ATOM     18  C   UNL     1       0.092  -2.574   1.810  0.00  0.00    -0.002 C 
ENDBRANCH  16  18
ENDBRANCH  15  16
ENDBRANCH   3  15
ENDBRANCH   1   9
BRANCH   1  19
ATOM     19  C   UNL     1      -9.375  -5.747  -0.934  0.00  0.00    +0.104 A 
ATOM     20  N   UNL     1      -9.754  -5.028   0.078  0.00  0.00    -0.235 NA
ATOM     21  C   UNL     1     -10.613  -3.988  -0.071  0.00  0.00    +0.078 A 
ATOM     22  C   UNL     1     -11.021  -3.214   1.018  0.00  0.00    +0.028 A 
ATOM     23  C   UNL     1     -11.893  -2.167   0.821  0.00  0.00    +0.002 A 
ATOM     24  C   UNL     1     -12.375  -1.871  -0.448  0.00  0.00    +0.001 A 
ATOM     25  C   UNL     1     -11.987  -2.620  -1.537  0.00  0.00    +0.015 A 
ATOM     26  C   UNL     1     -11.104  -3.683  -1.360  0.00  0.00    +0.065 A 
ATOM     27  C   UNL     1     -10.655  -4.517  -2.485  0.00  0.00    +0.266 A 
ATOM     28  O   UNL     1     -11.041  -4.307  -3.620  0.00  0.00    -0.267 OA
ATOM     29  N   UNL     1      -9.793  -5.523  -2.209  0.00  0.00    -0.266 N 
BRANCH  29  30
ATOM     30  C   UNL     1      -9.330  -6.344  -3.246  0.00  0.00    +0.051 A 
ATOM     31  C   UNL     1     -10.164  -7.310  -3.793  0.00  0.00    +0.029 A 
ATOM     32  C   UNL     1      -9.707  -8.118  -4.816  0.00  0.00    +0.040 A 
ATOM     33  C   UNL     1      -8.417  -7.965  -5.295  0.00  0.00    +0.124 A 
ATOM     34  C   UNL     1      -7.583  -7.003  -4.751  0.00  0.00    +0.040 A 
ATOM     35  C   UNL     1      -8.038  -6.189  -3.732  0.00  0.00    +0.029 A 
ATOM     36  F   UNL     1      -7.971  -8.757  -6.295  0.00  0.00    -0.205 F 
ENDBRANCH  29  30
ENDBRANCH   1  19
TORSDOF 6
