REMARK  Name = ZINC02422553
REMARK  4 active torsions:
REMARK  status: ('A' for Active; 'I' for Inactive)
REMARK    1  A    between atoms: C_1  and  N_2
REMARK    2  A    between atoms: C_6  and  C_7
REMARK    3  A    between atoms: C_12  and  N_14
REMARK    4  A    between atoms: N_14  and  C_15
REMARK                            x       y       z     vdW  Elec       q    Type
REMARK                         _______ _______ _______ _____ _____    ______ ____
ROOT
ATOM      1  C   UNL     1      -0.500  -0.551   2.623  0.00  0.00    +0.046 C 
ATOM      2  C   UNL     1      -0.440   0.768   2.963  0.00  0.00    +0.081 C 
ATOM      3  C   UNL     1      -0.726   1.969   2.152  0.00  0.00    +0.276 C 
ATOM      4  O   UNL     1      -1.078   1.888   0.985  0.00  0.00    -0.267 OA
ATOM      5  N   UNL     1      -0.583   3.130   2.753  0.00  0.00    -0.152 NA
ATOM      6  C   UNL     1      -0.203   3.232   4.017  0.00  0.00    +0.175 C 
ATOM      7  S   UNL     1       0.000   1.530   4.520  0.00  0.00    -0.050 S 
ENDROOT
BRANCH   1  13
ATOM      8  C   UNL     1       1.103   0.402   0.185  0.00  0.00    +0.149 C 
ATOM      9  N   UNL     1      -0.044  -0.509   0.175  0.00  0.00    -0.350 N 
ATOM     10  C   UNL     1      -0.586  -1.089  -0.927  0.00  0.00    +0.086 A 
ATOM     11  C   UNL     1      -1.630  -1.865  -0.547  0.00  0.00    +0.020 A 
ATOM     12  C   UNL     1      -1.752  -1.772   0.842  0.00  0.00    +0.027 A 
ATOM     13  C   UNL     1      -0.750  -0.924   1.282  0.00  0.00    +0.043 A 
ENDBRANCH   1  13
BRANCH   6  14
ATOM     14  N   UNL     1      -0.014   4.369   4.761  0.00  0.00    -0.190 NA
BRANCH  14  15
ATOM     15  C   UNL     1      -0.187   5.626   4.173  0.00  0.00    +0.074 A 
ATOM     16  C   UNL     1      -1.030   5.773   3.079  0.00  0.00    +0.028 A 
ATOM     17  C   UNL     1      -1.199   7.016   2.500  0.00  0.00    +0.022 A 
ATOM     18  C   UNL     1      -0.529   8.115   3.009  0.00  0.00    +0.042 A 
ATOM     19  C   UNL     1       0.312   7.972   4.099  0.00  0.00    +0.042 A 
ATOM     20  C   UNL     1       0.480   6.732   4.685  0.00  0.00    +0.065 A 
ATOM     21 CL   UNL     1       1.530   6.556   6.057  0.00  0.00    -0.082 Cl
ATOM     22 CL   UNL     1      -0.743   9.675   2.278  0.00  0.00    -0.083 Cl
ENDBRANCH  14  15
ENDBRANCH   6  14
TORSDOF 3
