REMARK  Name = ZINC32925506
REMARK  6 active torsions:
REMARK  status: ('A' for Active; 'I' for Inactive)
REMARK    1  A    between atoms: C_4  and  C_7
REMARK    2  A    between atoms: N_11  and  C_12
REMARK    3  A    between atoms: C_17  and  S_18
REMARK    4  A    between atoms: S_18  and  C_19
REMARK    5  A    between atoms: C_19  and  C_21
REMARK    6  A    between atoms: C_19  and  C_28
REMARK                            x       y       z     vdW  Elec       q    Type
REMARK                         _______ _______ _______ _____ _____    ______ ____
ROOT
ATOM      1  C   UNL     1       7.690   0.764  -3.790  0.00  0.00    +0.164 A 
ATOM      2  N   UNL     1       6.600   1.336  -3.360  0.00  0.00    -0.143 NA
ATOM      3  N   UNL     1       5.994   0.501  -2.419  0.00  0.00    -0.170 N 
ATOM      4  C   UNL     1       6.778  -0.617  -2.298  0.00  0.00    +0.255 A 
ATOM      5  N   UNL     1       7.842  -0.451  -3.158  0.00  0.00    -0.289 N 
ATOM      6  N   UNL     1       6.203  -1.395  -1.413  0.00  0.00    -0.108 NA
ATOM      7  N   UNL     1       5.127  -0.842  -0.975  0.00  0.00    -0.119 NA
ATOM      8  C   UNL     1       4.948   0.318  -1.561  0.00  0.00    +0.215 A 
ENDROOT
BRANCH   1  12
ATOM      9  C   UNL     1      10.349   2.386  -6.679  0.00  0.00    +0.000 A 
ATOM     10  C   UNL     1       9.003   2.703  -6.728  0.00  0.00    +0.001 A 
ATOM     11  C   UNL     1       8.134   2.179  -5.792  0.00  0.00    +0.011 A 
ATOM     12  C   UNL     1       8.616   1.329  -4.796  0.00  0.00    +0.019 A 
ATOM     13  C   UNL     1       9.975   1.019  -4.750  0.00  0.00    +0.011 A 
ATOM     14  C   UNL     1      10.833   1.544  -5.694  0.00  0.00    +0.001 A 
ENDBRANCH   1  12
BRANCH   5  15
ATOM     15  C   UNL     1       8.940  -1.399  -3.364  0.00  0.00    +0.092 C 
ATOM     16  C   UNL     1       8.873  -2.731  -2.616  0.00  0.00    +0.027 C 
ATOM     17  C   UNL     1       9.878  -1.660  -2.185  0.00  0.00    +0.027 C 
ENDBRANCH   5  15
BRANCH   8  18
ATOM     18  S   UNL     1       3.613   1.434  -1.287  0.00  0.00    -0.067 S 
BRANCH  18  19
ATOM     19  C   UNL     1       2.589   0.596  -0.046  0.00  0.00    +0.170 C 
BRANCH  19  20
ATOM     20  C   UNL     1       1.334   1.396   0.193  0.00  0.00    -0.025 A 
ATOM     21  C   UNL     1       0.108   0.759   0.246  0.00  0.00    +0.008 A 
ATOM     22  C   UNL     1      -1.043   1.492   0.460  0.00  0.00    +0.038 A 
ATOM     23  C   UNL     1      -0.968   2.864   0.633  0.00  0.00    +0.123 A 
ATOM     24  C   UNL     1       0.260   3.501   0.580  0.00  0.00    +0.038 A 
ATOM     25  C   UNL     1       1.410   2.767   0.360  0.00  0.00    +0.008 A 
ATOM     26  F   UNL     1      -2.093   3.582   0.847  0.00  0.00    -0.205 F 
ENDBRANCH  19  20
BRANCH  19  27
ATOM     27  C   UNL     1       3.360   0.475   1.243  0.00  0.00    +0.228 C 
ATOM     28  O   UNL     1       3.767  -0.609   1.606  0.00  0.00    -0.274 OA
ATOM     29  N   UNL     1       3.598   1.570   1.992  0.00  0.00    -0.328 N 
ATOM     30  H   UNL     1       4.161   1.481   2.933  0.00  0.00    +0.145 HD
ATOM     31  H   UNL     1       3.229   2.552   1.663  0.00  0.00    +0.145 HD
ENDBRANCH  19  27
ENDBRANCH  18  19
ENDBRANCH   8  18
TORSDOF 6
