REMARK  Name = ZINC64677139
REMARK  8 active torsions:
REMARK  status: ('A' for Active; 'I' for Inactive)
REMARK    1  A    between atoms: C_1  and  C_2
REMARK    2  A    between atoms: C_2  and  C_3
REMARK    3  A    between atoms: C_3  and  N_4
REMARK    4  A    between atoms: C_5  and  C_7
REMARK    5  A    between atoms: C_7  and  N_8
REMARK    6  A    between atoms: C_15  and  C_17
REMARK    7  A    between atoms: C_19  and  C_22
REMARK    8  A    between atoms: C_25  and  C_28
REMARK                            x       y       z     vdW  Elec       q    Type
REMARK                         _______ _______ _______ _____ _____    ______ ____
ROOT
ATOM      1  N   UNL     1       2.093  -4.639   3.414  0.00  0.00    -0.254 N 
ATOM      2  C   UNL     1       3.442  -4.881   3.489  0.00  0.00    +0.070 A 
ATOM      3  C   UNL     1       4.491  -4.767   2.580  0.00  0.00    +0.028 A 
ATOM      4  C   UNL     1       5.761  -5.093   2.964  0.00  0.00    +0.002 A 
ATOM      5  C   UNL     1       6.022  -5.537   4.254  0.00  0.00    +0.001 A 
ATOM      6  C   UNL     1       5.012  -5.658   5.165  0.00  0.00    +0.012 A 
ATOM      7  C   UNL     1       3.705  -5.331   4.795  0.00  0.00    +0.032 A 
ATOM      8  C   UNL     1       2.415  -5.341   5.496  0.00  0.00    +0.157 A 
ATOM      9  N   UNL     1       1.502  -4.923   4.649  0.00  0.00    -0.165 NA
ENDROOT
BRANCH   8  10
ATOM     10  C   UNL     1       2.187  -5.742   6.897  0.00  0.00    +0.279 A 
ATOM     11  N   UNL     1       1.028  -5.753   7.516  0.00  0.00    -0.186 NA
ATOM     12  C   UNL     1       1.189  -6.173   8.780  0.00  0.00    +0.202 A 
ATOM     13  N   UNL     1       2.458  -6.434   8.982  0.00  0.00    -0.056 NA
ATOM     14  O   UNL     1       3.128  -6.165   7.760  0.00  0.00    -0.331 OA
BRANCH  12  15
ATOM     15  C   UNL     1       0.107  -6.317   9.787  0.00  0.00    +0.022 A 
ATOM     16  C   UNL     1      -1.209  -6.011   9.447  0.00  0.00    +0.012 A 
ATOM     17  C   UNL     1      -2.211  -6.147  10.387  0.00  0.00    +0.004 A 
ATOM     18  C   UNL     1      -1.910  -6.586  11.663  0.00  0.00    -0.050 A 
ATOM     19  C   UNL     1      -0.605  -6.892  12.006  0.00  0.00    +0.004 A 
ATOM     20  C   UNL     1       0.404  -6.764  11.072  0.00  0.00    +0.012 A 
ATOM     21  C   UNL     1      -3.008  -6.732  12.685  0.00  0.00    +0.044 C 
ENDBRANCH  12  15
ENDBRANCH   8  10
BRANCH   1  22
ATOM     22  C   UNL     1       1.385  -4.154   2.227  0.00  0.00    +0.239 C 
BRANCH  22  24
ATOM     23  N   UNL     1       0.762  -1.976   1.234  0.00  0.00    -0.314 N 
ATOM     24  C   UNL     1       1.364  -2.647   2.235  0.00  0.00    +0.235 C 
ATOM     25  O   UNL     1       1.890  -2.038   3.143  0.00  0.00    -0.274 OA
ATOM     26  H   UNL     1       0.342  -2.462   0.507  0.00  0.00    +0.149 HD
BRANCH  23  27
ATOM     27  C   UNL     1       0.742  -0.511   1.242  0.00  0.00    +0.104 C 
BRANCH  27  29
ATOM     28  C   UNL     1      -0.019   1.526   0.010  0.00  0.00    +0.005 C 
ATOM     29  C   UNL     1       0.002  -0.004   0.002  0.00  0.00    +0.015 C 
ENDBRANCH  27  29
ENDBRANCH  23  27
ENDBRANCH  22  24
ENDBRANCH   1  22
TORSDOF 6
