REMARK  Name = ZINC42356081
REMARK  5 active torsions:
REMARK  status: ('A' for Active; 'I' for Inactive)
REMARK    1  A    between atoms: C_1  and  C_2
REMARK    2  A    between atoms: C_2  and  C_4
REMARK    3  A    between atoms: C_2  and  N_18
REMARK    4  A    between atoms: N_6  and  C_7
REMARK    5  A    between atoms: C_22  and  C_24
REMARK                            x       y       z     vdW  Elec       q    Type
REMARK                         _______ _______ _______ _____ _____    ______ ____
ROOT
ATOM      1  C   UNL     1       0.730  -0.504   1.223  0.00  0.00    +0.203 C 
ATOM      2  O   UNL     1       1.720  -1.195   1.098  0.00  0.00    -0.277 OA
ATOM      3  N   UNL     1       0.278  -0.191   2.453  0.00  0.00    -0.287 N 
ATOM      4  H   UNL     1      -0.473   0.415   2.554  0.00  0.00    +0.155 HD
ENDROOT
BRANCH   3   5
ATOM      5  C   UNL     1       0.892  -0.739   3.586  0.00  0.00    +0.037 A 
ATOM      6  C   UNL     1       2.263  -0.957   3.595  0.00  0.00    +0.027 A 
ATOM      7  C   UNL     1       2.873  -1.498   4.712  0.00  0.00    +0.051 A 
ATOM      8  C   UNL     1       2.113  -1.823   5.822  0.00  0.00    +0.162 A 
ATOM      9  C   UNL     1       0.742  -1.606   5.817  0.00  0.00    +0.164 A 
ATOM     10  C   UNL     1       0.130  -1.060   4.702  0.00  0.00    +0.072 A 
ATOM     11  O   UNL     1       0.004  -1.929   6.918  0.00  0.00    -0.488 OA
ATOM     12  C   UNL     1      -0.112  -3.324   7.206  0.00  0.00    +0.232 C 
ATOM     13  C   UNL     1       1.086  -3.811   8.005  0.00  0.00    +0.082 C 
ATOM     14  C   UNL     1       2.383  -3.719   7.217  0.00  0.00    +0.232 C 
ATOM     15  O   UNL     1       2.706  -2.357   6.930  0.00  0.00    -0.488 OA
ENDBRANCH   3   5
BRANCH   1  17
ATOM     16  C   UNL     1      -0.004   1.532   0.013  0.00  0.00    -0.004 C 
ATOM     17  C   UNL     1       0.006   0.002   0.002  0.00  0.00    +0.017 C 
BRANCH  17  18
ATOM     18  N   UNL     1       0.691  -0.475  -1.207  0.00  0.00    +0.392 N 
ATOM     19  C   UNL     1       0.685  -1.953  -1.232  0.00  0.00    -0.077 C 
ATOM     20  C   UNL     1      -0.536  -2.328  -2.108  0.00  0.00    -0.020 C 
ATOM     21  C   UNL     1      -0.498  -1.218  -3.191  0.00  0.00    -0.012 C 
ATOM     22  C   UNL     1      -0.014   0.018  -2.404  0.00  0.00    -0.030 C 
ATOM     23  H   UNL     1       1.644  -0.141  -1.212  0.00  0.00    -0.080 HD
BRANCH  22  24
ATOM     24  C   UNL     1       0.928   0.832  -3.255  0.00  0.00    -0.024 A 
ATOM     25  C   UNL     1       0.691   1.984  -3.928  0.00  0.00    +0.009 A 
ATOM     26  C   UNL     1       1.717   2.561  -4.652  0.00  0.00    +0.008 A 
ATOM     27  C   UNL     1       2.930   1.957  -4.668  0.00  0.00    +0.045 A 
ATOM     28  S   UNL     1       2.647   0.531  -3.631  0.00  0.00    -0.103 S 
ENDBRANCH  22  24
ENDBRANCH  17  18
ENDBRANCH   1  17
TORSDOF 4
