REMARK  Name = ZINC02705396
REMARK  14 active torsions:
REMARK  status: ('A' for Active; 'I' for Inactive)
REMARK    1  A    between atoms: C_1  and  C_2
REMARK    2  A    between atoms: C_2  and  O_3
REMARK    3  A    between atoms: O_3  and  C_4
REMARK    4  A    between atoms: C_7  and  N_10
REMARK    5  A    between atoms: C_11  and  C_32
REMARK    6  A    between atoms: C_14  and  S_15
REMARK    7  A    between atoms: S_15  and  C_16
REMARK    8  A    between atoms: C_16  and  C_17
REMARK    9  A    between atoms: N_19  and  N_20
REMARK   10  A    between atoms: C_21  and  C_22
REMARK   11  A    between atoms: C_25  and  C_28
REMARK   12  A    between atoms: C_28  and  C_29
REMARK   13  A    between atoms: C_28  and  C_30
REMARK   14  A    between atoms: C_28  and  C_31
REMARK                            x       y       z     vdW  Elec       q    Type
REMARK                         _______ _______ _______ _____ _____    ______ ____
ROOT
ATOM      1  N   UNL     1       1.285   1.733  -0.001  0.00  0.00    -0.270 N 
ATOM      2  C   UNL     1       2.047   0.585  -0.014  0.00  0.00    +0.169 A 
ATOM      3  N   UNL     1       1.214  -0.430  -0.012  0.00  0.00    -0.128 NA
ATOM      4  N   UNL     1       0.002  -0.004   0.002  0.00  0.00    -0.122 NA
ATOM      5  C   UNL     1      -0.016   1.310   0.009  0.00  0.00    +0.197 A 
ENDROOT
BRANCH   1   9
ATOM      6  C   UNL     1       2.658   5.672   0.006  0.00  0.00    +0.121 A 
ATOM      7  C   UNL     1       1.961   5.179   1.099  0.00  0.00    +0.047 A 
ATOM      8  C   UNL     1       1.506   3.875   1.097  0.00  0.00    +0.030 A 
ATOM      9  C   UNL     1       1.747   3.058   0.001  0.00  0.00    +0.051 A 
ATOM     10  C   UNL     1       2.449   3.550  -1.090  0.00  0.00    +0.030 A 
ATOM     11  C   UNL     1       2.899   4.856  -1.089  0.00  0.00    +0.047 A 
BRANCH   6  12
ATOM     12  O   UNL     1       3.106   6.956   0.009  0.00  0.00    -0.492 OA
BRANCH  12  14
ATOM     13  C   UNL     1       4.237   8.857  -0.965  0.00  0.00    +0.048 C 
ATOM     14  C   UNL     1       3.816   7.397  -1.150  0.00  0.00    +0.225 C 
ENDBRANCH  12  14
ENDBRANCH   6  12
ENDBRANCH   1   9
BRANCH   2  15
ATOM     15  C   UNL     1       3.523   0.511  -0.030  0.00  0.00    +0.020 A 
ATOM     16  C   UNL     1       4.285   1.640   0.276  0.00  0.00    +0.011 A 
ATOM     17  C   UNL     1       5.663   1.562   0.264  0.00  0.00    +0.001 A 
ATOM     18  C   UNL     1       6.289   0.372  -0.059  0.00  0.00    +0.000 A 
ATOM     19  C   UNL     1       5.540  -0.750  -0.368  0.00  0.00    +0.001 A 
ATOM     20  C   UNL     1       4.161  -0.687  -0.355  0.00  0.00    +0.011 A 
ENDBRANCH   2  15
BRANCH   5  21
ATOM     21  S   UNL     1      -1.448   2.337   0.022  0.00  0.00    -0.076 S 
BRANCH  21  22
ATOM     22  C   UNL     1      -2.742   1.070   0.022  0.00  0.00    +0.174 C 
BRANCH  22  23
ATOM     23  C   UNL     1      -4.094   1.734   0.033  0.00  0.00    +0.242 C 
ATOM     24  O   UNL     1      -4.176   2.945   0.039  0.00  0.00    -0.273 OA
ATOM     25  N   UNL     1      -5.214   0.984   0.035  0.00  0.00    -0.206 N 
ATOM     26  H   UNL     1      -5.149   0.016   0.029  0.00  0.00    +0.177 HD
BRANCH  25  27
ATOM     27  N   UNL     1      -6.471   1.601   0.044  0.00  0.00    -0.188 NA
ATOM     28  C   UNL     1      -7.549   0.878   0.046  0.00  0.00    +0.138 C 
BRANCH  28  29
ATOM     29  C   UNL     1      -8.873   1.528   0.057  0.00  0.00    -0.005 A 
ATOM     30  C   UNL     1      -8.970   2.921   0.070  0.00  0.00    +0.010 A 
ATOM     31  C   UNL     1     -10.212   3.522   0.073  0.00  0.00    +0.005 A 
ATOM     32  C   UNL     1     -11.359   2.748   0.075  0.00  0.00    -0.042 A 
ATOM     33  C   UNL     1     -11.270   1.367   0.068  0.00  0.00    +0.005 A 
ATOM     34  C   UNL     1     -10.035   0.753   0.059  0.00  0.00    +0.010 A 
BRANCH  32  35
ATOM     35  C   UNL     1     -12.712   3.412   0.086  0.00  0.00    -0.013 C 
ATOM     36  C   UNL     1     -13.480   2.983   1.338  0.00  0.00    +0.015 C 
ATOM     37  C   UNL     1     -12.534   4.932   0.093  0.00  0.00    +0.015 C 
ATOM     38  C   UNL     1     -13.494   2.996  -1.161  0.00  0.00    +0.015 C 
ENDBRANCH  32  35
ENDBRANCH  28  29
ENDBRANCH  25  27
ENDBRANCH  22  23
ENDBRANCH  21  22
ENDBRANCH   5  21
TORSDOF 10
