REMARK  Name = ZINC15996128
REMARK  9 active torsions:
REMARK  status: ('A' for Active; 'I' for Inactive)
REMARK    1  A    between atoms: C_1  and  C_2
REMARK    2  A    between atoms: C_16  and  C_30
REMARK    3  A    between atoms: C_18  and  C_27
REMARK    4  A    between atoms: C_27  and  C_29
REMARK    5  A    between atoms: C_30  and  C_32
REMARK    6  A    between atoms: C_34  and  O_40
REMARK    7  A    between atoms: C_37  and  O_38
REMARK    8  A    between atoms: O_38  and  C_39
REMARK    9  A    between atoms: O_40  and  C_41
REMARK                            x       y       z     vdW  Elec       q    Type
REMARK                         _______ _______ _______ _____ _____    ______ ____
ROOT
ATOM      1  C   UNL     1       8.330  -2.173  -1.593  0.00  0.00    +0.044 C 
ATOM      2  C   UNL     1       6.829  -2.150  -1.462  0.00  0.00    -0.044 C 
ATOM      3  C   UNL     1       6.234  -1.731  -0.329  0.00  0.00    +0.000 C 
ATOM      4  C   UNL     1       4.736  -1.749  -0.323  0.00  0.00    +0.118 C 
ATOM      5  C   UNL     1       4.076  -0.827   0.691  0.00  0.00    +0.108 C 
ATOM      6  C   UNL     1       3.782  -1.503   1.987  0.00  0.00    -0.008 A 
ATOM      7  C   UNL     1       3.030  -2.616   2.295  0.00  0.00    +0.006 A 
ATOM      8  C   UNL     1       2.962  -2.982   3.635  0.00  0.00    +0.000 A 
ATOM      9  C   UNL     1       3.619  -2.261   4.611  0.00  0.00    +0.002 A 
ATOM     10  C   UNL     1       4.378  -1.141   4.310  0.00  0.00    +0.023 A 
ATOM     11  C   UNL     1       4.455  -0.763   2.969  0.00  0.00    +0.038 A 
ATOM     12  N   UNL     1       5.132   0.299   2.393  0.00  0.00    -0.284 N 
ATOM     13  C   UNL     1       4.964   0.338   1.053  0.00  0.00    +0.231 C 
ATOM     14  O   UNL     1       5.437   1.151   0.288  0.00  0.00    -0.274 OA
ATOM     15  C   UNL     1       2.787  -0.333   0.003  0.00  0.00    +0.109 C 
ATOM     16  C   UNL     1       2.828  -0.976  -1.413  0.00  0.00    +0.152 C 
ATOM     17  N   UNL     1       4.257  -1.227  -1.632  0.00  0.00    -0.311 N 
ATOM     18  C   UNL     1       4.635  -2.086  -2.635  0.00  0.00    +0.038 A 
ATOM     19  C   UNL     1       5.954  -2.589  -2.575  0.00  0.00    -0.001 A 
ATOM     20  C   UNL     1       6.402  -3.468  -3.550  0.00  0.00    +0.010 A 
ATOM     21  C   UNL     1       5.555  -3.842  -4.576  0.00  0.00    +0.001 A 
ATOM     22  C   UNL     1       4.264  -3.345  -4.636  0.00  0.00    +0.002 A 
ATOM     23  C   UNL     1       3.803  -2.470  -3.669  0.00  0.00    +0.024 A 
ATOM     24  H   UNL     1       5.662   0.939   2.892  0.00  0.00    +0.155 HD
ENDROOT
BRANCH  16  25
ATOM     25  C   UNL     1       2.292  -0.019  -2.446  0.00  0.00    +0.151 C 
ATOM     26  O   UNL     1       3.054   0.588  -3.160  0.00  0.00    -0.296 OA
ATOM     27  C   UNL     1       0.805   0.180  -2.589  0.00  0.00    +0.088 C 
ENDBRANCH  16  25
BRANCH  15  28
ATOM     28  C   UNL     1       2.790   1.170  -0.102  0.00  0.00    +0.173 C 
ATOM     29  O   UNL     1       3.393   1.714  -1.003  0.00  0.00    -0.292 OA
BRANCH  28  30
ATOM     30  C   UNL     1       2.062   1.976   0.886  0.00  0.00    +0.063 A 
ATOM     31  C   UNL     1       1.274   1.352   1.861  0.00  0.00    +0.060 A 
ATOM     32  C   UNL     1       0.588   2.118   2.783  0.00  0.00    +0.121 A 
ATOM     33  C   UNL     1       0.686   3.505   2.752  0.00  0.00    +0.049 A 
ATOM     34  C   UNL     1       1.460   4.129   1.796  0.00  0.00    +0.050 A 
ATOM     35  C   UNL     1       2.152   3.377   0.859  0.00  0.00    +0.131 A 
BRANCH  35  36
ATOM     36  O   UNL     1       2.912   3.992  -0.082  0.00  0.00    -0.494 OA
ATOM     37  C   UNL     1       2.956   5.420  -0.049  0.00  0.00    +0.277 C 
ENDBRANCH  35  36
BRANCH  32  38
ATOM     38  O   UNL     1      -0.182   1.514   3.728  0.00  0.00    -0.495 OA
ATOM     39  C   UNL     1      -0.864   2.366   4.650  0.00  0.00    +0.277 C 
ENDBRANCH  32  38
ENDBRANCH  28  30
ENDBRANCH  15  28
TORSDOF 5
