REMARK  Name = ZINC39425139
REMARK  7 active torsions:
REMARK  status: ('A' for Active; 'I' for Inactive)
REMARK    1  A    between atoms: C_1  and  C_2
REMARK    2  A    between atoms: C_2  and  C_4
REMARK    3  A    between atoms: C_2  and  N_30
REMARK    4  A    between atoms: C_8  and  S_17
REMARK    5  A    between atoms: N_9  and  C_10
REMARK    6  A    between atoms: S_17  and  C_18
REMARK    7  A    between atoms: C_18  and  C_19
REMARK                            x       y       z     vdW  Elec       q    Type
REMARK                         _______ _______ _______ _____ _____    ______ ____
ROOT
ATOM      1  C   UNL     1       0.640  -0.384  -1.282  0.00  0.00    +0.168 C 
ATOM      2  N   UNL     1       0.754  -1.847  -1.421  0.00  0.00    -0.248 N 
ATOM      3  N   UNL     1       2.121  -2.121  -1.550  0.00  0.00    -0.162 NA
ATOM      4  C   UNL     1       2.826  -1.041  -1.507  0.00  0.00    +0.180 C 
ATOM      5  N   UNL     1       2.033   0.090  -1.348  0.00  0.00    -0.260 N 
ATOM      6  H   UNL     1       0.028  -2.490  -1.423  0.00  0.00    +0.170 HD
ENDROOT
BRANCH   5   7
ATOM      7  C   UNL     1       2.469   1.416  -1.265  0.00  0.00    +0.038 A 
ATOM      8  C   UNL     1       3.231   1.831  -0.180  0.00  0.00    +0.026 A 
ATOM      9  C   UNL     1       3.661   3.141  -0.100  0.00  0.00    +0.040 A 
ATOM     10  C   UNL     1       3.333   4.041  -1.101  0.00  0.00    +0.124 A 
ATOM     11  C   UNL     1       2.573   3.630  -2.183  0.00  0.00    +0.040 A 
ATOM     12  C   UNL     1       2.146   2.319  -2.270  0.00  0.00    +0.026 A 
ATOM     13  F   UNL     1       3.754   5.322  -1.021  0.00  0.00    -0.205 F 
ENDBRANCH   5   7
BRANCH   1  15
ATOM     14  C   UNL     1       0.894  -0.547   1.198  0.00  0.00    -0.010 C 
ATOM     15  C   UNL     1       0.012  -0.020   0.065  0.00  0.00    -0.031 C 
BRANCH  15  16
ATOM     16  N   UNL     1      -0.103   1.440   0.172  0.00  0.00    +0.384 N 
ATOM     17  C   UNL     1      -0.712   1.788   1.462  0.00  0.00    -0.078 C 
ATOM     18  C   UNL     1      -0.761   3.309   1.614  0.00  0.00    -0.019 C 
ATOM     19  C   UNL     1      -1.596   3.904   0.477  0.00  0.00    -0.004 C 
ATOM     20  C   UNL     1      -0.995   3.474  -0.864  0.00  0.00    -0.019 C 
ATOM     21  C   UNL     1      -0.938   1.946  -0.924  0.00  0.00    -0.078 C 
ATOM     22  H   UNL     1       0.815   1.854   0.114  0.00  0.00    -0.081 HD
ENDBRANCH  15  16
ENDBRANCH   1  15
BRANCH   4  23
ATOM     23  S   UNL     1       4.582  -1.004  -1.637  0.00  0.00    -0.081 S 
BRANCH  23  24
ATOM     24  C   UNL     1       5.046  -2.747  -1.828  0.00  0.00    +0.151 C 
BRANCH  24  25
ATOM     25  C   UNL     1       6.544  -2.858  -1.952  0.00  0.00    +0.121 A 
ATOM     26  N   UNL     1       7.089  -4.093  -2.109  0.00  0.00    -0.309 N 
ATOM     27  H   UNL     1       6.522  -4.878  -2.140  0.00  0.00    +0.170 HD
ATOM     28  C   UNL     1       8.434  -4.215  -2.222  0.00  0.00    +0.266 A 
ATOM     29  O   UNL     1       8.954  -5.309  -2.364  0.00  0.00    -0.267 OA
ATOM     30  C   UNL     1       9.206  -3.054  -2.171  0.00  0.00    +0.102 A 
ATOM     31  C   UNL     1       8.617  -1.789  -2.008  0.00  0.00    +0.085 A 
ATOM     32  N   UNL     1       7.247  -1.772  -1.908  0.00  0.00    -0.232 NA
ATOM     33  C   UNL     1       9.508  -0.708  -1.973  0.00  0.00    +0.036 A 
ATOM     34  C   UNL     1      10.836  -0.918  -2.094  0.00  0.00    +0.048 A 
ATOM     35  S   UNL     1      10.939  -2.692  -2.268  0.00  0.00    -0.090 S 
ENDBRANCH  24  25
ENDBRANCH  23  24
ENDBRANCH   4  23
TORSDOF 6
