REMARK  Name = ZINC12884400
REMARK  14 active torsions:
REMARK  status: ('A' for Active; 'I' for Inactive)
REMARK    1  A    between atoms: C_1  and  C_2
REMARK    2  A    between atoms: C_2  and  O_3
REMARK    3  A    between atoms: O_3  and  C_4
REMARK    4  A    between atoms: C_4  and  C_6
REMARK    5  A    between atoms: C_7  and  C_36
REMARK    6  A    between atoms: C_8  and  C_31
REMARK    7  A    between atoms: C_10  and  N_11
REMARK    8  A    between atoms: C_12  and  C_14
REMARK    9  A    between atoms: C_14  and  O_15
REMARK   10  A    between atoms: O_15  and  C_16
REMARK   11  A    between atoms: C_16  and  C_18
REMARK   12  A    between atoms: C_18  and  C_19
REMARK   13  A    between atoms: N_33  and  C_34
REMARK   14  A    between atoms: N_33  and  C_35
REMARK                            x       y       z     vdW  Elec       q    Type
REMARK                         _______ _______ _______ _____ _____    ______ ____
ROOT
ATOM      1  N   UNL     1      -0.221  -1.258  -4.515  0.00  0.00    -0.277 N 
ATOM      2  C   UNL     1      -0.716  -1.577  -5.727  0.00  0.00    +0.255 C 
ATOM      3  O   UNL     1      -0.044  -2.220  -6.505  0.00  0.00    -0.272 OA
ATOM      4  H   UNL     1      -0.758  -0.744  -3.892  0.00  0.00    +0.155 HD
ENDROOT
BRANCH   1   9
ATOM      5  C   UNL     1       1.725  -1.427  -2.959  0.00  0.00    +0.091 A 
ATOM      6  C   UNL     1       3.007  -1.944  -2.830  0.00  0.00    -0.015 A 
ATOM      7  C   UNL     1       3.494  -2.636  -3.906  0.00  0.00    +0.079 A 
ATOM      8  S   UNL     1       2.149  -2.548  -5.070  0.00  0.00    -0.068 S 
ATOM      9  C   UNL     1       1.051  -1.662  -4.159  0.00  0.00    +0.087 A 
ATOM     10  C   UNL     1       3.819  -1.752  -1.575  0.00  0.00    +0.046 C 
BRANCH   7  11
ATOM     11  C   UNL     1       4.796  -3.287  -4.061  0.00  0.00    +0.253 C 
ATOM     12  O   UNL     1       5.661  -3.127  -3.219  0.00  0.00    -0.269 OA
ATOM     13  N   UNL     1       5.038  -4.064  -5.136  0.00  0.00    -0.303 N 
ATOM     14  C   UNL     1       6.328  -4.745  -5.272  0.00  0.00    +0.132 C 
ATOM     15  C   UNL     1       4.010  -4.228  -6.167  0.00  0.00    +0.132 C 
ENDBRANCH   7  11
BRANCH   5  16
ATOM     16  C   UNL     1       1.099  -0.666  -1.872  0.00  0.00    +0.342 C 
ATOM     17  O   UNL     1       0.444  -1.243  -1.025  0.00  0.00    -0.245 OA
BRANCH  16  18
ATOM     18  O   UNL     1       1.250   0.672  -1.812  0.00  0.00    -0.461 OA
BRANCH  18  20
ATOM     19  C   UNL     1       0.894   2.849  -0.824  0.00  0.00    +0.048 C 
ATOM     20  C   UNL     1       0.613   1.348  -0.726  0.00  0.00    +0.229 C 
ENDBRANCH  18  20
ENDBRANCH  16  18
ENDBRANCH   5  16
ENDBRANCH   1   9
BRANCH   2  21
ATOM     21  C   UNL     1      -2.103  -1.136  -6.115  0.00  0.00    +0.328 C 
BRANCH  21  22
ATOM     22  O   UNL     1      -2.396  -1.594  -7.437  0.00  0.00    -0.455 OA
BRANCH  22  23
ATOM     23  C   UNL     1      -3.603  -1.282  -7.936  0.00  0.00    +0.313 C 
ATOM     24  O   UNL     1      -4.384  -0.642  -7.272  0.00  0.00    -0.250 OA
BRANCH  23  25
ATOM     25  C   UNL     1      -3.983  -1.730  -9.323  0.00  0.00    +0.178 C 
BRANCH  25  26
ATOM     26  C   UNL     1      -5.377  -1.255  -9.641  0.00  0.00    +0.080 A 
ATOM     27  C   UNL     1      -5.981  -1.571 -10.936  0.00  0.00    +0.011 A 
ATOM     28  C   UNL     1      -5.300  -2.309 -11.905  0.00  0.00    +0.010 A 
ATOM     29  C   UNL     1      -5.907  -2.579 -13.100  0.00  0.00    +0.001 A 
ATOM     30  C   UNL     1      -7.193  -2.127 -13.365  0.00  0.00    +0.001 A 
ATOM     31  C   UNL     1      -7.889  -1.396 -12.427  0.00  0.00    +0.014 A 
ATOM     32  C   UNL     1      -7.290  -1.110 -11.201  0.00  0.00    +0.050 A 
ATOM     33  C   UNL     1      -7.979  -0.336 -10.161  0.00  0.00    +0.272 A 
ATOM     34  O   UNL     1      -9.108   0.082 -10.343  0.00  0.00    -0.266 OA
ATOM     35  N   UNL     1      -7.337  -0.097  -8.998  0.00  0.00    -0.242 N 
ATOM     36  H   UNL     1      -7.787   0.413  -8.306  0.00  0.00    +0.192 HD
ATOM     37  N   UNL     1      -6.046  -0.570  -8.762  0.00  0.00    -0.175 NA
ENDBRANCH  25  26
ENDBRANCH  23  25
ENDBRANCH  22  23
ENDBRANCH  21  22
ENDBRANCH   2  21
TORSDOF 10
