REMARK  Name = ZINC26460188
REMARK  17 active torsions:
REMARK  status: ('A' for Active; 'I' for Inactive)
REMARK    1  A    between atoms: C_1  and  C_2
REMARK    2  A    between atoms: C_4  and  C_32
REMARK    3  A    between atoms: C_5  and  S_9
REMARK    4  A    between atoms: C_6  and  C_8
REMARK    5  A    between atoms: S_9  and  N_12
REMARK    6  A    between atoms: N_12  and  C_13
REMARK    7  A    between atoms: C_13  and  C_14
REMARK    8  A    between atoms: C_14  and  C_15
REMARK    9  A    between atoms: C_15  and  C_16
REMARK   10  A    between atoms: C_16  and  C_17
REMARK   11  A    between atoms: C_17  and  C_18
REMARK   12  A    between atoms: C_18  and  N_19
REMARK   13  A    between atoms: N_19  and  S_20
REMARK   14  A    between atoms: S_20  and  C_23
REMARK   15  A    between atoms: C_24  and  C_31
REMARK   16  A    between atoms: C_26  and  C_30
REMARK   17  A    between atoms: C_28  and  C_29
REMARK                            x       y       z     vdW  Elec       q    Type
REMARK                         _______ _______ _______ _____ _____    ______ ____
ROOT
ATOM      1  C   UNL     1      -5.292   2.458  -5.901  0.00  0.00    +0.001 C 
ENDROOT
BRANCH   1   2
ATOM      2  C   UNL     1      -5.243   3.729  -5.051  0.00  0.00    +0.017 C 
BRANCH   2   3
ATOM      3  C   UNL     1      -5.140   3.350  -3.572  0.00  0.00    +0.106 C 
BRANCH   3   4
ATOM      4  N   UNL     1      -5.093   4.567  -2.758  0.00  0.00    -0.190 NA
ATOM      5  H   UNL     1      -4.725   5.507  -3.195  0.00  0.00    +0.148 HD
BRANCH   4   6
ATOM      6  S   UNL     1      -5.354   4.481  -1.125  0.00  0.00    +0.059 S 
ATOM      7  O   UNL     1      -6.537   3.715  -0.943  0.00  0.00    -0.153 OA
ATOM      8  O   UNL     1      -5.217   5.803  -0.622  0.00  0.00    -0.153 OA
BRANCH   6  13
ATOM      9  C   UNL     1      -0.832   1.259   1.236  0.00  0.00    +0.044 C 
ATOM     10  C   UNL     1      -1.961   2.064   0.646  0.00  0.00    -0.050 A 
ATOM     11  C   UNL     1      -3.167   1.453   0.355  0.00  0.00    +0.008 A 
ATOM     12  C   UNL     1      -4.201   2.190  -0.190  0.00  0.00    -0.024 A 
ATOM     13  C   UNL     1      -4.034   3.540  -0.435  0.00  0.00    +0.111 A 
ATOM     14  C   UNL     1      -2.829   4.152  -0.143  0.00  0.00    -0.024 A 
ATOM     15  C   UNL     1      -1.792   3.413   0.398  0.00  0.00    +0.008 A 
ATOM     16  C   UNL     1      -2.644   5.622  -0.415  0.00  0.00    +0.046 C 
ATOM     17  C   UNL     1      -5.513   1.523  -0.513  0.00  0.00    +0.046 C 
ENDBRANCH   6  13
ENDBRANCH   4   6
ENDBRANCH   3   4
ENDBRANCH   2   3
ENDBRANCH   1   2
BRANCH   1  18
ATOM     18  C   UNL     1      -5.394   2.837  -7.380  0.00  0.00    +0.001 C 
BRANCH  18  19
ATOM     19  C   UNL     1      -5.443   1.567  -8.230  0.00  0.00    +0.017 C 
BRANCH  19  20
ATOM     20  C   UNL     1      -5.546   1.946  -9.709  0.00  0.00    +0.106 C 
BRANCH  20  21
ATOM     21  N   UNL     1      -5.593   0.729 -10.523  0.00  0.00    -0.190 NA
ATOM     22  H   UNL     1      -5.157  -0.206 -10.141  0.00  0.00    +0.148 HD
BRANCH  21  23
ATOM     23  S   UNL     1      -6.073   0.810 -12.106  0.00  0.00    +0.059 S 
ATOM     24  O   UNL     1      -5.987  -0.511 -12.624  0.00  0.00    -0.153 OA
ATOM     25  O   UNL     1      -7.279   1.560 -12.127  0.00  0.00    -0.153 OA
BRANCH  23  26
ATOM     26  C   UNL     1      -4.870   1.767 -12.967  0.00  0.00    +0.111 A 
ATOM     27  C   UNL     1      -3.829   1.139 -13.625  0.00  0.00    -0.024 A 
ATOM     28  C   UNL     1      -2.887   1.890 -14.304  0.00  0.00    +0.008 A 
ATOM     29  C   UNL     1      -2.981   3.269 -14.317  0.00  0.00    -0.050 A 
ATOM     30  C   UNL     1      -4.020   3.897 -13.654  0.00  0.00    +0.008 A 
ATOM     31  C   UNL     1      -4.963   3.146 -12.979  0.00  0.00    -0.024 A 
ATOM     32  C   UNL     1      -6.095   3.831 -12.257  0.00  0.00    +0.046 C 
ATOM     33  C   UNL     1      -1.952   4.088 -15.053  0.00  0.00    +0.044 C 
ATOM     34  C   UNL     1      -3.723  -0.364 -13.607  0.00  0.00    +0.046 C 
ENDBRANCH  23  26
ENDBRANCH  21  23
ENDBRANCH  20  21
ENDBRANCH  19  20
ENDBRANCH  18  19
ENDBRANCH   1  18
TORSDOF 11
