REMARK  Name = ZINC23184527
REMARK  9 active torsions:
REMARK  status: ('A' for Active; 'I' for Inactive)
REMARK    1  A    between atoms: C_1  and  C_2
REMARK    2  A    between atoms: C_2  and  C_3
REMARK    3  A    between atoms: N_5  and  C_6
REMARK    4  A    between atoms: C_10  and  N_13
REMARK    5  A    between atoms: C_11  and  C_12
REMARK    6  A    between atoms: C_14  and  C_16
REMARK    7  A    between atoms: N_26  and  S_27
REMARK    8  A    between atoms: S_27  and  C_30
REMARK    9  A    between atoms: C_33  and  C_36
REMARK                            x       y       z     vdW  Elec       q    Type
REMARK                         _______ _______ _______ _____ _____    ______ ____
ROOT
ATOM      1  C   UNL     1       2.170   1.666   0.357  0.00  0.00    +0.170 C 
ATOM      2  C   UNL     1       3.051   1.362  -0.854  0.00  0.00    +0.065 C 
ATOM      3  C   UNL     1       2.861  -0.060  -1.312  0.00  0.00    -0.041 A 
ATOM      4  C   UNL     1       3.855  -0.620  -2.105  0.00  0.00    +0.004 A 
ATOM      5  C   UNL     1       3.737  -1.914  -2.568  0.00  0.00    +0.000 A 
ATOM      6  C   UNL     1       2.621  -2.662  -2.242  0.00  0.00    +0.000 A 
ATOM      7  C   UNL     1       1.635  -2.110  -1.452  0.00  0.00    +0.005 A 
ATOM      8  C   UNL     1       1.754  -0.809  -0.982  0.00  0.00    -0.028 A 
ATOM      9  C   UNL     1       0.644  -0.270  -0.114  0.00  0.00    +0.145 C 
ATOM     10  N   UNL     1       0.814   1.176   0.063  0.00  0.00    -0.160 NA
ENDROOT
BRANCH   1  12
ATOM     11  N   UNL     1       2.222   3.633   1.856  0.00  0.00    -0.284 N 
ATOM     12  C   UNL     1       2.134   3.153   0.600  0.00  0.00    +0.236 C 
ATOM     13  O   UNL     1       2.025   3.918  -0.335  0.00  0.00    -0.274 OA
ATOM     14  H   UNL     1       2.384   2.943   2.698  0.00  0.00    +0.155 HD
BRANCH  11  19
ATOM     15  C   UNL     1       1.461   6.831   3.513  0.00  0.00    +0.038 A 
ATOM     16  C   UNL     1       1.887   7.733   2.545  0.00  0.00    +0.024 A 
ATOM     17  C   UNL     1       2.420   7.272   1.357  0.00  0.00    +0.004 A 
ATOM     18  C   UNL     1       2.537   5.914   1.129  0.00  0.00    +0.024 A 
ATOM     19  C   UNL     1       2.108   5.008   2.090  0.00  0.00    +0.038 A 
ATOM     20  C   UNL     1       1.572   5.467   3.285  0.00  0.00    -0.008 A 
ATOM     21  C   UNL     1       1.111   4.487   4.332  0.00  0.00    +0.047 C 
BRANCH  15  24
ATOM     22  C   UNL     1       0.326   8.507   4.764  0.00  0.00    +0.217 C 
ATOM     23  O   UNL     1       0.187   9.154   3.748  0.00  0.00    -0.275 OA
ATOM     24  N   UNL     1       0.921   7.298   4.716  0.00  0.00    -0.285 N 
ATOM     25  H   UNL     1       0.983   6.680   5.624  0.00  0.00    +0.155 HD
BRANCH  22  27
ATOM     26  C   UNL     1      -0.796  10.429   5.856  0.00  0.00    +0.013 C 
ATOM     27  C   UNL     1      -0.166   9.053   6.079  0.00  0.00    +0.093 C 
ENDBRANCH  22  27
ENDBRANCH  15  24
ENDBRANCH  11  19
ENDBRANCH   1  12
BRANCH  10  28
ATOM     28  S   UNL     1      -0.468   2.216  -0.068  0.00  0.00    +0.062 S 
ATOM     29  O   UNL     1      -1.642   1.442   0.136  0.00  0.00    -0.153 OA
ATOM     30  O   UNL     1      -0.155   3.350   0.729  0.00  0.00    -0.153 OA
BRANCH  28  31
ATOM     31  C   UNL     1      -0.518   2.774  -1.739  0.00  0.00    +0.106 A 
ATOM     32  C   UNL     1      -0.062   4.039  -2.059  0.00  0.00    +0.029 A 
ATOM     33  C   UNL     1      -0.097   4.475  -3.371  0.00  0.00    +0.005 A 
ATOM     34  C   UNL     1      -0.595   3.649  -4.361  0.00  0.00    -0.050 A 
ATOM     35  C   UNL     1      -1.056   2.386  -4.040  0.00  0.00    +0.005 A 
ATOM     36  C   UNL     1      -1.018   1.948  -2.729  0.00  0.00    +0.029 A 
ATOM     37  C   UNL     1      -0.637   4.125  -5.790  0.00  0.00    +0.044 C 
ENDBRANCH  28  31
ENDBRANCH  10  28
TORSDOF 6
