REMARK  Name = ZINC36206223
REMARK  17 active torsions:
REMARK  status: ('A' for Active; 'I' for Inactive)
REMARK    1  A    between atoms: C_1  and  C_2
REMARK    2  A    between atoms: C_2  and  C_3
REMARK    3  A    between atoms: C_2  and  C_4
REMARK    4  A    between atoms: C_4  and  C_5
REMARK    5  A    between atoms: C_5  and  N_6
REMARK    6  A    between atoms: N_6  and  C_7
REMARK    7  A    between atoms: N_6  and  C_26
REMARK    8  A    between atoms: C_7  and  C_8
REMARK    9  A    between atoms: C_14  and  C_19
REMARK   10  A    between atoms: C_26  and  C_27
REMARK   11  A    between atoms: C_27  and  C_29
REMARK   12  A    between atoms: C_27  and  O_35
REMARK   13  A    between atoms: C_29  and  O_30
REMARK   14  A    between atoms: O_30  and  C_31
REMARK   15  A    between atoms: C_31  and  C_32
REMARK   16  A    between atoms: C_32  and  C_33
REMARK   17  A    between atoms: C_32  and  C_34
REMARK                            x       y       z     vdW  Elec       q    Type
REMARK                         _______ _______ _______ _____ _____    ______ ____
ROOT
ATOM      1  C   UNL     1      -4.327  -0.304  -0.141  0.00  0.00    -0.003 C 
ENDROOT
BRANCH   1   2
ATOM      2  C   UNL     1      -3.768  -0.690   1.204  0.00  0.00    +0.094 A 
ATOM      3  N   UNL     1      -4.414  -0.297   2.332  0.00  0.00    -0.312 N 
ATOM      4  H   UNL     1      -5.227   0.226   2.257  0.00  0.00    +0.170 HD
ATOM      5  C   UNL     1      -3.948  -0.621   3.553  0.00  0.00    +0.260 A 
ATOM      6  O   UNL     1      -4.540  -0.262   4.556  0.00  0.00    -0.267 OA
ATOM      7  C   UNL     1      -2.748  -1.395   3.655  0.00  0.00    +0.080 A 
ATOM      8  C   UNL     1      -2.053  -1.866   4.846  0.00  0.00    +0.004 A 
ATOM      9  C   UNL     1      -0.919  -2.592   4.695  0.00  0.00    +0.056 A 
ATOM     10  S   UNL     1      -0.721  -2.683   2.926  0.00  0.00    -0.076 S 
ATOM     11  C   UNL     1      -2.150  -1.754   2.436  0.00  0.00    +0.116 A 
ATOM     12  N   UNL     1      -2.674  -1.400   1.265  0.00  0.00    -0.229 NA
BRANCH   8  13
ATOM     13  C   UNL     1      -2.576  -1.556   6.198  0.00  0.00    -0.016 A 
ATOM     14  C   UNL     1      -2.921  -0.247   6.532  0.00  0.00    +0.010 A 
ATOM     15  C   UNL     1      -3.408   0.035   7.792  0.00  0.00    +0.020 A 
ATOM     16  C   UNL     1      -3.555  -0.978   8.723  0.00  0.00    +0.041 A 
ATOM     17  C   UNL     1      -3.214  -2.280   8.397  0.00  0.00    +0.020 A 
ATOM     18  C   UNL     1      -2.732  -2.574   7.138  0.00  0.00    +0.010 A 
ATOM     19 CL   UNL     1      -4.169  -0.616  10.306  0.00  0.00    -0.084 Cl
ENDBRANCH   8  13
ENDBRANCH   1   2
BRANCH   1  20
ATOM     20  N   UNL     1      -3.390  -0.713  -1.196  0.00  0.00    +0.386 N 
ATOM     21  H   UNL     1      -3.179  -1.694  -1.097  0.00  0.00    -0.081 HD
BRANCH  20  22
ATOM     22  C   UNL     1      -2.151   0.068  -1.080  0.00  0.00    -0.078 C 
BRANCH  22  23
ATOM     23  C   UNL     1      -2.448   1.541  -1.367  0.00  0.00    -0.016 C 
BRANCH  23  25
ATOM     24  C   UNL     1      -0.105   1.976  -2.118  0.00  0.00    +0.007 C 
ATOM     25  C   UNL     1      -1.189   2.374  -1.114  0.00  0.00    -0.019 C 
ATOM     26  C   UNL     1      -1.518   3.859  -1.280  0.00  0.00    +0.007 C 
ENDBRANCH  23  25
ENDBRANCH  22  23
ENDBRANCH  20  22
BRANCH  20  27
ATOM     27  C   UNL     1      -3.998  -0.473  -2.512  0.00  0.00    -0.044 C 
BRANCH  27  28
ATOM     28  C   UNL     1      -3.102  -1.061  -3.603  0.00  0.00    +0.124 C 
BRANCH  28  29
ATOM     29  O   UNL     1      -1.874  -0.332  -3.655  0.00  0.00    -0.391 OA
ATOM     30  H   UNL     1      -1.983   0.609  -3.851  0.00  0.00    +0.210 HD
ENDBRANCH  28  29
BRANCH  28  31
ATOM     31  C   UNL     1      -3.812  -0.961  -4.955  0.00  0.00    +0.189 C 
BRANCH  31  32
ATOM     32  O   UNL     1      -3.026  -1.613  -5.955  0.00  0.00    -0.377 OA
BRANCH  32  33
ATOM     33  C   UNL     1      -3.603  -1.577  -7.262  0.00  0.00    +0.163 C 
BRANCH  33  34
ATOM     34  C   UNL     1      -2.682  -2.302  -8.246  0.00  0.00    +0.009 C 
ATOM     35  C   UNL     1      -2.607  -3.785  -7.877  0.00  0.00    +0.009 C 
ATOM     36  C   UNL     1      -3.236  -2.156  -9.664  0.00  0.00    +0.009 C 
ENDBRANCH  33  34
ENDBRANCH  32  33
ENDBRANCH  31  32
ENDBRANCH  28  31
ENDBRANCH  27  28
ENDBRANCH  20  27
ENDBRANCH   1  20
TORSDOF 13
