REMARK  Name = ZINC39943833
REMARK  5 active torsions:
REMARK  status: ('A' for Active; 'I' for Inactive)
REMARK    1  A    between atoms: C_1  and  C_2
REMARK    2  A    between atoms: C_2  and  C_23
REMARK    3  A    between atoms: N_3  and  N_4
REMARK    4  A    between atoms: C_5  and  C_7
REMARK    5  A    between atoms: C_9  and  C_13
REMARK                            x       y       z     vdW  Elec       q    Type
REMARK                         _______ _______ _______ _____ _____    ______ ____
ROOT
ATOM      1  C   UNL     1       0.046   0.086   4.786  0.00  0.00    +0.149 A 
ATOM      2  C   UNL     1       0.072  -0.487   6.076  0.00  0.00    +0.062 A 
ATOM      3  C   UNL     1       0.064   0.569   6.944  0.00  0.00    +0.066 A 
ATOM      4  N   UNL     1       0.035   1.702   6.186  0.00  0.00    -0.276 N 
ATOM      5  H   UNL     1       0.023   2.607   6.537  0.00  0.00    +0.189 HD
ATOM      6  N   UNL     1       0.030   1.396   4.939  0.00  0.00    -0.169 NA
ENDROOT
BRANCH   3   7
ATOM      7  C   UNL     1       0.083   0.496   8.422  0.00  0.00    +0.000 A 
ATOM      8  C   UNL     1       0.118  -0.757   9.058  0.00  0.00    +0.010 A 
ATOM      9  C   UNL     1       0.136  -0.850  10.412  0.00  0.00    +0.009 A 
ATOM     10  C   UNL     1       0.119   0.316  11.198  0.00  0.00    -0.018 A 
ATOM     11  C   UNL     1       0.137   0.246  12.601  0.00  0.00    +0.008 A 
ATOM     12  C   UNL     1       0.121   1.392  13.334  0.00  0.00    +0.001 A 
ATOM     13  C   UNL     1       0.085   2.640  12.715  0.00  0.00    +0.001 A 
ATOM     14  C   UNL     1       0.067   2.749  11.359  0.00  0.00    +0.008 A 
ATOM     15  C   UNL     1       0.083   1.586  10.568  0.00  0.00    -0.017 A 
ATOM     16  C   UNL     1       0.071   1.662   9.166  0.00  0.00    +0.018 A 
ENDBRANCH   3   7
BRANCH   1  18
ATOM     17  N   UNL     1       0.024   0.035   2.339  0.00  0.00    -0.201 N 
ATOM     18  C   UNL     1       0.044  -0.645   3.503  0.00  0.00    +0.283 C 
ATOM     19  O   UNL     1       0.060  -1.861   3.496  0.00  0.00    -0.267 OA
ATOM     20  H   UNL     1       0.011   1.005   2.345  0.00  0.00    +0.178 HD
BRANCH  17  23
ATOM     21  C   UNL     1      -0.018   1.503   0.010  0.00  0.00    +0.068 C 
ATOM     22  C   UNL     1       0.002  -0.004   0.002  0.00  0.00    +0.065 C 
ATOM     23  N   UNL     1       0.022  -0.659   1.122  0.00  0.00    -0.184 NA
BRANCH  22  24
ATOM     24  C   UNL     1      -0.000  -0.734  -1.279  0.00  0.00    +0.016 A 
ATOM     25  C   UNL     1      -0.015  -0.033  -2.487  0.00  0.00    +0.011 A 
ATOM     26  C   UNL     1      -0.017  -0.722  -3.681  0.00  0.00    +0.001 A 
ATOM     27  C   UNL     1      -0.003  -2.106  -3.686  0.00  0.00    +0.001 A 
ATOM     28  C   UNL     1       0.012  -2.809  -2.494  0.00  0.00    +0.020 A 
ATOM     29  C   UNL     1       0.019  -2.132  -1.291  0.00  0.00    +0.050 A 
ATOM     30 CL   UNL     1       0.044  -3.015   0.204  0.00  0.00    -0.083 Cl
ENDBRANCH  22  24
ENDBRANCH  17  23
ENDBRANCH   1  18
TORSDOF 4
