REMARK  Name = ZINC62766917
REMARK  7 active torsions:
REMARK  status: ('A' for Active; 'I' for Inactive)
REMARK    1  A    between atoms: C_1  and  C_2
REMARK    2  A    between atoms: C_2  and  C_3
REMARK    3  A    between atoms: C_3  and  C_4
REMARK    4  A    between atoms: C_8  and  C_23
REMARK    5  A    between atoms: C_10  and  S_13
REMARK    6  A    between atoms: S_13  and  C_14
REMARK    7  A    between atoms: C_20  and  N_22
REMARK                            x       y       z     vdW  Elec       q    Type
REMARK                         _______ _______ _______ _____ _____    ______ ____
ROOT
ATOM      1  C   UNL     1      -0.653  -3.429   0.810  0.00  0.00    -0.010 C 
ATOM      2  C   UNL     1      -1.328  -4.394   1.788  0.00  0.00    +0.004 C 
ATOM      3  C   UNL     1      -1.995  -3.598   2.912  0.00  0.00    +0.016 C 
ATOM      4  C   UNL     1      -3.045  -2.658   2.316  0.00  0.00    +0.115 C 
ATOM      5  C   UNL     1      -2.371  -1.693   1.339  0.00  0.00    +0.068 C 
ATOM      6  C   UNL     1      -1.704  -2.489   0.215  0.00  0.00    +0.019 C 
ENDROOT
BRANCH   4   7
ATOM      7  C   UNL     1      -3.702  -1.874   3.423  0.00  0.00    +0.360 C 
ATOM      8  O   UNL     1      -3.024  -1.194   4.174  0.00  0.00    -0.246 OA
ATOM      9  O   UNL     1      -4.912  -1.920   3.568  0.00  0.00    -0.246 OA
ENDBRANCH   4   7
BRANCH   1  10
ATOM     10  C   UNL     1       0.404  -2.609   1.552  0.00  0.00    +0.003 C 
BRANCH  10  12
ATOM     11  C   UNL     1       2.577  -2.715   2.781  0.00  0.00    +0.004 C 
ATOM     12  C   UNL     1       1.519  -3.535   2.040  0.00  0.00    -0.003 C 
ENDBRANCH  10  12
ENDBRANCH   1  10
BRANCH   5  13
ATOM     13  S   UNL     1      -3.616  -0.579   0.633  0.00  0.00    -0.084 S 
BRANCH  13  14
ATOM     14  C   UNL     1      -2.668   0.613  -0.253  0.00  0.00    +0.171 A 
ATOM     15  N   UNL     1      -3.310   1.578  -0.969  0.00  0.00    -0.302 N 
ATOM     16  H   UNL     1      -4.280   1.603  -0.986  0.00  0.00    +0.171 HD
ATOM     17  C   UNL     1      -2.600   2.499  -1.653  0.00  0.00    +0.254 A 
ATOM     18  O   UNL     1      -3.168   3.368  -2.297  0.00  0.00    -0.268 OA
ATOM     19  C   UNL     1      -1.204   2.442  -1.613  0.00  0.00    +0.113 A 
ATOM     20  C   UNL     1      -0.598   1.439  -0.869  0.00  0.00    +0.124 A 
ATOM     21  N   UNL     1      -1.353   0.556  -0.205  0.00  0.00    -0.209 NA
BRANCH  20  22
ATOM     22  N   UNL     1       0.779   1.357  -0.809  0.00  0.00    -0.343 N 
ATOM     23  H   UNL     1       1.325   2.000  -1.287  0.00  0.00    +0.144 HD
ATOM     24  H   UNL     1       1.200   0.655  -0.288  0.00  0.00    +0.144 HD
ENDBRANCH  20  22
ENDBRANCH  13  14
ENDBRANCH   5  13
TORSDOF 6
