REMARK  Name = ZINC21365705
REMARK  7 active torsions:
REMARK  status: ('A' for Active; 'I' for Inactive)
REMARK    1  A    between atoms: C_1  and  C_2
REMARK    2  A    between atoms: C_6  and  N_8
REMARK    3  A    between atoms: C_9  and  C_28
REMARK    4  A    between atoms: C_12  and  S_13
REMARK    5  A    between atoms: S_13  and  C_14
REMARK    6  A    between atoms: C_14  and  C_15
REMARK    7  A    between atoms: C_20  and  C_22
REMARK                            x       y       z     vdW  Elec       q    Type
REMARK                         _______ _______ _______ _____ _____    ______ ____
ROOT
ATOM      1  N   UNL     1       4.060  -8.844  -0.093  0.00  0.00    -0.270 N 
ATOM      2  C   UNL     1       2.744  -9.254  -0.078  0.00  0.00    +0.171 A 
ATOM      3  N   UNL     1       2.004  -8.169  -0.065  0.00  0.00    -0.128 NA
ATOM      4  N   UNL     1       2.753  -7.125  -0.066  0.00  0.00    -0.122 NA
ATOM      5  C   UNL     1       4.018  -7.474  -0.079  0.00  0.00    +0.197 A 
ENDROOT
BRANCH   2   6
ATOM      6  C   UNL     1       2.259 -10.648  -0.081  0.00  0.00    +0.045 A 
ATOM      7  C   UNL     1       3.021 -11.772  -0.101  0.00  0.00    +0.095 A 
ATOM      8  N   UNL     1       2.215 -12.874  -0.094  0.00  0.00    -0.360 N 
ATOM      9  H   UNL     1       2.660 -13.880  -0.100  0.00  0.00    +0.165 HD
ATOM     10  C   UNL     1       0.890 -12.495  -0.079  0.00  0.00    +0.047 A 
ATOM     11  C   UNL     1       0.854 -11.091  -0.070  0.00  0.00    +0.010 A 
ATOM     12  C   UNL     1      -0.369 -10.424  -0.054  0.00  0.00    +0.011 A 
ATOM     13  C   UNL     1      -1.541 -11.149  -0.047  0.00  0.00    +0.001 A 
ATOM     14  C   UNL     1      -1.507 -12.536  -0.056  0.00  0.00    +0.002 A 
ATOM     15  C   UNL     1      -0.304 -13.209  -0.071  0.00  0.00    +0.026 A 
ENDBRANCH   2   6
BRANCH   1  21
ATOM     16  C   UNL     1       8.150 -10.462   2.106  0.00  0.00    +0.044 C 
ATOM     17  C   UNL     1       7.200 -10.461   0.937  0.00  0.00    -0.048 A 
ATOM     18  C   UNL     1       7.453 -11.264  -0.161  0.00  0.00    +0.003 A 
ATOM     19  C   UNL     1       6.584 -11.265  -1.235  0.00  0.00    +0.002 A 
ATOM     20  C   UNL     1       5.456 -10.468  -1.214  0.00  0.00    +0.026 A 
ATOM     21  C   UNL     1       5.201  -9.657  -0.116  0.00  0.00    +0.051 A 
ATOM     22  C   UNL     1       6.076  -9.658   0.962  0.00  0.00    +0.029 A 
ENDBRANCH   1  21
BRANCH   5  23
ATOM     23  S   UNL     1       5.403  -6.386  -0.087  0.00  0.00    -0.076 S 
BRANCH  23  24
ATOM     24  C   UNL     1       4.549  -4.790  -0.069  0.00  0.00    +0.175 C 
BRANCH  24  25
ATOM     25  C   UNL     1       5.565  -3.676  -0.073  0.00  0.00    +0.245 C 
ATOM     26  O   UNL     1       6.750  -3.936  -0.086  0.00  0.00    -0.273 OA
ATOM     27  N   UNL     1       5.157  -2.392  -0.062  0.00  0.00    -0.192 N 
ATOM     28  C   UNL     1       6.039  -1.214  -0.064  0.00  0.00    +0.141 C 
ATOM     29  C   UNL     1       5.056  -0.027  -0.047  0.00  0.00    +0.078 C 
ATOM     30  C   UNL     1       3.693  -0.682  -0.037  0.00  0.00    +0.068 C 
ATOM     31  N   UNL     1       3.832  -1.963  -0.041  0.00  0.00    -0.181 NA
BRANCH  30  32
ATOM     32  C   UNL     1       2.404   0.034  -0.021  0.00  0.00    -0.002 A 
ATOM     33  C   UNL     1       1.204  -0.681  -0.013  0.00  0.00    +0.010 A 
ATOM     34  C   UNL     1       0.002  -0.004   0.002  0.00  0.00    +0.001 A 
ATOM     35  C   UNL     1      -0.017   1.379   0.010  0.00  0.00    +0.000 A 
ATOM     36  C   UNL     1       1.168   2.094   0.002  0.00  0.00    +0.001 A 
ATOM     37  C   UNL     1       2.377   1.431  -0.013  0.00  0.00    +0.010 A 
ENDBRANCH  30  32
ENDBRANCH  24  25
ENDBRANCH  23  24
ENDBRANCH   5  23
TORSDOF 6
