REMARK  Name = ZINC39668896
REMARK  6 active torsions:
REMARK  status: ('A' for Active; 'I' for Inactive)
REMARK    1  A    between atoms: C_4  and  C_7
REMARK    2  A    between atoms: C_7  and  C_8
REMARK    3  A    between atoms: C_8  and  C_9
REMARK    4  A    between atoms: C_13  and  C_22
REMARK    5  A    between atoms: N_24  and  C_25
REMARK    6  A    between atoms: C_25  and  C_26
REMARK                            x       y       z     vdW  Elec       q    Type
REMARK                         _______ _______ _______ _____ _____    ______ ____
ROOT
ATOM      1  C   UNL     1       5.640  -1.745   1.345  0.00  0.00    +0.216 C 
ATOM      2  O   UNL     1       6.154  -2.096   0.303  0.00  0.00    -0.276 OA
ATOM      3  N   UNL     1       6.196  -2.095   2.522  0.00  0.00    -0.300 N 
ATOM      4  C   UNL     1       5.715  -1.769   3.885  0.00  0.00    +0.121 C 
ATOM      5  C   UNL     1       5.966  -3.055   4.705  0.00  0.00    +0.100 C 
ATOM      6  C   UNL     1       7.091  -3.786   3.953  0.00  0.00    -0.004 C 
ATOM      7  C   UNL     1       7.422  -2.897   2.745  0.00  0.00    +0.115 C 
ATOM      8  C   UNL     1       6.607  -5.153   3.478  0.00  0.00    -0.010 C 
ATOM      9  C   UNL     1       7.760  -5.884   2.783  0.00  0.00    -0.082 C 
ATOM     10  N   UNL     1       8.880  -6.037   3.720  0.00  0.00    +0.379 N 
ATOM     11  C   UNL     1       9.399  -4.718   4.100  0.00  0.00    -0.082 C 
ATOM     12  C   UNL     1       8.316  -3.937   4.850  0.00  0.00    -0.010 C 
ATOM     13  H   UNL     1       8.562  -6.522   4.545  0.00  0.00    -0.086 HD
ATOM     14  H   UNL     1       9.613  -6.572   3.280  0.00  0.00    -0.086 HD
ENDROOT
BRANCH   5  15
ATOM     15  C   UNL     1       6.407  -2.707   6.104  0.00  0.00    +0.218 C 
ATOM     16  O   UNL     1       7.036  -1.690   6.306  0.00  0.00    -0.275 OA
ATOM     17  N   UNL     1       6.102  -3.526   7.129  0.00  0.00    -0.312 N 
ATOM     18  H   UNL     1       5.599  -4.340   6.967  0.00  0.00    +0.149 HD
BRANCH  17  19
ATOM     19  C   UNL     1       6.531  -3.188   8.489  0.00  0.00    +0.140 C 
BRANCH  19  20
ATOM     20  C   UNL     1       6.060  -4.276   9.457  0.00  0.00    +0.165 C 
ATOM     21  C   UNL     1       6.387  -3.862  10.868  0.00  0.00    -0.014 A 
ATOM     22  C   UNL     1       6.140  -2.554  11.253  0.00  0.00    +0.006 A 
ATOM     23  C   UNL     1       6.423  -2.141  12.540  0.00  0.00    +0.000 A 
ATOM     24  C   UNL     1       6.954  -3.036  13.450  0.00  0.00    +0.000 A 
ATOM     25  C   UNL     1       7.202  -4.340  13.067  0.00  0.00    +0.004 A 
ATOM     26  C   UNL     1       6.921  -4.754  11.775  0.00  0.00    -0.040 A 
ATOM     27  C   UNL     1       7.217  -6.181  11.390  0.00  0.00    +0.063 C 
ATOM     28  C   UNL     1       6.468  -6.536  10.104  0.00  0.00    +0.165 C 
ATOM     29  O   UNL     1       6.713  -5.505   9.142  0.00  0.00    -0.370 OA
ENDBRANCH  19  20
ENDBRANCH  17  19
ENDBRANCH   5  15
BRANCH   1  30
ATOM     30  C   UNL     1       4.381  -0.918   1.322  0.00  0.00    +0.100 C 
BRANCH  30  31
ATOM     31  C   UNL     1       3.964  -0.663  -0.128  0.00  0.00    +0.044 C 
BRANCH  31  35
ATOM     32  C   UNL     1       0.394   1.681  -0.195  0.00  0.00    +0.000 A 
ATOM     33  C   UNL     1       1.629   2.303  -0.196  0.00  0.00    +0.000 A 
ATOM     34  C   UNL     1       2.784   1.544  -0.174  0.00  0.00    +0.003 A 
ATOM     35  C   UNL     1       2.704   0.164  -0.151  0.00  0.00    -0.047 A 
ATOM     36  C   UNL     1       1.470  -0.457  -0.149  0.00  0.00    +0.003 A 
ATOM     37  C   UNL     1       0.314   0.301  -0.172  0.00  0.00    +0.000 A 
ENDBRANCH  31  35
ENDBRANCH  30  31
ENDBRANCH   1  30
TORSDOF 6
