REMARK  Name = ZINC44525955
REMARK  7 active torsions:
REMARK  status: ('A' for Active; 'I' for Inactive)
REMARK    1  A    between atoms: N_4  and  C_7
REMARK    2  A    between atoms: C_7  and  C_8
REMARK    3  A    between atoms: C_8  and  N_9
REMARK    4  A    between atoms: C_10  and  C_12
REMARK    5  A    between atoms: C_12  and  C_13
REMARK    6  A    between atoms: C_13  and  N_14
REMARK    7  A    between atoms: N_17  and  C_18
REMARK                            x       y       z     vdW  Elec       q    Type
REMARK                         _______ _______ _______ _____ _____    ______ ____
ROOT
ATOM      1  N   UNL     1       5.714  -6.492  -5.537  0.00  0.00    -0.299 N 
ATOM      2  C   UNL     1       5.944  -7.816  -5.630  0.00  0.00    +0.300 C 
ATOM      3  O   UNL     1       5.515  -8.570  -4.778  0.00  0.00    -0.253 OA
ATOM      4  N   UNL     1       6.650  -8.306  -6.669  0.00  0.00    -0.294 N 
ATOM      5  H   UNL     1       6.056  -5.891  -6.217  0.00  0.00    +0.150 HD
ATOM      6  H   UNL     1       6.992  -7.705  -7.349  0.00  0.00    +0.151 HD
ENDROOT
BRANCH   4   7
ATOM      7  C   UNL     1       6.900  -9.746  -6.771  0.00  0.00    +0.037 C 
ATOM      8  C   UNL     1       7.678 -10.217  -5.540  0.00  0.00    +0.029 C 
ATOM      9  C   UNL     1       7.940 -11.720  -5.647  0.00  0.00    -0.008 C 
ATOM     10  C   UNL     1       8.757 -12.008  -6.908  0.00  0.00    +0.007 C 
ATOM     11  C   UNL     1       7.978 -11.537  -8.138  0.00  0.00    -0.008 C 
ATOM     12  C   UNL     1       7.717 -10.034  -8.032  0.00  0.00    +0.029 C 
ATOM     13  C   UNL     1       6.644 -12.283  -8.214  0.00  0.00    +0.007 C 
ATOM     14  C   UNL     1       5.827 -11.995  -6.952  0.00  0.00    -0.008 C 
ATOM     15  C   UNL     1       6.606 -12.466  -5.722  0.00  0.00    +0.007 C 
ATOM     16  C   UNL     1       5.566 -10.491  -6.846  0.00  0.00    +0.029 C 
ENDBRANCH   4   7
BRANCH   1  17
ATOM     17  C   UNL     1       4.947  -5.960  -4.407  0.00  0.00    +0.115 C 
BRANCH  17  18
ATOM     18  C   UNL     1       4.832  -4.440  -4.540  0.00  0.00    +0.114 C 
BRANCH  18  20
ATOM     19  N   UNL     1       3.812  -2.568  -3.285  0.00  0.00    -0.317 N 
ATOM     20  C   UNL     1       4.043  -3.893  -3.379  0.00  0.00    +0.214 C 
ATOM     21  O   UNL     1       3.615  -4.644  -2.529  0.00  0.00    -0.276 OA
ATOM     22  H   UNL     1       4.155  -1.967  -3.966  0.00  0.00    +0.149 HD
BRANCH  19  23
ATOM     23  C   UNL     1       3.045  -2.036  -2.156  0.00  0.00    +0.085 C 
BRANCH  23  24
ATOM     24  C   UNL     1       2.930  -0.516  -2.289  0.00  0.00    -0.060 C 
BRANCH  24  28
ATOM     25  C   UNL     1      -0.019   1.527   0.010  0.00  0.00    -0.004 C 
ATOM     26  C   UNL     1       1.422   2.047  -0.001  0.00  0.00    -0.019 C 
ATOM     27  C   UNL     1       2.152   1.484  -1.221  0.00  0.00    -0.079 C 
ATOM     28  N   UNL     1       2.161   0.018  -1.157  0.00  0.00    +0.381 N 
ATOM     29  C   UNL     1       0.785  -0.491  -1.219  0.00  0.00    -0.079 C 
ATOM     30  C   UNL     1       0.002  -0.004   0.002  0.00  0.00    -0.019 C 
ATOM     31  H   UNL     1       2.589  -0.278  -0.293  0.00  0.00    -0.082 HD
ENDBRANCH  24  28
ENDBRANCH  23  24
ENDBRANCH  19  23
ENDBRANCH  18  20
ENDBRANCH  17  18
ENDBRANCH   1  17
TORSDOF 7
