REMARK  Name = ZINC32573246
REMARK  8 active torsions:
REMARK  status: ('A' for Active; 'I' for Inactive)
REMARK    1  A    between atoms: C_1  and  C_2
REMARK    2  A    between atoms: C_2  and  C_3
REMARK    3  A    between atoms: C_2  and  C_4
REMARK    4  A    between atoms: C_8  and  C_10
REMARK    5  A    between atoms: C_15  and  O_16
REMARK    6  A    between atoms: O_16  and  C_17
REMARK    7  A    between atoms: C_17  and  C_18
REMARK    8  A    between atoms: N_21  and  C_23
REMARK                            x       y       z     vdW  Elec       q    Type
REMARK                         _______ _______ _______ _____ _____    ______ ____
ROOT
ATOM      1  C   UNL     1       0.731  -0.503   1.223  0.00  0.00    +0.093 A 
ATOM      2  C   UNL     1       0.186  -1.336   2.225  0.00  0.00    +0.131 A 
ATOM      3  C   UNL     1       1.190  -1.556   3.162  0.00  0.00    +0.162 A 
ATOM      4  N   UNL     1       0.650  -2.366   4.130  0.00  0.00    -0.323 N 
ATOM      5  C   UNL     1      -0.648  -2.621   3.773  0.00  0.00    +0.144 A 
ATOM      6  N   UNL     1      -0.915  -2.009   2.645  0.00  0.00    -0.224 NA
ATOM      7  N   UNL     1       2.293  -0.879   2.735  0.00  0.00    -0.214 N 
ATOM      8  N   UNL     1       1.973  -0.243   1.528  0.00  0.00    -0.167 NA
ATOM      9  H   UNL     1       1.103  -2.697   4.921  0.00  0.00    +0.169 HD
ENDROOT
BRANCH   5  10
ATOM     10  C   UNL     1      -1.598  -3.455   4.539  0.00  0.00    +0.059 A 
ATOM     11  C   UNL     1      -1.199  -4.054   5.734  0.00  0.00    +0.015 A 
ATOM     12  C   UNL     1      -2.090  -4.832   6.444  0.00  0.00    +0.001 A 
ATOM     13  C   UNL     1      -3.379  -5.021   5.976  0.00  0.00    +0.004 A 
ATOM     14  C   UNL     1      -3.785  -4.433   4.793  0.00  0.00    +0.046 A 
ATOM     15  C   UNL     1      -2.904  -3.643   4.072  0.00  0.00    +0.132 A 
BRANCH  15  16
ATOM     16  O   UNL     1      -3.304  -3.060   2.913  0.00  0.00    -0.482 OA
BRANCH  16  17
ATOM     17  C   UNL     1      -4.651  -3.297   2.498  0.00  0.00    +0.324 C 
BRANCH  17  18
ATOM     18  C   UNL     1      -4.912  -2.575   1.201  0.00  0.00    +0.248 C 
ATOM     19  O   UNL     1      -4.032  -1.922   0.683  0.00  0.00    -0.272 OA
ATOM     20  N   UNL     1      -6.125  -2.655   0.618  0.00  0.00    -0.327 N 
ATOM     21  H   UNL     1      -6.829  -3.177   1.032  0.00  0.00    +0.145 HD
ATOM     22  H   UNL     1      -6.293  -2.190  -0.217  0.00  0.00    +0.145 HD
ENDBRANCH  17  18
ENDBRANCH  16  17
ENDBRANCH  15  16
ENDBRANCH   5  10
BRANCH   7  23
ATOM     23  C   UNL     1       3.532  -0.831   3.386  0.00  0.00    +0.068 A 
ATOM     24  C   UNL     1       3.590  -0.835   4.773  0.00  0.00    +0.028 A 
ATOM     25  C   UNL     1       4.813  -0.788   5.413  0.00  0.00    +0.002 A 
ATOM     26  C   UNL     1       5.980  -0.735   4.673  0.00  0.00    +0.000 A 
ATOM     27  C   UNL     1       5.926  -0.731   3.291  0.00  0.00    +0.002 A 
ATOM     28  C   UNL     1       4.706  -0.784   2.646  0.00  0.00    +0.028 A 
ENDBRANCH   7  23
BRANCH   1  30
ATOM     29  C   UNL     1      -0.019   1.526   0.010  0.00  0.00    +0.014 C 
ATOM     30  C   UNL     1       0.002  -0.004   0.002  0.00  0.00    +0.036 C 
ATOM     31  C   UNL     1       0.718  -0.497  -1.257  0.00  0.00    +0.014 C 
ENDBRANCH   1  30
TORSDOF 6
