REMARK  Name = ZINC51091070
REMARK  4 active torsions:
REMARK  status: ('A' for Active; 'I' for Inactive)
REMARK    1  A    between atoms: C_2  and  C_13
REMARK    2  A    between atoms: C_3  and  N_10
REMARK    3  A    between atoms: C_6  and  N_7
REMARK    4  A    between atoms: N_7  and  N_8
REMARK                            x       y       z     vdW  Elec       q    Type
REMARK                         _______ _______ _______ _____ _____    ______ ____
ROOT
ATOM      1  C   UNL     1      -0.086   1.238  -0.052  0.00  0.00    +0.042 A 
ATOM      2  C   UNL     1       1.030   2.078  -0.096  0.00  0.00    +0.069 A 
ATOM      3  C   UNL     1       2.313   1.530  -0.048  0.00  0.00    +0.141 A 
ATOM      4  C   UNL     1       2.477   0.163   0.040  0.00  0.00    +0.073 A 
ATOM      5  C   UNL     1       1.372  -0.670   0.082  0.00  0.00    +0.148 A 
ATOM      6  C   UNL     1       0.088  -0.132   0.037  0.00  0.00    +0.077 A 
ATOM      7  F   UNL     1       1.540  -2.008   0.168  0.00  0.00    -0.203 F 
ENDROOT
BRANCH   2   8
ATOM      8  C   UNL     1       0.852   3.541  -0.191  0.00  0.00    +0.252 C 
ATOM      9  O   UNL     1       1.816   4.277  -0.109  0.00  0.00    -0.270 OA
ATOM     10  N   UNL     1      -0.379   4.060  -0.369  0.00  0.00    -0.261 N 
ATOM     11  C   UNL     1      -0.546   5.436  -0.459  0.00  0.00    +0.166 A 
ATOM     12  N   UNL     1       0.372   6.377  -0.399  0.00  0.00    -0.232 NA
ATOM     13  C   UNL     1       0.050   7.653  -0.503  0.00  0.00    +0.136 A 
ATOM     14  C   UNL     1      -1.264   7.944  -0.673  0.00  0.00    +0.076 A 
ATOM     15  S   UNL     1      -1.971   6.304  -0.678  0.00  0.00    -0.045 S 
ATOM     16 BR   UNL     1      -2.113   9.624  -0.859  0.00  0.00    -0.041 Br
ATOM     17  H   UNL     1      -1.148   3.473  -0.434  0.00  0.00    +0.157 HD
ENDBRANCH   2   8
BRANCH   3  18
ATOM     18  N   UNL     1       3.498   2.416  -0.093  0.00  0.00    +0.057 N 
ATOM     19  O   UNL     1       3.594   3.252  -0.961  0.00  0.00    -0.126 OA
ATOM     20  O   UNL     1       4.369   2.303   0.737  0.00  0.00    -0.126 OA
ENDBRANCH   3  18
BRANCH   6  21
ATOM     21  N   UNL     1      -1.026  -0.977   0.080  0.00  0.00    -0.280 N 
ATOM     22  H   UNL     1      -0.904  -1.937   0.143  0.00  0.00    +0.166 HD
BRANCH  21  23
ATOM     23  N   UNL     1      -2.285  -0.450   0.035  0.00  0.00    -0.256 NA
ATOM     24  H   UNL     1      -2.984  -1.177   0.075  0.00  0.00    +0.140 HD
ATOM     25  H   UNL     1      -2.422   0.224   0.774  0.00  0.00    +0.140 HD
ENDBRANCH  21  23
ENDBRANCH   6  21
TORSDOF 4
