REMARK  Name = ZINC02319542
REMARK  10 active torsions:
REMARK  status: ('A' for Active; 'I' for Inactive)
REMARK    1  A    between atoms: C_1  and  C_2
REMARK    2  A    between atoms: C_2  and  C_3
REMARK    3  A    between atoms: C_3  and  C_4
REMARK    4  A    between atoms: C_4  and  C_5
REMARK    5  A    between atoms: C_5  and  C_6
REMARK    6  A    between atoms: C_6  and  C_7
REMARK    7  A    between atoms: C_12  and  O_13
REMARK    8  A    between atoms: C_15  and  N_29
REMARK    9  A    between atoms: C_16  and  C_27
REMARK   10  A    between atoms: C_17  and  C_19
REMARK                            x       y       z     vdW  Elec       q    Type
REMARK                         _______ _______ _______ _____ _____    ______ ____
ROOT
ATOM      1  C   UNL     1       1.176   1.780   0.000  0.00  0.00    -0.005 A 
ATOM      2  C   UNL     1      -0.013   1.076   0.008  0.00  0.00    +0.015 A 
ATOM      3  C   UNL     1      -1.221   1.748   0.017  0.00  0.00    +0.008 A 
ATOM      4  C   UNL     1      -1.243   3.135   0.031  0.00  0.00    +0.138 A 
ATOM      5  C   UNL     1      -0.050   3.844   0.023  0.00  0.00    +0.092 A 
ATOM      6  C   UNL     1       1.160   3.167   0.008  0.00  0.00    +0.124 A 
ATOM      7  O   UNL     1      -2.418   3.812   0.046  0.00  0.00    -0.441 OA
ATOM      8  C   UNL     1      -3.544   3.191   0.437  0.00  0.00    +0.199 C 
ATOM      9  C   UNL     1      -3.649   1.841   0.454  0.00  0.00    +0.098 C 
ATOM     10  C   UNL     1      -2.506   0.963   0.032  0.00  0.00    +0.098 C 
ENDROOT
BRANCH  10  11
ATOM     11  C   UNL     1      -2.772   0.426  -1.351  0.00  0.00    -0.032 A 
ATOM     12  C   UNL     1      -2.939   1.299  -2.410  0.00  0.00    +0.007 A 
ATOM     13  C   UNL     1      -3.179   0.809  -3.680  0.00  0.00    +0.041 A 
ATOM     14  C   UNL     1      -3.261  -0.556  -3.891  0.00  0.00    +0.158 A 
ATOM     15  C   UNL     1      -3.098  -1.431  -2.828  0.00  0.00    +0.159 A 
ATOM     16  C   UNL     1      -2.853  -0.938  -1.558  0.00  0.00    +0.046 A 
ATOM     17  F   UNL     1      -3.178  -2.765  -3.031  0.00  0.00    -0.202 F 
ATOM     18  F   UNL     1      -3.501  -1.036  -5.131  0.00  0.00    -0.202 F 
ENDBRANCH  10  11
BRANCH   8  19
ATOM     19  N   UNL     1      -4.618   3.948   0.832  0.00  0.00    -0.328 N 
ATOM     20  H   UNL     1      -4.558   4.917   0.826  0.00  0.00    +0.145 HD
ATOM     21  H   UNL     1      -5.438   3.515   1.117  0.00  0.00    +0.145 HD
ENDBRANCH   8  19
BRANCH   6  22
ATOM     22  O   UNL     1       2.328   3.862   0.001  0.00  0.00    -0.506 OA
ATOM     23  H   UNL     1       2.658   4.067  -0.884  0.00  0.00    +0.292 HD
ENDBRANCH   6  22
BRANCH   9  24
ATOM     24  C   UNL     1      -4.876   1.239   0.882  0.00  0.00    +0.101 C 
ATOM     25  N   UNL     1      -5.849   0.761   1.222  0.00  0.00    -0.191 NA
ENDBRANCH   9  24
BRANCH   1  26
ATOM     26  C   UNL     1       2.489   1.042  -0.017  0.00  0.00    +0.039 C 
BRANCH  26  27
ATOM     27  C   UNL     1       3.043   1.018  -1.443  0.00  0.00    +0.005 C 
BRANCH  27  28
ATOM     28  C   UNL     1       4.376   0.268  -1.460  0.00  0.00    +0.000 C 
BRANCH  28  29
ATOM     29  C   UNL     1       4.930   0.245  -2.886  0.00  0.00    -0.000 C 
BRANCH  29  31
ATOM     30  C   UNL     1       6.817  -0.528  -4.330  0.00  0.00    +0.004 C 
ATOM     31  C   UNL     1       6.263  -0.505  -2.904  0.00  0.00    -0.003 C 
ENDBRANCH  29  31
ENDBRANCH  28  29
ENDBRANCH  27  28
ENDBRANCH  26  27
ENDBRANCH   1  26
TORSDOF 9
