REMARK  Name = ZINC02136680
REMARK  9 active torsions:
REMARK  status: ('A' for Active; 'I' for Inactive)
REMARK    1  A    between atoms: C_1  and  C_2
REMARK    2  A    between atoms: C_2  and  C_3
REMARK    3  A    between atoms: C_17  and  C_19
REMARK    4  A    between atoms: C_19  and  C_20
REMARK    5  A    between atoms: C_20  and  C_21
REMARK    6  A    between atoms: N_26  and  C_29
REMARK    7  A    between atoms: C_29  and  C_30
REMARK    8  A    between atoms: C_35  and  O_36
REMARK    9  A    between atoms: O_36  and  C_37
REMARK                            x       y       z     vdW  Elec       q    Type
REMARK                         _______ _______ _______ _____ _____    ______ ____
ROOT
ATOM      1  C   UNL     1       3.782   2.117   5.046  0.00  0.00    -0.026 A 
ATOM      2  C   UNL     1       3.229   2.384   6.282  0.00  0.00    +0.005 A 
ATOM      3  C   UNL     1       1.894   2.726   6.390  0.00  0.00    +0.001 A 
ATOM      4  C   UNL     1       1.108   2.802   5.254  0.00  0.00    +0.004 A 
ATOM      5  C   UNL     1       1.655   2.536   4.019  0.00  0.00    -0.027 A 
ATOM      6  C   UNL     1       2.998   2.190   3.897  0.00  0.00    +0.039 A 
ATOM      7  N   UNL     1       3.321   1.969   2.557  0.00  0.00    -0.286 N 
ATOM      8  C   UNL     1       2.261   2.147   1.743  0.00  0.00    +0.211 C 
ATOM      9  O   UNL     1       2.247   2.025   0.537  0.00  0.00    -0.277 OA
ATOM     10  C   UNL     1       1.101   2.526   2.622  0.00  0.00    +0.050 C 
ATOM     11  C   UNL     1       0.526   3.893   2.233  0.00  0.00    +0.088 C 
ATOM     12  C   UNL     1      -0.700   3.561   1.337  0.00  0.00    +0.073 C 
ATOM     13  C   UNL     1      -0.735   2.019   1.269  0.00  0.00    -0.057 C 
ATOM     14  C   UNL     1      -1.873   4.051   2.155  0.00  0.00    +0.224 C 
ATOM     15  O   UNL     1      -3.037   3.978   1.824  0.00  0.00    -0.275 OA
ATOM     16  N   UNL     1      -1.427   4.579   3.300  0.00  0.00    -0.237 N 
ATOM     17  C   UNL     1      -0.097   4.546   3.446  0.00  0.00    +0.225 C 
ATOM     18  O   UNL     1       0.513   4.973   4.403  0.00  0.00    -0.275 OA
ATOM     19  H   UNL     1       4.204   1.717   2.247  0.00  0.00    +0.155 HD
ATOM     20  N   UNL     1      -0.003   1.595   2.465  0.00  0.00    +0.394 N 
ATOM     21  H   UNL     1      -0.617   1.630   3.288  0.00  0.00    -0.083 HD
ATOM     22  H   UNL     1       0.352   0.640   2.344  0.00  0.00    -0.083 HD
ENDROOT
BRANCH   1  24
ATOM     23  C   UNL     1       6.063   2.997   4.631  0.00  0.00    +0.009 C 
ATOM     24  C   UNL     1       5.238   1.745   4.938  0.00  0.00    +0.033 C 
ENDBRANCH   1  24
BRANCH  13  25
ATOM     25  C   UNL     1      -0.019   1.526   0.010  0.00  0.00    -0.006 C 
BRANCH  25  26
ATOM     26  C   UNL     1      -1.034   1.363  -1.123  0.00  0.00    +0.094 C 
BRANCH  26  27
ATOM     27  C   UNL     1      -0.328   0.877  -2.363  0.00  0.00    +0.210 C 
ATOM     28  O   UNL     1       0.868   0.680  -2.342  0.00  0.00    -0.276 OA
ATOM     29  N   UNL     1      -1.027   0.661  -3.495  0.00  0.00    -0.329 N 
ATOM     30  H   UNL     1      -1.984   0.818  -3.511  0.00  0.00    +0.145 HD
ATOM     31  H   UNL     1      -0.573   0.348  -4.293  0.00  0.00    +0.145 HD
ENDBRANCH  26  27
ENDBRANCH  25  26
ENDBRANCH  13  25
BRANCH  16  32
ATOM     32  C   UNL     1      -2.321   5.147   4.312  0.00  0.00    +0.155 C 
BRANCH  32  33
ATOM     33  C   UNL     1      -2.527   6.614   4.034  0.00  0.00    +0.012 A 
ATOM     34  C   UNL     1      -1.821   7.560   4.752  0.00  0.00    +0.009 A 
ATOM     35  C   UNL     1      -2.005   8.905   4.493  0.00  0.00    +0.001 A 
ATOM     36  C   UNL     1      -2.905   9.308   3.523  0.00  0.00    +0.004 A 
ATOM     37  C   UNL     1      -3.618   8.367   2.807  0.00  0.00    +0.046 A 
ATOM     38  C   UNL     1      -3.430   7.016   3.060  0.00  0.00    +0.125 A 
BRANCH  38  39
ATOM     39  O   UNL     1      -4.129   6.087   2.356  0.00  0.00    -0.495 OA
ATOM     40  C   UNL     1      -5.042   6.573   1.369  0.00  0.00    +0.277 C 
ENDBRANCH  38  39
ENDBRANCH  32  33
ENDBRANCH  16  32
TORSDOF 7
