REMARK  Name = ZINC63831348
REMARK  1 active torsions:
REMARK  status: ('A' for Active; 'I' for Inactive)
REMARK    1  A    between atoms: C_7  and  C_10
REMARK                            x       y       z     vdW  Elec       q    Type
REMARK                         _______ _______ _______ _____ _____    ______ ____
ROOT
ATOM      1  C   UNL     1       0.691  -3.186  -0.024  0.00  0.00    +0.193 C 
ATOM      2  N   UNL     1       0.953  -4.046   1.151  0.00  0.00    -0.295 N 
ATOM      3  C   UNL     1       2.034  -4.910   1.090  0.00  0.00    +0.177 C 
ATOM      4  N   UNL     1       2.232  -5.637  -0.078  0.00  0.00    -0.284 N 
ATOM      5  C   UNL     1       2.127  -4.883  -1.339  0.00  0.00    +0.255 C 
ATOM      6  N   UNL     1       0.929  -4.024  -1.204  0.00  0.00    -0.272 N 
ATOM      7  C   UNL     1       0.136  -4.221  -2.333  0.00  0.00    +0.059 A 
ATOM      8  C   UNL     1      -1.008  -3.561  -2.772  0.00  0.00    +0.074 A 
ATOM      9  C   UNL     1      -1.636  -3.964  -3.938  0.00  0.00    +0.164 A 
ATOM     10  C   UNL     1      -1.125  -5.022  -4.675  0.00  0.00    +0.164 A 
ATOM     11  C   UNL     1       0.016  -5.678  -4.249  0.00  0.00    +0.074 A 
ATOM     12  C   UNL     1       0.653  -5.277  -3.080  0.00  0.00    +0.055 A 
ATOM     13  N   UNL     1       1.849  -5.768  -2.470  0.00  0.00    -0.309 N 
ATOM     14  O   UNL     1      -1.756  -5.410  -5.822  0.00  0.00    -0.488 OA
ATOM     15  C   UNL     1      -3.042  -6.009  -5.657  0.00  0.00    +0.232 C 
ATOM     16  C   UNL     1      -4.124  -4.945  -5.557  0.00  0.00    +0.082 C 
ATOM     17  C   UNL     1      -3.972  -4.081  -4.314  0.00  0.00    +0.232 C 
ATOM     18  O   UNL     1      -2.762  -3.322  -4.369  0.00  0.00    -0.488 OA
ATOM     19  N   UNL     1       2.845  -5.038   2.102  0.00  0.00    -0.273 NA
ATOM     20  H   UNL     1       0.387  -4.007   1.937  0.00  0.00    +0.151 HD
ATOM     21  H   UNL     1       2.376  -6.535  -2.744  0.00  0.00    +0.149 HD
ATOM     22  H   UNL     1       3.598  -5.647   2.046  0.00  0.00    +0.189 HD
ATOM     23  H   UNL     1       2.428  -6.587  -0.063  0.00  0.00    +0.152 HD
ENDROOT
BRANCH   1  30
ATOM     24  C   UNL     1      -0.016   1.348   0.009  0.00  0.00    +0.001 A 
ATOM     25  C   UNL     1       1.166   2.101   0.002  0.00  0.00    +0.002 A 
ATOM     26  C   UNL     1       2.391   1.535  -0.013  0.00  0.00    +0.026 A 
ATOM     27  C   UNL     1       2.529   0.120  -0.022  0.00  0.00    +0.043 A 
ATOM     28  N   UNL     1       3.587  -0.654  -0.037  0.00  0.00    -0.380 N 
ATOM     29  C   UNL     1       3.143  -2.053  -0.041  0.00  0.00    +0.148 C 
ATOM     30  C   UNL     1       1.631  -2.008  -0.025  0.00  0.00    -0.004 C 
ATOM     31  C   UNL     1       1.295  -0.698  -0.014  0.00  0.00    +0.002 A 
ATOM     32  C   UNL     1       0.002  -0.004   0.002  0.00  0.00    +0.010 A 
ATOM     33  H   UNL     1       4.509  -0.353  -0.045  0.00  0.00    +0.160 HD
ENDBRANCH   1  30
TORSDOF 1
