REMARK  Name = ZINC11855810
REMARK  6 active torsions:
REMARK  status: ('A' for Active; 'I' for Inactive)
REMARK    1  A    between atoms: C_1  and  C_2
REMARK    2  A    between atoms: C_2  and  C_3
REMARK    3  A    between atoms: C_3  and  C_5
REMARK    4  A    between atoms: C_3  and  C_11
REMARK    5  A    between atoms: N_13  and  C_14
REMARK    6  A    between atoms: C_16  and  C_30
REMARK                            x       y       z     vdW  Elec       q    Type
REMARK                         _______ _______ _______ _____ _____    ______ ____
ROOT
ATOM      1  C   UNL     1      -1.227   1.646   0.017  0.00  0.00    +0.132 A 
ATOM      2  C   UNL     1      -1.391   2.993   0.031  0.00  0.00    +0.074 A 
ATOM      3  C   UNL     1      -2.776   3.259   0.033  0.00  0.00    +0.102 A 
ATOM      4  N   UNL     1      -3.417   2.108   0.030  0.00  0.00    -0.162 NA
ATOM      5  N   UNL     1      -2.469   1.077   0.020  0.00  0.00    -0.185 N 
ATOM      6  C   UNL     1      -2.742  -0.277   0.014  0.00  0.00    +0.234 A 
ATOM      7  N   UNL     1      -4.035  -0.697   0.023  0.00  0.00    -0.291 N 
ATOM      8  H   UNL     1      -4.758  -0.050   0.034  0.00  0.00    +0.172 HD
ATOM      9  C   UNL     1      -4.307  -2.019   0.013  0.00  0.00    +0.256 A 
ATOM     10  O   UNL     1      -5.461  -2.416   0.016  0.00  0.00    -0.267 OA
ATOM     11  C   UNL     1      -3.235  -2.932   0.003  0.00  0.00    +0.038 A 
ATOM     12  C   UNL     1      -1.959  -2.454  -0.001  0.00  0.00    +0.053 A 
ATOM     13  N   UNL     1      -1.746  -1.135   0.005  0.00  0.00    -0.217 NA
ATOM     14  C   UNL     1      -0.976  -3.605  -0.012  0.00  0.00    +0.056 C 
ATOM     15  C   UNL     1      -1.796  -4.839   0.422  0.00  0.00    +0.011 C 
ATOM     16  C   UNL     1      -3.226  -4.444  -0.004  0.00  0.00    +0.043 C 
ENDROOT
BRANCH   3  17
ATOM     17  C   UNL     1      -3.401   4.599   0.044  0.00  0.00    +0.039 A 
ATOM     18  C   UNL     1      -4.730   4.931   0.052  0.00  0.00    +0.018 A 
ATOM     19  C   UNL     1      -5.079   6.264   0.061  0.00  0.00    +0.008 A 
ATOM     20  C   UNL     1      -4.100   7.204   0.063  0.00  0.00    +0.046 A 
ATOM     21  S   UNL     1      -2.621   6.204   0.057  0.00  0.00    -0.095 S 
ENDBRANCH   3  17
BRANCH   1  24
ATOM     22  C   UNL     1       1.147   1.655   0.000  0.00  0.00    +0.226 C 
ATOM     23  O   UNL     1       1.130   2.868   0.007  0.00  0.00    -0.275 OA
ATOM     24  N   UNL     1      -0.011   0.966   0.007  0.00  0.00    -0.270 N 
ATOM     25  H   UNL     1       0.002  -0.004   0.002  0.00  0.00    +0.156 HD
BRANCH  22  26
ATOM     26  C   UNL     1       2.462   0.920  -0.017  0.00  0.00    +0.105 C 
BRANCH  26  27
ATOM     27  C   UNL     1       3.594   1.915  -0.022  0.00  0.00    -0.036 A 
ATOM     28  C   UNL     1       3.711   2.822  -1.058  0.00  0.00    +0.004 A 
ATOM     29  C   UNL     1       4.747   3.738  -1.061  0.00  0.00    +0.000 A 
ATOM     30  C   UNL     1       5.671   3.739  -0.032  0.00  0.00    +0.000 A 
ATOM     31  C   UNL     1       5.556   2.828   1.001  0.00  0.00    +0.000 A 
ATOM     32  C   UNL     1       4.518   1.916   1.006  0.00  0.00    +0.004 A 
ENDBRANCH  26  27
BRANCH  26  34
ATOM     33  C   UNL     1       3.821  -0.792  -1.227  0.00  0.00    +0.005 C 
ATOM     34  C   UNL     1       2.543   0.048  -1.271  0.00  0.00    +0.014 C 
ENDBRANCH  26  34
ENDBRANCH  22  26
ENDBRANCH   1  24
TORSDOF 5
