REMARK  Name = ZINC09095878
REMARK  14 active torsions:
REMARK  status: ('A' for Active; 'I' for Inactive)
REMARK    1  A    between atoms: C_1  and  C_2
REMARK    2  A    between atoms: C_2  and  C_3
REMARK    3  A    between atoms: C_3  and  C_5
REMARK    4  A    between atoms: C_3  and  S_17
REMARK    5  A    between atoms: N_7  and  C_8
REMARK    6  A    between atoms: C_12  and  N_14
REMARK    7  A    between atoms: S_17  and  C_18
REMARK    8  A    between atoms: C_21  and  C_24
REMARK    9  A    between atoms: N_22  and  C_23
REMARK   10  A    between atoms: C_24  and  C_26
REMARK   11  A    between atoms: C_24  and  N_29
REMARK   12  A    between atoms: C_26  and  C_27
REMARK   13  A    between atoms: C_26  and  C_28
REMARK   14  A    between atoms: C_30  and  C_32
REMARK                            x       y       z     vdW  Elec       q    Type
REMARK                         _______ _______ _______ _____ _____    ______ ____
ROOT
ATOM      1  C   UNL     1       1.797  10.252   0.542  0.00  0.00    +0.192 A 
ATOM      2  N   UNL     1       0.508  10.493   0.489  0.00  0.00    -0.122 NA
ATOM      3  N   UNL     1       0.292  11.750   0.648  0.00  0.00    -0.132 NA
ATOM      4  C   UNL     1       1.421  12.381   0.803  0.00  0.00    +0.155 A 
ATOM      5  N   UNL     1       2.421  11.450   0.741  0.00  0.00    -0.308 N 
ATOM      6  C   UNL     1       3.861  11.688   0.863  0.00  0.00    +0.152 C 
ENDROOT
BRANCH   1   7
ATOM      7  S   UNL     1       2.577   8.680   0.379  0.00  0.00    -0.073 S 
BRANCH   7   8
ATOM      8  C   UNL     1       1.133   7.649   0.018  0.00  0.00    +0.140 C 
BRANCH   8   9
ATOM      9  C   UNL     1       0.226   7.616   1.220  0.00  0.00    +0.231 C 
ATOM     10  O   UNL     1       0.660   7.902   2.316  0.00  0.00    -0.274 OA
ATOM     11  N   UNL     1      -1.069   7.267   1.078  0.00  0.00    -0.285 N 
ATOM     12  H   UNL     1      -1.398   6.967   0.217  0.00  0.00    +0.155 HD
BRANCH  11  13
ATOM     13  C   UNL     1      -1.937   7.339   2.173  0.00  0.00    +0.036 A 
ATOM     14  C   UNL     1      -1.760   8.323   3.138  0.00  0.00    +0.023 A 
ATOM     15  C   UNL     1      -2.618   8.391   4.218  0.00  0.00    +0.004 A 
ATOM     16  C   UNL     1      -3.652   7.480   4.340  0.00  0.00    +0.033 A 
ATOM     17  C   UNL     1      -3.827   6.496   3.384  0.00  0.00    +0.128 A 
ATOM     18  C   UNL     1      -2.975   6.427   2.299  0.00  0.00    +0.056 A 
BRANCH  17  19
ATOM     19  N   UNL     1      -4.931   5.520   3.522  0.00  0.00    +0.056 N 
ATOM     20  O   UNL     1      -5.684   5.583   4.476  0.00  0.00    -0.126 OA
ATOM     21  O   UNL     1      -5.085   4.653   2.680  0.00  0.00    -0.126 OA
ENDBRANCH  17  19
ENDBRANCH  11  13
ENDBRANCH   8   9
BRANCH   8  23
ATOM     22  C   UNL     1       2.383   6.241  -1.625  0.00  0.00    +0.005 C 
ATOM     23  C   UNL     1       1.592   6.228  -0.315  0.00  0.00    +0.020 C 
ENDBRANCH   8  23
ENDBRANCH   7   8
ENDBRANCH   1   7
BRANCH   4  24
ATOM     24  C   UNL     1       1.594  13.864   1.013  0.00  0.00    +0.144 C 
BRANCH  24  25
ATOM     25  N   UNL     1       0.742  14.592   0.070  0.00  0.00    -0.301 N 
ATOM     26  C   UNL     1       1.063  15.849  -0.297  0.00  0.00    +0.245 C 
ATOM     27  O   UNL     1       2.060  16.378   0.155  0.00  0.00    -0.270 OA
ATOM     28  H   UNL     1      -0.054  14.171  -0.291  0.00  0.00    +0.150 HD
BRANCH  26  29
ATOM     29  C   UNL     1       0.204  16.584  -1.249  0.00  0.00    +0.037 A 
ATOM     30  C   UNL     1      -0.939  15.978  -1.774  0.00  0.00    +0.013 A 
ATOM     31  C   UNL     1      -1.739  16.672  -2.658  0.00  0.00    +0.001 A 
ATOM     32  C   UNL     1      -1.407  17.962  -3.031  0.00  0.00    +0.000 A 
ATOM     33  C   UNL     1      -0.273  18.566  -2.519  0.00  0.00    +0.001 A 
ATOM     34  C   UNL     1       0.534  17.886  -1.630  0.00  0.00    +0.013 A 
ENDBRANCH  26  29
ENDBRANCH  24  25
BRANCH  24  35
ATOM     35  C   UNL     1       1.196  14.226   2.445  0.00  0.00    +0.011 C 
ATOM     36  C   UNL     1       2.086  13.465   3.430  0.00  0.00    +0.009 C 
ATOM     37  C   UNL     1       1.371  15.732   2.657  0.00  0.00    +0.009 C 
ENDBRANCH  24  35
ENDBRANCH   4  24
TORSDOF 10
