REMARK  Name = ZINC42015641
REMARK  5 active torsions:
REMARK  status: ('A' for Active; 'I' for Inactive)
REMARK    1  A    between atoms: C_1  and  C_2
REMARK    2  A    between atoms: C_2  and  C_3
REMARK    3  A    between atoms: C_8  and  N_9
REMARK    4  A    between atoms: C_10  and  C_14
REMARK    5  A    between atoms: C_18  and  N_20
REMARK                            x       y       z     vdW  Elec       q    Type
REMARK                         _______ _______ _______ _____ _____    ______ ____
ROOT
ATOM      1  N   UNL     1      -1.575  -0.150  -2.397  0.00  0.00    -0.192 N 
ATOM      2  C   UNL     1      -2.013  -0.469  -3.649  0.00  0.00    +0.187 A 
ATOM      3  N   UNL     1      -1.040  -0.168  -4.484  0.00  0.00    -0.108 NA
ATOM      4  N   UNL     1      -0.033   0.312  -3.847  0.00  0.00    -0.022 NA
ATOM      5  N   UNL     1      -0.278   0.361  -2.583  0.00  0.00    -0.039 NA
ENDROOT
BRANCH   2   6
ATOM      6  C   UNL     1      -3.330  -1.043  -4.002  0.00  0.00    +0.023 A 
ATOM      7  C   UNL     1      -4.102  -1.675  -3.026  0.00  0.00    +0.013 A 
ATOM      8  C   UNL     1      -5.330  -2.210  -3.357  0.00  0.00    +0.018 A 
ATOM      9  C   UNL     1      -5.801  -2.122  -4.654  0.00  0.00    +0.039 A 
ATOM     10  C   UNL     1      -5.039  -1.494  -5.633  0.00  0.00    +0.039 A 
ATOM     11  C   UNL     1      -3.806  -0.949  -5.309  0.00  0.00    +0.035 A 
ATOM     12 BR   UNL     1      -7.486  -2.858  -5.098  0.00  0.00    -0.048 Br
BRANCH  10  13
ATOM     13  N   UNL     1      -5.519  -1.407  -6.943  0.00  0.00    -0.357 N 
ATOM     14  H   UNL     1      -6.383  -1.784  -7.169  0.00  0.00    +0.142 HD
ATOM     15  H   UNL     1      -4.987  -0.969  -7.626  0.00  0.00    +0.142 HD
ENDBRANCH  10  13
ENDBRANCH   2   6
BRANCH   1  21
ATOM     16  C   UNL     1      -1.735  -1.072  -0.169  0.00  0.00    -0.022 A 
ATOM     17  C   UNL     1      -2.419  -1.209   1.023  0.00  0.00    +0.006 A 
ATOM     18  C   UNL     1      -3.636  -0.577   1.200  0.00  0.00    +0.000 A 
ATOM     19  C   UNL     1      -4.173   0.193   0.184  0.00  0.00    +0.002 A 
ATOM     20  C   UNL     1      -3.494   0.333  -1.010  0.00  0.00    +0.028 A 
ATOM     21  C   UNL     1      -2.268  -0.295  -1.188  0.00  0.00    +0.073 A 
BRANCH  16  23
ATOM     22  C   UNL     1       0.724  -0.790  -0.015  0.00  0.00    +0.009 C 
ATOM     23  C   UNL     1      -0.408  -1.760  -0.361  0.00  0.00    +0.034 C 
ENDBRANCH  16  23
ENDBRANCH   1  21
TORSDOF 4
