REMARK  Name = ZINC06280632
REMARK  11 active torsions:
REMARK  status: ('A' for Active; 'I' for Inactive)
REMARK    1  A    between atoms: C_1  and  C_2
REMARK    2  A    between atoms: C_7  and  N_8
REMARK    3  A    between atoms: C_13  and  C_15
REMARK    4  A    between atoms: C_13  and  C_29
REMARK    5  A    between atoms: C_13  and  N_71
REMARK    6  A    between atoms: C_18  and  C_28
REMARK    7  A    between atoms: C_20  and  C_27
REMARK    8  A    between atoms: N_33  and  C_34
REMARK    9  A    between atoms: C_34  and  C_35
REMARK   10  A    between atoms: C_34  and  C_36
REMARK   11  A    between atoms: C_34  and  C_37
REMARK                            x       y       z     vdW  Elec       q    Type
REMARK                         _______ _______ _______ _____ _____    ______ ____
ROOT
ATOM      1  C   UNL     1       4.774   4.388   0.054  0.00  0.00    +0.039 C 
ENDROOT
BRANCH   1   2
ATOM      2  C   UNL     1       3.468   3.681  -0.204  0.00  0.00    +0.011 A 
ATOM      3  C   UNL     1       3.453   2.340  -0.405  0.00  0.00    +0.018 A 
ATOM      4  C   UNL     1       2.168   1.684  -0.653  0.00  0.00    +0.002 A 
ATOM      5  C   UNL     1       2.090   0.303  -0.867  0.00  0.00    -0.041 A 
ATOM      6  C   UNL     1       0.876  -0.279  -1.096  0.00  0.00    +0.007 A 
ATOM      7  C   UNL     1      -0.282   0.487  -1.117  0.00  0.00    -0.048 A 
ATOM      8  C   UNL     1      -0.229   1.848  -0.909  0.00  0.00    +0.029 A 
ATOM      9  C   UNL     1       0.997   2.463  -0.674  0.00  0.00    +0.050 A 
ATOM     10  N   UNL     1       1.079   3.823  -0.462  0.00  0.00    -0.322 N 
ATOM     11  H   UNL     1       0.271   4.359  -0.477  0.00  0.00    +0.169 HD
ATOM     12  C   UNL     1       2.264   4.417  -0.236  0.00  0.00    +0.251 A 
ATOM     13  O   UNL     1       2.300   5.622  -0.053  0.00  0.00    -0.268 OA
ATOM     14  C   UNL     1      -1.611  -0.177  -1.371  0.00  0.00    +0.044 C 
ATOM     15  C   UNL     1       3.340  -0.537  -0.845  0.00  0.00    +0.044 C 
ENDBRANCH   1   2
BRANCH   1  21
ATOM     16  N   UNL     1       6.228   6.853  -3.054  0.00  0.00    -0.333 N 
ATOM     17  C   UNL     1       6.309   7.360  -1.677  0.00  0.00    +0.086 C 
ATOM     18  C   UNL     1       6.208   6.188  -0.697  0.00  0.00    -0.058 C 
ATOM     19  C   UNL     1       4.861   4.968  -2.296  0.00  0.00    -0.058 C 
ATOM     20  C   UNL     1       4.962   6.139  -3.275  0.00  0.00    +0.086 C 
ATOM     21  N   UNL     1       4.922   5.494  -0.916  0.00  0.00    +0.391 N 
ATOM     22  H   UNL     1       4.154   6.162  -0.779  0.00  0.00    -0.080 HD
BRANCH  16  29
ATOM     23  C   UNL     1       8.506   6.788  -4.755  0.00  0.00    +0.045 C 
ATOM     24  C   UNL     1       7.486   7.895  -4.830  0.00  0.00    -0.029 A 
ATOM     25  C   UNL     1       7.642   8.919  -5.744  0.00  0.00    +0.006 A 
ATOM     26  C   UNL     1       6.707   9.935  -5.813  0.00  0.00    +0.020 A 
ATOM     27  C   UNL     1       5.612   9.930  -4.967  0.00  0.00    +0.043 A 
ATOM     28  C   UNL     1       5.448   8.906  -4.053  0.00  0.00    +0.043 A 
ATOM     29  C   UNL     1       6.388   7.887  -3.978  0.00  0.00    +0.034 A 
ATOM     30 CL   UNL     1       4.440  11.207  -5.058  0.00  0.00    -0.083 Cl
ENDBRANCH  16  29
ENDBRANCH   1  21
BRANCH   1  31
ATOM     31  C   UNL     1       4.769   4.957   1.449  0.00  0.00    +0.143 A 
ATOM     32  N   UNL     1       4.043   5.959   1.883  0.00  0.00    -0.115 NA
ATOM     33  N   UNL     1       4.322   6.142   3.127  0.00  0.00    -0.023 NA
ATOM     34  N   UNL     1       5.212   5.289   3.496  0.00  0.00    -0.043 NA
ATOM     35  N   UNL     1       5.514   4.541   2.490  0.00  0.00    -0.225 N 
BRANCH  35  36
ATOM     36  C   UNL     1       6.485   3.443   2.481  0.00  0.00    +0.059 C 
ATOM     37  C   UNL     1       7.618   3.773   1.507  0.00  0.00    +0.036 C 
ATOM     38  C   UNL     1       7.058   3.259   3.887  0.00  0.00    +0.036 C 
ATOM     39  C   UNL     1       5.792   2.153   2.039  0.00  0.00    +0.036 C 
ENDBRANCH  35  36
ENDBRANCH   1  31
TORSDOF 5
