REMARK  Name = ZINC33937291
REMARK  15 active torsions:
REMARK  status: ('A' for Active; 'I' for Inactive)
REMARK    1  A    between atoms: C_1  and  C_2
REMARK    2  A    between atoms: C_2  and  C_3
REMARK    3  A    between atoms: C_3  and  C_4
REMARK    4  A    between atoms: C_4  and  C_6
REMARK    5  A    between atoms: C_4  and  N_18
REMARK    6  A    between atoms: N_10  and  C_11
REMARK    7  A    between atoms: C_11  and  C_12
REMARK    8  A    between atoms: N_18  and  C_19
REMARK    9  A    between atoms: N_18  and  C_23
REMARK   10  A    between atoms: C_19  and  C_20
REMARK   11  A    between atoms: C_20  and  C_21
REMARK   12  A    between atoms: C_21  and  O_22
REMARK   13  A    between atoms: C_23  and  C_24
REMARK   14  A    between atoms: C_27  and  C_37
REMARK   15  A    between atoms: C_30  and  C_36
REMARK                            x       y       z     vdW  Elec       q    Type
REMARK                         _______ _______ _______ _____ _____    ______ ____
ROOT
ATOM      1  N   UNL     1      -0.687  -2.619  -1.298  0.00  0.00    +0.389 N 
ATOM      2  H   UNL     1      -1.187  -2.163  -2.046  0.00  0.00    -0.080 HD
ENDROOT
BRANCH   1   3
ATOM      3  C   UNL     1      -1.126  -2.070  -0.009  0.00  0.00    +0.003 C 
BRANCH   3   4
ATOM      4  C   UNL     1      -1.478  -0.614  -0.177  0.00  0.00    +0.138 A 
ATOM      5  N   UNL     1      -0.787   0.287  -0.831  0.00  0.00    -0.115 NA
ATOM      6  N   UNL     1      -1.415   1.409  -0.745  0.00  0.00    -0.023 NA
ATOM      7  N   UNL     1      -2.488   1.246  -0.052  0.00  0.00    -0.044 NA
ATOM      8  N   UNL     1      -2.565   0.011   0.312  0.00  0.00    -0.228 N 
BRANCH   8   9
ATOM      9  C   UNL     1      -3.633  -0.596   1.110  0.00  0.00    +0.178 C 
BRANCH   9  10
ATOM     10  C   UNL     1      -3.281  -0.493   2.595  0.00  0.00    +0.140 C 
ATOM     11  C   UNL     1      -4.439  -1.048   3.462  0.00  0.00    +0.035 C 
ATOM     12  C   UNL     1      -3.675  -1.449   4.753  0.00  0.00    +0.031 C 
ATOM     13  C   UNL     1      -2.313  -1.914   4.196  0.00  0.00    +0.160 C 
ATOM     14  O   UNL     1      -2.151  -1.325   2.899  0.00  0.00    -0.375 OA
ENDBRANCH   9  10
ENDBRANCH   8   9
ENDBRANCH   3   4
BRANCH   3  15
ATOM     15  C   UNL     1       0.003  -2.207   1.015  0.00  0.00    -0.008 C 
BRANCH  15  17
ATOM     16  C   UNL     1       1.297  -3.826   2.410  0.00  0.00    +0.004 C 
ATOM     17  C   UNL     1       0.270  -3.689   1.284  0.00  0.00    -0.005 C 
ENDBRANCH  15  17
ENDBRANCH   3  15
ENDBRANCH   1   3
BRANCH   1  18
ATOM     18  C   UNL     1      -0.961  -4.062  -1.335  0.00  0.00    -0.075 C 
BRANCH  18  19
ATOM     19  C   UNL     1      -2.473  -4.295  -1.304  0.00  0.00    +0.009 C 
BRANCH  19  20
ATOM     20  C   UNL     1      -2.757  -5.797  -1.249  0.00  0.00    +0.154 C 
BRANCH  20  21
ATOM     21  O   UNL     1      -4.169  -6.014  -1.220  0.00  0.00    -0.395 OA
ATOM     22  H   UNL     1      -4.423  -6.947  -1.185  0.00  0.00    +0.209 HD
ENDBRANCH  20  21
ENDBRANCH  19  20
ENDBRANCH  18  19
ENDBRANCH   1  18
BRANCH   1  23
ATOM     23  C   UNL     1       0.755  -2.391  -1.463  0.00  0.00    -0.037 C 
BRANCH  23  24
ATOM     24  C   UNL     1       1.179  -2.826  -2.842  0.00  0.00    +0.001 A 
ATOM     25  C   UNL     1       1.254  -1.915  -3.844  0.00  0.00    +0.017 A 
ATOM     26  C   UNL     1       1.669  -2.369  -5.172  0.00  0.00    +0.002 A 
ATOM     27  C   UNL     1       1.765  -1.476  -6.245  0.00  0.00    -0.041 A 
ATOM     28  C   UNL     1       2.156  -1.932  -7.472  0.00  0.00    +0.004 A 
ATOM     29  C   UNL     1       2.458  -3.273  -7.664  0.00  0.00    +0.005 A 
ATOM     30  C   UNL     1       2.370  -4.171  -6.622  0.00  0.00    -0.026 A 
ATOM     31  C   UNL     1       1.975  -3.730  -5.363  0.00  0.00    +0.052 A 
ATOM     32  N   UNL     1       1.879  -4.605  -4.303  0.00  0.00    -0.322 N 
ATOM     33  H   UNL     1       2.090  -5.543  -4.436  0.00  0.00    +0.169 HD
ATOM     34  C   UNL     1       1.502  -4.178  -3.085  0.00  0.00    +0.251 A 
ATOM     35  O   UNL     1       1.433  -4.979  -2.169  0.00  0.00    -0.268 OA
ATOM     36  C   UNL     1       2.700  -5.624  -6.846  0.00  0.00    +0.046 C 
ATOM     37  C   UNL     1       1.439  -0.019  -6.048  0.00  0.00    +0.044 C 
ENDBRANCH  23  24
ENDBRANCH   1  23
TORSDOF 12
