REMARK  Name = ZINC38497745
REMARK  5 active torsions:
REMARK  status: ('A' for Active; 'I' for Inactive)
REMARK    1  A    between atoms: C_1  and  C_2
REMARK    2  A    between atoms: C_7  and  N_8
REMARK    3  A    between atoms: C_9  and  C_11
REMARK    4  A    between atoms: C_11  and  C_12
REMARK    5  A    between atoms: C_14  and  C_17
REMARK                            x       y       z     vdW  Elec       q    Type
REMARK                         _______ _______ _______ _____ _____    ______ ____
ROOT
ATOM      1  C   UNL     1      -0.243  -0.931   6.021  0.00  0.00    +0.093 A 
ATOM      2  C   UNL     1       0.600  -0.958   7.139  0.00  0.00    +0.079 A 
ATOM      3  C   UNL     1       0.208  -1.993   7.936  0.00  0.00    +0.202 A 
ATOM      4  O   UNL     1      -0.841  -2.593   7.341  0.00  0.00    -0.351 OA
ATOM      5  N   UNL     1      -1.109  -1.900   6.136  0.00  0.00    -0.082 NA
ENDROOT
BRANCH   3   6
ATOM      6  C   UNL     1       0.821  -2.384   9.215  0.00  0.00    +0.174 A 
ATOM      7  C   UNL     1       0.416  -3.424   9.990  0.00  0.00    +0.061 A 
ATOM      8  C   UNL     1       1.307  -3.434  11.151  0.00  0.00    +0.021 A 
ATOM      9  C   UNL     1       1.413  -4.237  12.289  0.00  0.00    +0.011 A 
ATOM     10  C   UNL     1       2.385  -3.975  13.214  0.00  0.00    +0.001 A 
ATOM     11  C   UNL     1       3.264  -2.918  13.030  0.00  0.00    +0.004 A 
ATOM     12  C   UNL     1       3.175  -2.114  11.913  0.00  0.00    +0.047 A 
ATOM     13  C   UNL     1       2.196  -2.361  10.959  0.00  0.00    +0.136 A 
ATOM     14  O   UNL     1       1.873  -1.768   9.792  0.00  0.00    -0.452 OA
ENDBRANCH   3   6
BRANCH   1  15
ATOM     15  C   UNL     1      -0.168   0.054   4.882  0.00  0.00    +0.155 C 
BRANCH  15  17
ATOM     16  N   UNL     1       0.025  -0.014   2.417  0.00  0.00    -0.285 N 
ATOM     17  C   UNL     1      -0.056  -0.693   3.578  0.00  0.00    +0.223 C 
ATOM     18  O   UNL     1      -0.040  -1.906   3.574  0.00  0.00    -0.275 OA
ATOM     19  H   UNL     1       0.078   0.955   2.424  0.00  0.00    +0.155 HD
BRANCH  16  26
ATOM     20  C   UNL     1      -1.265   1.183   0.181  0.00  0.00    +0.045 C 
ATOM     21  C   UNL     1      -0.584  -0.158   0.084  0.00  0.00    -0.029 A 
ATOM     22  C   UNL     1      -0.569  -0.840  -1.117  0.00  0.00    +0.006 A 
ATOM     23  C   UNL     1       0.054  -2.070  -1.207  0.00  0.00    +0.020 A 
ATOM     24  C   UNL     1       0.667  -2.622  -0.095  0.00  0.00    +0.043 A 
ATOM     25  C   UNL     1       0.655  -1.944   1.109  0.00  0.00    +0.043 A 
ATOM     26  C   UNL     1       0.034  -0.706   1.201  0.00  0.00    +0.038 A 
ATOM     27 CL   UNL     1       1.449  -4.168  -0.213  0.00  0.00    -0.083 Cl
ENDBRANCH  16  26
ENDBRANCH  15  17
ENDBRANCH   1  15
TORSDOF 4
