REMARK  Name = ZINC49549557
REMARK  5 active torsions:
REMARK  status: ('A' for Active; 'I' for Inactive)
REMARK    1  A    between atoms: C_1  and  C_2
REMARK    2  A    between atoms: C_2  and  C_4
REMARK    3  A    between atoms: C_2  and  O_21
REMARK    4  A    between atoms: C_9  and  N_10
REMARK    5  A    between atoms: C_11  and  C_13
REMARK                            x       y       z     vdW  Elec       q    Type
REMARK                         _______ _______ _______ _____ _____    ______ ____
ROOT
ATOM      1  N   UNL     1      -1.506  -0.314  -2.391  0.00  0.00    -0.281 N 
ATOM      2  C   UNL     1      -1.776  -1.022  -3.506  0.00  0.00    +0.249 C 
ATOM      3  O   UNL     1      -2.612  -1.902  -3.479  0.00  0.00    -0.270 OA
ATOM      4  H   UNL     1      -0.887   0.431  -2.427  0.00  0.00    +0.155 HD
ENDROOT
BRANCH   2   5
ATOM      5  C   UNL     1      -1.050  -0.725  -4.767  0.00  0.00    +0.047 A 
ATOM      6  C   UNL     1      -0.087   0.285  -4.810  0.00  0.00    +0.083 A 
ATOM      7  C   UNL     1       0.578   0.544  -6.000  0.00  0.00    +0.252 A 
ATOM      8  N   UNL     1       0.299  -0.172  -7.113  0.00  0.00    -0.290 N 
ATOM      9  C   UNL     1      -0.630  -1.154  -7.095  0.00  0.00    +0.252 A 
ATOM     10  C   UNL     1      -1.317  -1.454  -5.927  0.00  0.00    +0.083 A 
ATOM     11  O   UNL     1      -0.886  -1.847  -8.213  0.00  0.00    -0.268 OA
ATOM     12  O   UNL     1       1.503   1.512  -6.048  0.00  0.00    -0.268 OA
ATOM     13  H   UNL     1       0.772   0.022  -7.937  0.00  0.00    +0.172 HD
ENDBRANCH   2   5
BRANCH   1  19
ATOM     14  C   UNL     1      -1.426  -0.516   0.014  0.00  0.00    +0.002 A 
ATOM     15  C   UNL     1      -2.037  -0.848   1.208  0.00  0.00    +0.008 A 
ATOM     16  C   UNL     1      -3.336  -1.323   1.213  0.00  0.00    +0.000 A 
ATOM     17  C   UNL     1      -4.027  -1.468   0.024  0.00  0.00    +0.002 A 
ATOM     18  C   UNL     1      -3.422  -1.139  -1.173  0.00  0.00    +0.023 A 
ATOM     19  C   UNL     1      -2.120  -0.655  -1.181  0.00  0.00    +0.039 A 
BRANCH  14  21
ATOM     20  C   UNL     1      -0.028   1.531   0.012  0.00  0.00    +0.043 C 
ATOM     21  C   UNL     1      -0.011   0.001   0.009  0.00  0.00    +0.143 C 
BRANCH  21  22
ATOM     22  O   UNL     1       0.672  -0.469   1.173  0.00  0.00    -0.387 OA
ATOM     23  H   UNL     1       1.591  -0.174   1.236  0.00  0.00    +0.210 HD
ENDBRANCH  21  22
ENDBRANCH  14  21
ENDBRANCH   1  19
TORSDOF 4
