REMARK  Name = ZINC62041720
REMARK  9 active torsions:
REMARK  status: ('A' for Active; 'I' for Inactive)
REMARK    1  A    between atoms: C_1  and  C_2
REMARK    2  A    between atoms: C_9  and  C_24
REMARK    3  A    between atoms: C_10  and  C_11
REMARK    4  A    between atoms: C_11  and  C_12
REMARK    5  A    between atoms: N_14  and  C_15
REMARK    6  A    between atoms: C_16  and  C_23
REMARK    7  A    between atoms: C_18  and  C_22
REMARK    8  A    between atoms: C_27  and  C_31
REMARK    9  A    between atoms: C_28  and  C_30
REMARK                            x       y       z     vdW  Elec       q    Type
REMARK                         _______ _______ _______ _____ _____    ______ ____
ROOT
ATOM      1  C   UNL     1       0.559  -5.211   6.257  0.00  0.00    +0.044 C 
ATOM      2  C   UNL     1       0.358  -5.662   4.834  0.00  0.00    -0.046 A 
ATOM      3  C   UNL     1       0.710  -4.817   3.769  0.00  0.00    +0.021 A 
ATOM      4  C   UNL     1       0.531  -5.218   2.493  0.00  0.00    +0.093 A 
ATOM      5  N   UNL     1       0.006  -6.447   2.217  0.00  0.00    -0.304 N 
ATOM      6  C   UNL     1      -0.347  -7.295   3.236  0.00  0.00    +0.116 A 
ATOM      7  C   UNL     1      -0.161  -6.892   4.574  0.00  0.00    +0.048 A 
ATOM      8  N   UNL     1      -0.825  -8.410   2.702  0.00  0.00    -0.339 N 
ATOM      9  C   UNL     1      -0.791  -8.306   1.364  0.00  0.00    +0.068 A 
ATOM     10  C   UNL     1      -0.274  -7.087   1.043  0.00  0.00    +0.058 A 
ATOM     11  H   UNL     1      -1.148  -9.178   3.199  0.00  0.00    +0.167 HD
ENDROOT
BRANCH   9  12
ATOM     12  C   UNL     1      -1.238  -9.342   0.400  0.00  0.00    +0.000 A 
ATOM     13  C   UNL     1      -0.448  -9.657  -0.704  0.00  0.00    +0.010 A 
ATOM     14  C   UNL     1      -0.869 -10.621  -1.597  0.00  0.00    +0.004 A 
ATOM     15  C   UNL     1      -2.072 -11.275  -1.398  0.00  0.00    -0.047 A 
ATOM     16  C   UNL     1      -2.859 -10.966  -0.303  0.00  0.00    -0.047 A 
ATOM     17  C   UNL     1      -2.445 -10.008   0.599  0.00  0.00    +0.013 A 
ATOM     18  C   UNL     1      -4.168 -11.682  -0.093  0.00  0.00    +0.044 C 
ATOM     19  C   UNL     1      -2.526 -12.327  -2.377  0.00  0.00    +0.044 C 
ENDBRANCH   9  12
BRANCH  10  20
ATOM     20  C   UNL     1      -0.054  -6.546  -0.346  0.00  0.00    +0.152 C 
BRANCH  20  21
ATOM     21  C   UNL     1       1.327  -6.922  -0.819  0.00  0.00    +0.223 C 
ATOM     22  O   UNL     1       2.060  -7.567  -0.099  0.00  0.00    -0.275 OA
ATOM     23  N   UNL     1       1.747  -6.543  -2.042  0.00  0.00    -0.284 N 
ATOM     24  H   UNL     1       1.137  -6.091  -2.646  0.00  0.00    +0.155 HD
BRANCH  23  25
ATOM     25  C   UNL     1       3.064  -6.801  -2.441  0.00  0.00    +0.055 A 
ATOM     26  C   UNL     1       3.354  -7.928  -3.198  0.00  0.00    -0.028 A 
ATOM     27  C   UNL     1       4.654  -8.179  -3.590  0.00  0.00    +0.008 A 
ATOM     28  C   UNL     1       5.668  -7.310  -3.229  0.00  0.00    -0.049 A 
ATOM     29  C   UNL     1       5.383  -6.187  -2.475  0.00  0.00    +0.025 A 
ATOM     30  C   UNL     1       4.083  -5.926  -2.084  0.00  0.00    +0.063 A 
ATOM     31 CL   UNL     1       3.725  -4.512  -1.143  0.00  0.00    -0.082 Cl
ATOM     32  C   UNL     1       7.085  -7.589  -3.658  0.00  0.00    +0.044 C 
ATOM     33  C   UNL     1       2.251  -8.877  -3.591  0.00  0.00    +0.046 C 
ENDBRANCH  23  25
ENDBRANCH  20  21
ENDBRANCH  10  20
TORSDOF 4
