REMARK  Name = ZINC12547644
REMARK  14 active torsions:
REMARK  status: ('A' for Active; 'I' for Inactive)
REMARK    1  A    between atoms: C_1  and  C_2
REMARK    2  A    between atoms: C_7  and  C_36
REMARK    3  A    between atoms: C_10  and  C_12
REMARK    4  A    between atoms: C_12  and  C_14
REMARK    5  A    between atoms: C_12  and  O_15
REMARK    6  A    between atoms: O_15  and  C_16
REMARK    7  A    between atoms: C_16  and  C_18
REMARK    8  A    between atoms: C_18  and  C_19
REMARK    9  A    between atoms: C_19  and  C_20
REMARK   10  A    between atoms: C_24  and  S_30
REMARK   11  A    between atoms: N_28  and  C_29
REMARK   12  A    between atoms: S_30  and  N_33
REMARK   13  A    between atoms: N_33  and  C_34
REMARK   14  A    between atoms: N_33  and  C_35
REMARK                            x       y       z     vdW  Elec       q    Type
REMARK                         _______ _______ _______ _____ _____    ______ ____
ROOT
ATOM      1  C   UNL     1       1.490  -1.972   0.113  0.00  0.00    +0.085 C 
ENDROOT
BRANCH   1   2
ATOM      2  C   UNL     1       1.043  -0.534   0.150  0.00  0.00    +0.111 A 
ATOM      3  N   UNL     1      -0.197  -0.139   0.172  0.00  0.00    -0.232 NA
ATOM      4  C   UNL     1      -0.243   1.218   0.204  0.00  0.00    +0.091 A 
ATOM      5  C   UNL     1      -1.287   2.146   0.241  0.00  0.00    +0.058 A 
ATOM      6  C   UNL     1      -1.009   3.483   0.265  0.00  0.00    +0.108 A 
ATOM      7  C   UNL     1       0.304   3.933   0.262  0.00  0.00    +0.030 A 
ATOM      8  C   UNL     1       1.350   3.036   0.231  0.00  0.00    +0.030 A 
ATOM      9  C   UNL     1       1.087   1.673   0.201  0.00  0.00    +0.069 A 
ATOM     10  N   UNL     1       1.877   0.541   0.167  0.00  0.00    -0.331 N 
ATOM     11  C   UNL     1       3.341   0.505   0.152  0.00  0.00    +0.150 C 
BRANCH   6  12
ATOM     12  S   UNL     1      -2.330   4.648   0.305  0.00  0.00    +0.060 S 
ATOM     13  O   UNL     1      -3.453   3.970   0.852  0.00  0.00    -0.153 OA
ATOM     14  O   UNL     1      -1.805   5.838   0.878  0.00  0.00    -0.153 OA
BRANCH  12  15
ATOM     15  N   UNL     1      -2.713   5.009  -1.265  0.00  0.00    -0.183 NA
ATOM     16  C   UNL     1      -3.721   4.217  -1.973  0.00  0.00    +0.131 C 
ATOM     17  C   UNL     1      -2.043   6.119  -1.946  0.00  0.00    +0.131 C 
ENDBRANCH  12  15
ENDBRANCH   6  12
ENDBRANCH   1   2
BRANCH   1  18
ATOM     18  C   UNL     1       1.627  -2.426  -1.341  0.00  0.00    +0.128 C 
BRANCH  18  19
ATOM     19  C   UNL     1       2.075  -3.865  -1.378  0.00  0.00    +0.308 C 
ATOM     20  O   UNL     1       2.264  -4.466  -0.347  0.00  0.00    -0.251 OA
BRANCH  19  21
ATOM     21  O   UNL     1       2.262  -4.479  -2.557  0.00  0.00    -0.452 OA
BRANCH  21  22
ATOM     22  C   UNL     1       2.693  -5.865  -2.517  0.00  0.00    +0.259 C 
ATOM     23  C   UNL     1       4.222  -5.924  -2.506  0.00  0.00    +0.062 C 
BRANCH  22  31
ATOM     24  C   UNL     1       4.431  -9.186  -3.517  0.00  0.00    +0.028 C 
ATOM     25  C   UNL     1       3.152  -8.658  -2.864  0.00  0.00    +0.073 C 
ATOM     26  C   UNL     1       2.309  -9.835  -2.349  0.00  0.00    +0.022 C 
ATOM     27  C   UNL     1       1.842 -10.679  -3.537  0.00  0.00    +0.004 C 
ATOM     28  C   UNL     1       0.966  -9.827  -4.457  0.00  0.00    +0.022 C 
ATOM     29  C   UNL     1       1.789  -8.651  -4.994  0.00  0.00    +0.073 C 
ATOM     30  N   UNL     1       2.362  -7.918  -3.857  0.00  0.00    -0.293 N 
ATOM     31  C   UNL     1       2.171  -6.589  -3.731  0.00  0.00    +0.257 C 
ATOM     32  O   UNL     1       1.579  -5.977  -4.594  0.00  0.00    -0.272 OA
ATOM     33  C   UNL     1       0.884  -7.719  -5.802  0.00  0.00    +0.028 C 
ENDBRANCH  22  31
ENDBRANCH  21  22
ENDBRANCH  19  21
ENDBRANCH  18  19
ENDBRANCH   1  18
TORSDOF 8
