REMARK  Name = ZINC02721687
REMARK  9 active torsions:
REMARK  status: ('A' for Active; 'I' for Inactive)
REMARK    1  A    between atoms: C_1  and  C_2
REMARK    2  A    between atoms: C_5  and  C_8
REMARK    3  A    between atoms: C_10  and  S_25
REMARK    4  A    between atoms: C_11  and  S_13
REMARK    5  A    between atoms: S_13  and  C_14
REMARK    6  A    between atoms: C_14  and  C_15
REMARK    7  A    between atoms: N_17  and  C_18
REMARK    8  A    between atoms: C_18  and  C_19
REMARK    9  A    between atoms: S_25  and  C_28
REMARK                            x       y       z     vdW  Elec       q    Type
REMARK                         _______ _______ _______ _____ _____    ______ ____
ROOT
ATOM      1  C   UNL     1       0.059  -4.250  -0.021  0.00  0.00    +0.230 A 
ATOM      2  N   UNL     1       0.069  -5.020   1.040  0.00  0.00    -0.189 NA
ATOM      3  C   UNL     1       0.086  -6.301   0.644  0.00  0.00    +0.234 A 
ATOM      4  C   UNL     1       0.086  -6.314  -0.712  0.00  0.00    +0.208 A 
ATOM      5  O   UNL     1       0.064  -5.029  -1.121  0.00  0.00    -0.427 OA
ENDROOT
BRANCH   1  10
ATOM      6  C   UNL     1      -0.018   1.503   0.010  0.00  0.00    +0.044 C 
ATOM      7  C   UNL     1       0.002  -0.004   0.002  0.00  0.00    -0.050 A 
ATOM      8  C   UNL     1       0.006  -0.686  -1.202  0.00  0.00    +0.004 A 
ATOM      9  C   UNL     1       0.024  -2.065  -1.217  0.00  0.00    +0.013 A 
ATOM     10  C   UNL     1       0.040  -2.773  -0.013  0.00  0.00    +0.037 A 
ATOM     11  C   UNL     1       0.036  -2.078   1.198  0.00  0.00    +0.013 A 
ATOM     12  C   UNL     1       0.023  -0.699   1.198  0.00  0.00    +0.004 A 
ENDBRANCH   1  10
BRANCH   3  13
ATOM     13  S   UNL     1       0.105  -7.714   1.697  0.00  0.00    +0.046 S 
ATOM     14  O   UNL     1       0.671  -8.776   0.941  0.00  0.00    -0.163 OA
ATOM     15  O   UNL     1       0.651  -7.288   2.938  0.00  0.00    -0.163 OA
BRANCH  13  16
ATOM     16  C   UNL     1      -1.572  -8.154   2.008  0.00  0.00    +0.096 A 
ATOM     17  C   UNL     1      -2.241  -7.607   3.087  0.00  0.00    +0.030 A 
ATOM     18  C   UNL     1      -3.557  -7.952   3.332  0.00  0.00    +0.040 A 
ATOM     19  C   UNL     1      -4.205  -8.845   2.496  0.00  0.00    +0.124 A 
ATOM     20  C   UNL     1      -3.534  -9.392   1.416  0.00  0.00    +0.040 A 
ATOM     21  C   UNL     1      -2.220  -9.042   1.170  0.00  0.00    +0.030 A 
ATOM     22  F   UNL     1      -5.491  -9.183   2.735  0.00  0.00    -0.205 F 
ENDBRANCH  13  16
ENDBRANCH   3  13
BRANCH   4  23
ATOM     23  S   UNL     1       0.105  -7.741  -1.745  0.00  0.00    -0.075 S 
BRANCH  23  24
ATOM     24  C   UNL     1       0.096  -7.065  -3.428  0.00  0.00    +0.173 C 
BRANCH  24  25
ATOM     25  C   UNL     1       0.111  -8.195  -4.424  0.00  0.00    +0.223 C 
ATOM     26  O   UNL     1       0.127  -9.345  -4.037  0.00  0.00    -0.275 OA
ATOM     27  N   UNL     1       0.108  -7.930  -5.745  0.00  0.00    -0.312 N 
ATOM     28  H   UNL     1       0.096  -7.011  -6.055  0.00  0.00    +0.149 HD
BRANCH  27  29
ATOM     29  C   UNL     1       0.122  -9.029  -6.714  0.00  0.00    +0.135 C 
BRANCH  29  30
ATOM     30  C   UNL     1       0.115  -8.459  -8.133  0.00  0.00    +0.135 C 
ATOM     31  C   UNL     1       0.008  -9.607  -9.159  0.00  0.00    +0.035 C 
ATOM     32  C   UNL     1       0.964  -9.132 -10.287  0.00  0.00    +0.031 C 
ATOM     33  C   UNL     1       2.052  -8.400  -9.462  0.00  0.00    +0.160 C 
ATOM     34  O   UNL     1       1.342  -7.764  -8.384  0.00  0.00    -0.375 OA
ENDBRANCH  29  30
ENDBRANCH  27  29
ENDBRANCH  24  25
ENDBRANCH  23  24
ENDBRANCH   4  23
TORSDOF 8
