REMARK  Name = ZINC40529618
REMARK  9 active torsions:
REMARK  status: ('A' for Active; 'I' for Inactive)
REMARK    1  A    between atoms: C_4  and  C_8
REMARK    2  A    between atoms: C_13  and  O_22
REMARK    3  A    between atoms: C_17  and  N_21
REMARK    4  A    between atoms: C_18  and  C_19
REMARK    5  A    between atoms: O_22  and  C_23
REMARK    6  A    between atoms: C_23  and  C_25
REMARK    7  A    between atoms: C_25  and  O_26
REMARK    8  A    between atoms: O_26  and  C_27
REMARK    9  A    between atoms: C_30  and  N_33
REMARK                            x       y       z     vdW  Elec       q    Type
REMARK                         _______ _______ _______ _____ _____    ______ ____
ROOT
ATOM      1  C   UNL     1       3.727  -0.759  -0.003  0.00  0.00    +0.101 C 
ATOM      2  C   UNL     1       3.804  -1.597  -1.252  0.00  0.00    +0.008 A 
ATOM      3  C   UNL     1       3.978  -0.977  -2.477  0.00  0.00    +0.012 A 
ATOM      4  C   UNL     1       4.050  -1.729  -3.633  0.00  0.00    +0.047 A 
ATOM      5  C   UNL     1       3.948  -3.112  -3.569  0.00  0.00    +0.135 A 
ATOM      6  C   UNL     1       3.773  -3.735  -2.344  0.00  0.00    +0.093 A 
ATOM      7  C   UNL     1       3.700  -2.977  -1.182  0.00  0.00    +0.138 A 
ATOM      8  O   UNL     1       3.529  -3.603   0.009  0.00  0.00    -0.441 OA
ATOM      9  C   UNL     1       3.838  -2.965   1.151  0.00  0.00    +0.199 C 
ATOM     10  C   UNL     1       3.945  -1.620   1.210  0.00  0.00    +0.098 C 
ENDROOT
BRANCH   1  14
ATOM     11  C   UNL     1      -0.125   1.075   0.236  0.00  0.00    +0.003 A 
ATOM     12  C   UNL     1       1.012   1.860   0.179  0.00  0.00    +0.020 A 
ATOM     13  C   UNL     1       2.259   1.266   0.102  0.00  0.00    +0.046 A 
ATOM     14  C   UNL     1       2.369  -0.112   0.082  0.00  0.00    +0.002 A 
ATOM     15  C   UNL     1       1.231  -0.897   0.139  0.00  0.00    +0.046 A 
ATOM     16  C   UNL     1      -0.016  -0.302   0.216  0.00  0.00    +0.020 A 
ATOM     17 CL   UNL     1       1.367  -2.627   0.113  0.00  0.00    -0.083 Cl
ATOM     18 CL   UNL     1       3.687   2.252   0.030  0.00  0.00    -0.083 Cl
ENDBRANCH   1  14
BRANCH   9  19
ATOM     19  N   UNL     1       4.048  -3.703   2.289  0.00  0.00    -0.328 N 
ATOM     20  H   UNL     1       3.973  -4.669   2.261  0.00  0.00    +0.145 HD
ATOM     21  H   UNL     1       4.271  -3.257   3.121  0.00  0.00    +0.145 HD
ENDBRANCH   9  19
BRANCH  10  22
ATOM     22  C   UNL     1       4.276  -1.002   2.458  0.00  0.00    +0.101 C 
ATOM     23  N   UNL     1       4.538  -0.511   3.449  0.00  0.00    -0.191 NA
ENDBRANCH  10  22
BRANCH   5  24
ATOM     24  O   UNL     1       4.019  -3.853  -4.706  0.00  0.00    -0.423 OA
BRANCH  24  25
ATOM     25  C   UNL     1       2.904  -4.472  -5.125  0.00  0.00    +0.350 C 
ATOM     26  O   UNL     1       1.855  -4.278  -4.557  0.00  0.00    -0.247 OA
BRANCH  25  27
ATOM     27  C   UNL     1       2.960  -5.409  -6.304  0.00  0.00    +0.349 C 
BRANCH  27  28
ATOM     28  O   UNL     1       1.656  -5.938  -6.554  0.00  0.00    -0.481 OA
BRANCH  28  29
ATOM     29  C   UNL     1       1.532  -6.807  -7.592  0.00  0.00    +0.121 A 
ATOM     30  C   UNL     1       2.642  -7.146  -8.351  0.00  0.00    +0.048 A 
ATOM     31  C   UNL     1       2.513  -8.029  -9.405  0.00  0.00    +0.036 A 
ATOM     32  C   UNL     1       1.278  -8.575  -9.705  0.00  0.00    +0.126 A 
ATOM     33  C   UNL     1       0.170  -8.238  -8.950  0.00  0.00    +0.036 A 
ATOM     34  C   UNL     1       0.295  -7.359  -7.891  0.00  0.00    +0.048 A 
BRANCH  32  35
ATOM     35  N   UNL     1       1.143  -9.521 -10.835  0.00  0.00    +0.056 N 
ATOM     36  O   UNL     1       2.111  -9.816 -11.496  0.00  0.00    -0.126 OA
ATOM     37  O   UNL     1       0.064  -9.998 -11.098  0.00  0.00    -0.126 OA
ENDBRANCH  32  35
ENDBRANCH  28  29
ENDBRANCH  27  28
ENDBRANCH  25  27
ENDBRANCH  24  25
ENDBRANCH   5  24
TORSDOF 9
