REMARK  Name = ZINC10267071
REMARK  10 active torsions:
REMARK  status: ('A' for Active; 'I' for Inactive)
REMARK    1  A    between atoms: C_1  and  C_2
REMARK    2  A    between atoms: C_4  and  C_32
REMARK    3  A    between atoms: C_6  and  S_10
REMARK    4  A    between atoms: C_7  and  C_8
REMARK    5  A    between atoms: S_10  and  C_11
REMARK    6  A    between atoms: C_11  and  C_13
REMARK    7  A    between atoms: C_11  and  C_14
REMARK    8  A    between atoms: N_16  and  C_17
REMARK    9  A    between atoms: C_20  and  S_23
REMARK   10  A    between atoms: S_23  and  N_26
REMARK                            x       y       z     vdW  Elec       q    Type
REMARK                         _______ _______ _______ _____ _____    ______ ____
ROOT
ATOM      1  C   UNL     1       4.054   6.799   1.359  0.00  0.00    +0.230 C 
ATOM      2  O   UNL     1       4.848   7.183   2.191  0.00  0.00    -0.274 OA
ATOM      3  N   UNL     1       3.438   7.688   0.554  0.00  0.00    -0.285 N 
ATOM      4  H   UNL     1       2.854   7.378  -0.155  0.00  0.00    +0.155 HD
ENDROOT
BRANCH   3   5
ATOM      5  C   UNL     1       3.642   9.060   0.742  0.00  0.00    +0.034 A 
ATOM      6  C   UNL     1       2.606   9.955   0.509  0.00  0.00    +0.025 A 
ATOM      7  C   UNL     1       2.809  11.308   0.701  0.00  0.00    +0.030 A 
ATOM      8  C   UNL     1       4.045  11.772   1.113  0.00  0.00    +0.106 A 
ATOM      9  C   UNL     1       5.080  10.883   1.340  0.00  0.00    +0.030 A 
ATOM     10  C   UNL     1       4.882   9.529   1.156  0.00  0.00    +0.025 A 
BRANCH   8  11
ATOM     11  S   UNL     1       4.301  13.499   1.349  0.00  0.00    +0.061 S 
ATOM     12  O   UNL     1       3.024  14.069   1.597  0.00  0.00    -0.153 OA
ATOM     13  O   UNL     1       5.384  13.628   2.261  0.00  0.00    -0.153 OA
BRANCH  11  14
ATOM     14  N   UNL     1       4.824  14.118  -0.095  0.00  0.00    -0.177 NA
ATOM     15  C   UNL     1       6.258  14.180  -0.409  0.00  0.00    +0.109 C 
ATOM     16  C   UNL     1       6.493  13.486  -1.759  0.00  0.00    +0.017 C 
ATOM     17  C   UNL     1       5.590  14.123  -2.818  0.00  0.00    +0.003 C 
ATOM     18  C   UNL     1       4.124  13.928  -2.425  0.00  0.00    +0.017 C 
ATOM     19  C   UNL     1       3.862  14.623  -1.085  0.00  0.00    +0.109 C 
ENDBRANCH  11  14
ENDBRANCH   8  11
ENDBRANCH   3   5
BRANCH   1  20
ATOM     20  C   UNL     1       3.754   5.328   1.224  0.00  0.00    +0.136 C 
ATOM     21  C   UNL     1       2.440   5.008   1.939  0.00  0.00    +0.029 C 
BRANCH  20  22
ATOM     22  S   UNL     1       5.096   4.369   1.970  0.00  0.00    -0.092 S 
BRANCH  22  28
ATOM     23  C   UNL     1       5.710  -0.868   2.003  0.00  0.00    +0.045 C 
ATOM     24  C   UNL     1       4.918   0.349   1.599  0.00  0.00    -0.029 A 
ATOM     25  C   UNL     1       3.744   0.223   0.877  0.00  0.00    +0.027 A 
ATOM     26  C   UNL     1       3.036   1.357   0.525  0.00  0.00    +0.040 A 
ATOM     27  N   UNL     1       3.459   2.560   0.861  0.00  0.00    -0.244 NA
ATOM     28  C   UNL     1       4.578   2.739   1.548  0.00  0.00    +0.115 A 
ATOM     29  C   UNL     1       5.354   1.634   1.941  0.00  0.00    +0.086 A 
ATOM     30  C   UNL     1       1.755   1.216  -0.258  0.00  0.00    +0.065 C 
BRANCH  29  31
ATOM     31  C   UNL     1       6.564   1.820   2.684  0.00  0.00    +0.102 C 
ATOM     32  N   UNL     1       7.524   1.968   3.272  0.00  0.00    -0.191 NA
ENDBRANCH  29  31
ENDBRANCH  22  28
ENDBRANCH  20  22
ENDBRANCH   1  20
TORSDOF 7
