REMARK  Name = ZINC32997981
REMARK  6 active torsions:
REMARK  status: ('A' for Active; 'I' for Inactive)
REMARK    1  A    between atoms: C_1  and  N_2
REMARK    2  A    between atoms: C_11  and  C_13
REMARK    3  A    between atoms: C_13  and  C_15
REMARK    4  A    between atoms: C_13  and  N_22
REMARK    5  A    between atoms: C_15  and  C_16
REMARK    6  A    between atoms: C_23  and  C_25
REMARK                            x       y       z     vdW  Elec       q    Type
REMARK                         _______ _______ _______ _____ _____    ______ ____
ROOT
ATOM      1  C   UNL     1       2.061  -7.746   2.966  0.00  0.00    +0.164 C 
ENDROOT
BRANCH   1  12
ATOM      2  C   UNL     1      -0.018   1.465   0.010  0.00  0.00    +0.105 C 
ATOM      3  N   UNL     1       0.002  -0.004   0.002  0.00  0.00    -0.300 NA
ATOM      4  C   UNL     1      -1.362  -0.549   0.020  0.00  0.00    +0.090 C 
ATOM      5  C   UNL     1      -1.348  -2.033  -0.362  0.00  0.00    +0.071 C 
ATOM      6  C   UNL     1      -0.326  -2.738   0.518  0.00  0.00    +0.056 A 
ATOM      7  C   UNL     1       0.616  -2.008   1.173  0.00  0.00    +0.028 A 
ATOM      8  S   UNL     1       1.533  -3.250   2.037  0.00  0.00    -0.055 S 
ATOM      9  C   UNL     1       0.655  -4.585   1.500  0.00  0.00    +0.165 A 
ATOM     10  N   UNL     1      -0.259  -4.049   0.721  0.00  0.00    -0.229 NA
ATOM     11  N   UNL     1       0.850  -5.927   1.806  0.00  0.00    -0.263 N 
ATOM     12  C   UNL     1       1.849  -6.291   2.634  0.00  0.00    +0.239 C 
ATOM     13  O   UNL     1       2.579  -5.448   3.111  0.00  0.00    -0.273 OA
ATOM     14  C   UNL     1       0.790  -0.529   1.135  0.00  0.00    +0.128 C 
ATOM     15  H   UNL     1       0.266  -6.601   1.425  0.00  0.00    +0.157 HD
ENDBRANCH   1  12
BRANCH   1  16
ATOM     16  N   UNL     1       2.845  -7.857   4.198  0.00  0.00    -0.299 N 
ATOM     17  C   UNL     1       4.082  -7.326   4.259  0.00  0.00    +0.251 C 
ATOM     18  O   UNL     1       4.548  -6.755   3.291  0.00  0.00    -0.270 OA
ATOM     19  H   UNL     1       2.474  -8.312   4.970  0.00  0.00    +0.150 HD
BRANCH  17  20
ATOM     20  C   UNL     1       4.867  -7.437   5.492  0.00  0.00    +0.074 A 
ATOM     21  C   UNL     1       6.141  -6.961   5.763  0.00  0.00    +0.021 A 
ATOM     22  C   UNL     1       6.620  -7.222   7.025  0.00  0.00    +0.008 A 
ATOM     23  C   UNL     1       5.840  -7.906   7.897  0.00  0.00    +0.046 A 
ATOM     24  S   UNL     1       4.429  -8.211   7.037  0.00  0.00    -0.092 S 
ENDBRANCH  17  20
ENDBRANCH   1  16
BRANCH   1  25
ATOM     25  C   UNL     1       2.812  -8.427   1.820  0.00  0.00    +0.067 C 
BRANCH  25  26
ATOM     26  C   UNL     1       2.915  -9.905   2.095  0.00  0.00    -0.045 A 
ATOM     27  C   UNL     1       3.995 -10.403   2.799  0.00  0.00    +0.004 A 
ATOM     28  C   UNL     1       4.090 -11.758   3.052  0.00  0.00    +0.000 A 
ATOM     29  C   UNL     1       3.104 -12.616   2.601  0.00  0.00    +0.000 A 
ATOM     30  C   UNL     1       2.024 -12.118   1.897  0.00  0.00    +0.000 A 
ATOM     31  C   UNL     1       1.927 -10.762   1.649  0.00  0.00    +0.004 A 
ENDBRANCH  25  26
ENDBRANCH   1  25
TORSDOF 5
