REMARK  Name = ZINC01826967
REMARK  3 active torsions:
REMARK  status: ('A' for Active; 'I' for Inactive)
REMARK    1  A    between atoms: C_1  and  C_2
REMARK    2  A    between atoms: C_5  and  C_8
REMARK    3  A    between atoms: C_10  and  C_18
REMARK                            x       y       z     vdW  Elec       q    Type
REMARK                         _______ _______ _______ _____ _____    ______ ____
ROOT
ATOM      1  C   UNL     1       0.060  -4.245  -0.021  0.00  0.00    +0.055 C 
ATOM      2  C   UNL     1       0.070  -4.972   1.294  0.00  0.00    +0.088 C 
ATOM      3  C   UNL     1      -0.698  -6.296   1.204  0.00  0.00    +0.150 C 
ATOM      4  N   UNL     1      -0.355  -6.933  -0.065  0.00  0.00    -0.202 N 
ATOM      5  C   UNL     1      -0.006  -6.221  -1.182  0.00  0.00    +0.270 A 
ATOM      6  N   UNL     1       0.220  -7.093  -2.130  0.00  0.00    -0.088 NA
ATOM      7  N   UNL     1       0.046  -8.291  -1.686  0.00  0.00    -0.021 NA
ATOM      8  N   UNL     1      -0.301  -8.271  -0.440  0.00  0.00    -0.042 NA
ATOM      9  N   UNL     1       0.062  -4.864  -1.171  0.00  0.00    -0.214 NA
ENDROOT
BRANCH   1  14
ATOM     10  C   UNL     1      -0.018   1.503   0.010  0.00  0.00    +0.044 C 
ATOM     11  C   UNL     1       0.002  -0.004   0.002  0.00  0.00    -0.050 A 
ATOM     12  C   UNL     1       0.006  -0.686  -1.202  0.00  0.00    +0.004 A 
ATOM     13  C   UNL     1       0.024  -2.064  -1.218  0.00  0.00    +0.010 A 
ATOM     14  C   UNL     1       0.040  -2.774  -0.013  0.00  0.00    -0.004 A 
ATOM     15  C   UNL     1       0.037  -2.078   1.200  0.00  0.00    +0.010 A 
ATOM     16  C   UNL     1       0.023  -0.699   1.199  0.00  0.00    +0.004 A 
ENDBRANCH   1  14
BRANCH   3  17
ATOM     17  C   UNL     1      -0.303  -7.192   2.349  0.00  0.00    -0.004 A 
ATOM     18  C   UNL     1       1.015  -7.580   2.500  0.00  0.00    +0.007 A 
ATOM     19  C   UNL     1       1.378  -8.402   3.550  0.00  0.00    +0.000 A 
ATOM     20  C   UNL     1       0.422  -8.838   4.450  0.00  0.00    +0.001 A 
ATOM     21  C   UNL     1      -0.896  -8.450   4.300  0.00  0.00    +0.020 A 
ATOM     22  C   UNL     1      -1.258  -7.623   3.252  0.00  0.00    +0.046 A 
ATOM     23 CL   UNL     1      -2.913  -7.131   3.066  0.00  0.00    -0.083 Cl
ENDBRANCH   3  17
TORSDOF 2
