REMARK  Name = ZINC09238144
REMARK  5 active torsions:
REMARK  status: ('A' for Active; 'I' for Inactive)
REMARK    1  A    between atoms: C_1  and  C_2
REMARK    2  A    between atoms: C_5  and  C_8
REMARK    3  A    between atoms: C_10  and  C_25
REMARK    4  A    between atoms: C_16  and  C_19
REMARK    5  A    between atoms: N_27  and  C_28
REMARK                            x       y       z     vdW  Elec       q    Type
REMARK                         _______ _______ _______ _____ _____    ______ ____
ROOT
ATOM      1  C   UNL     1      -2.208  -0.170   1.031  0.00  0.00    +0.140 C 
ATOM      2  C   UNL     1      -2.656   0.992   0.134  0.00  0.00    +0.166 C 
ATOM      3  S   UNL     1      -1.419   2.317   0.278  0.00  0.00    -0.069 S 
ATOM      4  C   UNL     1       0.028   1.312   0.160  0.00  0.00    +0.210 A 
ATOM      5  N   UNL     1       1.262   1.696  -0.029  0.00  0.00    -0.121 NA
ATOM      6  N   UNL     1       2.039   0.669  -0.043  0.00  0.00    -0.127 NA
ATOM      7  C   UNL     1       1.338  -0.428   0.133  0.00  0.00    +0.182 A 
ATOM      8  N   UNL     1       0.023  -0.051   0.262  0.00  0.00    -0.221 N 
ATOM      9  N   UNL     1      -1.056  -0.855   0.443  0.00  0.00    -0.272 N 
ATOM     10  H   UNL     1      -0.811  -1.674   0.978  0.00  0.00    +0.167 HD
ENDROOT
BRANCH   1  15
ATOM     11  C   UNL     1      -6.572  -3.915   1.600  0.00  0.00    +0.044 C 
ATOM     12  C   UNL     1      -5.434  -2.938   1.451  0.00  0.00    -0.050 A 
ATOM     13  C   UNL     1      -5.184  -2.012   2.446  0.00  0.00    +0.004 A 
ATOM     14  C   UNL     1      -4.140  -1.116   2.310  0.00  0.00    +0.006 A 
ATOM     15  C   UNL     1      -3.346  -1.147   1.179  0.00  0.00    -0.024 A 
ATOM     16  C   UNL     1      -3.599  -2.070   0.182  0.00  0.00    +0.006 A 
ATOM     17  C   UNL     1      -4.640  -2.969   0.320  0.00  0.00    +0.004 A 
ENDBRANCH   1  15
BRANCH   7  18
ATOM     18  C   UNL     1       1.864  -1.809   0.183  0.00  0.00    +0.021 A 
ATOM     19  C   UNL     1       1.004  -2.894   0.006  0.00  0.00    +0.011 A 
ATOM     20  C   UNL     1       1.503  -4.180   0.049  0.00  0.00    +0.001 A 
ATOM     21  C   UNL     1       2.850  -4.395   0.276  0.00  0.00    +0.000 A 
ATOM     22  C   UNL     1       3.707  -3.324   0.458  0.00  0.00    +0.001 A 
ATOM     23  C   UNL     1       3.223  -2.033   0.413  0.00  0.00    +0.011 A 
ENDBRANCH   7  18
BRANCH   2  24
ATOM     24  C   UNL     1      -2.743   0.528  -1.297  0.00  0.00    +0.233 C 
ATOM     25  O   UNL     1      -2.012  -0.356  -1.693  0.00  0.00    -0.274 OA
ATOM     26  N   UNL     1      -3.631   1.094  -2.137  0.00  0.00    -0.283 N 
ATOM     27  H   UNL     1      -4.170   1.844  -1.839  0.00  0.00    +0.155 HD
BRANCH  26  28
ATOM     28  C   UNL     1      -3.778   0.600  -3.438  0.00  0.00    +0.052 A 
ATOM     29  C   UNL     1      -2.720  -0.052  -4.058  0.00  0.00    +0.025 A 
ATOM     30  C   UNL     1      -2.870  -0.543  -5.340  0.00  0.00    +0.002 A 
ATOM     31  C   UNL     1      -4.067  -0.377  -6.012  0.00  0.00    +0.002 A 
ATOM     32  C   UNL     1      -5.121   0.278  -5.400  0.00  0.00    +0.022 A 
ATOM     33  C   UNL     1      -4.980   0.767  -4.115  0.00  0.00    +0.062 A 
ATOM     34 CL   UNL     1      -6.303   1.588  -3.348  0.00  0.00    -0.082 Cl
ENDBRANCH  26  28
ENDBRANCH   2  24
TORSDOF 4
