REMARK  Name = ZINC12715051
REMARK  10 active torsions:
REMARK  status: ('A' for Active; 'I' for Inactive)
REMARK    1  A    between atoms: C_1  and  C_2
REMARK    2  A    between atoms: C_5  and  C_7
REMARK    3  A    between atoms: C_7  and  C_9
REMARK    4  A    between atoms: C_7  and  N_19
REMARK    5  A    between atoms: N_11  and  C_12
REMARK    6  A    between atoms: C_12  and  C_13
REMARK    7  A    between atoms: N_19  and  C_20
REMARK    8  A    between atoms: C_27  and  C_29
REMARK    9  A    between atoms: C_30  and  N_37
REMARK   10  A    between atoms: C_31  and  C_34
REMARK                            x       y       z     vdW  Elec       q    Type
REMARK                         _______ _______ _______ _____ _____    ______ ____
ROOT
ATOM      1  N   UNL     1       2.610  -3.070   0.897  0.00  0.00    -0.245 N 
ATOM      2  C   UNL     1       3.332  -1.939   0.775  0.00  0.00    +0.262 C 
ATOM      3  O   UNL     1       3.097  -1.161  -0.132  0.00  0.00    -0.269 OA
ENDROOT
BRANCH   1   4
ATOM      4  C   UNL     1       2.880  -3.964   1.940  0.00  0.00    +0.073 A 
ATOM      5  C   UNL     1       3.800  -4.987   1.758  0.00  0.00    +0.026 A 
ATOM      6  C   UNL     1       4.065  -5.867   2.789  0.00  0.00    +0.002 A 
ATOM      7  C   UNL     1       3.415  -5.731   4.002  0.00  0.00    +0.003 A 
ATOM      8  C   UNL     1       2.498  -4.713   4.188  0.00  0.00    +0.040 A 
ATOM      9  C   UNL     1       2.231  -3.825   3.162  0.00  0.00    +0.145 A 
ATOM     10  F   UNL     1       1.339  -2.828   3.345  0.00  0.00    -0.204 F 
ENDBRANCH   1   4
BRANCH   2  11
ATOM     11  C   UNL     1       4.399  -1.645   1.733  0.00  0.00    +0.116 A 
ATOM     12  C   UNL     1       5.253  -0.543   1.794  0.00  0.00    +0.076 A 
ATOM     13  C   UNL     1       6.156  -0.599   2.854  0.00  0.00    +0.155 A 
ATOM     14  N   UNL     1       6.133  -1.631   3.671  0.00  0.00    -0.203 NA
ATOM     15  S   UNL     1       4.948  -2.594   3.137  0.00  0.00    +0.019 S 
BRANCH  13  16
ATOM     16  C   UNL     1       7.129   0.489   3.059  0.00  0.00    +0.262 C 
ATOM     17  O   UNL     1       7.082   1.486   2.365  0.00  0.00    -0.269 OA
ATOM     18  N   UNL     1       8.072   0.379   4.017  0.00  0.00    -0.324 N 
ATOM     19  H   UNL     1       8.109  -0.416   4.571  0.00  0.00    +0.145 HD
ATOM     20  H   UNL     1       8.712   1.095   4.152  0.00  0.00    +0.145 HD
ENDBRANCH  13  16
BRANCH  12  21
ATOM     21  N   UNL     1       5.209   0.507   0.887  0.00  0.00    -0.355 N 
ATOM     22  H   UNL     1       4.627   0.454   0.112  0.00  0.00    +0.142 HD
ATOM     23  H   UNL     1       5.759   1.294   1.027  0.00  0.00    +0.142 HD
ENDBRANCH  12  21
ENDBRANCH   2  11
BRANCH   1  24
ATOM     24  C   UNL     1       1.542  -3.364  -0.062  0.00  0.00    +0.233 C 
BRANCH  24  29
ATOM     25  C   UNL     1      -0.658   1.152   0.381  0.00  0.00    +0.086 C 
ATOM     26  C   UNL     1      -0.477  -0.335   0.219  0.00  0.00    +0.102 A 
ATOM     27  C   UNL     1      -1.464  -1.238   0.087  0.00  0.00    +0.045 A 
ATOM     28  C   UNL     1      -0.848  -2.504  -0.037  0.00  0.00    +0.047 A 
ATOM     29  C   UNL     1       0.480  -2.299   0.025  0.00  0.00    +0.135 A 
ATOM     30  O   UNL     1       0.699  -0.982   0.175  0.00  0.00    -0.462 OA
ENDBRANCH  24  29
BRANCH  24  31
ATOM     31  C   UNL     1       2.113  -3.391  -1.457  0.00  0.00    +0.242 C 
ATOM     32  O   UNL     1       3.266  -3.067  -1.647  0.00  0.00    -0.273 OA
ATOM     33  N   UNL     1       1.342  -3.776  -2.493  0.00  0.00    -0.311 N 
ATOM     34  H   UNL     1       0.419  -4.035  -2.341  0.00  0.00    +0.149 HD
BRANCH  33  35
ATOM     35  C   UNL     1       1.896  -3.802  -3.849  0.00  0.00    +0.135 C 
BRANCH  35  36
ATOM     36  C   UNL     1       0.821  -4.271  -4.831  0.00  0.00    +0.135 C 
ATOM     37  C   UNL     1       1.429  -4.418  -6.242  0.00  0.00    +0.035 C 
ATOM     38  C   UNL     1       0.289  -3.881  -7.150  0.00  0.00    +0.031 C 
ATOM     39  C   UNL     1      -0.311  -2.776  -6.245  0.00  0.00    +0.160 C 
ATOM     40  O   UNL     1      -0.226  -3.297  -4.908  0.00  0.00    -0.375 OA
ENDBRANCH  35  36
ENDBRANCH  33  35
ENDBRANCH  24  31
ENDBRANCH   1  24
TORSDOF 9
