REMARK  Name = ZINC01456561
REMARK  11 active torsions:
REMARK  status: ('A' for Active; 'I' for Inactive)
REMARK    1  A    between atoms: C_1  and  C_2
REMARK    2  A    between atoms: C_3  and  C_29
REMARK    3  A    between atoms: C_4  and  C_20
REMARK    4  A    between atoms: C_10  and  C_15
REMARK    5  A    between atoms: C_23  and  O_28
REMARK    6  A    between atoms: C_24  and  O_26
REMARK    7  A    between atoms: O_26  and  C_27
REMARK    8  A    between atoms: C_29  and  O_31
REMARK    9  A    between atoms: O_31  and  C_32
REMARK   10  A    between atoms: C_32  and  C_33
REMARK   11  A    between atoms: C_32  and  C_34
REMARK                            x       y       z     vdW  Elec       q    Type
REMARK                         _______ _______ _______ _____ _____    ______ ____
ROOT
ATOM      1  C   UNL     1       5.386   6.173   2.577  0.00  0.00    +0.061 C 
ATOM      2  C   UNL     1       5.481   4.821   1.918  0.00  0.00    +0.016 C 
ATOM      3  C   UNL     1       5.036   4.659   0.660  0.00  0.00    +0.065 C 
ATOM      4  C   UNL     1       5.106   3.325  -0.024  0.00  0.00    +0.092 C 
ATOM      5  C   UNL     1       6.078   2.408   0.675  0.00  0.00    +0.024 C 
ATOM      6  C   UNL     1       6.484   2.666   1.937  0.00  0.00    +0.016 C 
ATOM      7  N   UNL     1       6.020   3.768   2.604  0.00  0.00    -0.321 N 
ATOM      8  C   UNL     1       7.458   1.755   2.642  0.00  0.00    +0.060 C 
ATOM      9  C   UNL     1       7.279   0.322   2.137  0.00  0.00    +0.039 C 
ATOM     10  C   UNL     1       7.500   0.309   0.621  0.00  0.00    +0.088 C 
ATOM     11  C   UNL     1       6.546   1.279  -0.021  0.00  0.00    +0.162 C 
ATOM     12  O   UNL     1       6.172   1.084  -1.161  0.00  0.00    -0.292 OA
ATOM     13  H   UNL     1       6.084   3.801   3.701  0.00  0.00    +0.152 HD
ENDROOT
BRANCH   4  14
ATOM     14  C   UNL     1       3.738   2.693  -0.018  0.00  0.00    -0.032 A 
ATOM     15  C   UNL     1       3.120   2.397   1.183  0.00  0.00    +0.008 A 
ATOM     16  C   UNL     1       1.863   1.823   1.193  0.00  0.00    +0.049 A 
ATOM     17  C   UNL     1       1.224   1.533  -0.001  0.00  0.00    +0.158 A 
ATOM     18  C   UNL     1       1.845   1.831  -1.210  0.00  0.00    +0.162 A 
ATOM     19  C   UNL     1       3.103   2.412  -1.214  0.00  0.00    +0.054 A 
BRANCH  18  20
ATOM     20  O   UNL     1       1.220   1.554  -2.385  0.00  0.00    -0.491 OA
ATOM     21  C   UNL     1       1.917   1.888  -3.587  0.00  0.00    +0.277 C 
ENDBRANCH  18  20
BRANCH  17  22
ATOM     22  O   UNL     1      -0.011   0.963   0.007  0.00  0.00    -0.503 OA
ATOM     23  H   UNL     1      -0.517   0.733  -0.942  0.00  0.00    +0.292 HD
ENDBRANCH  17  22
ENDBRANCH   4  14
BRANCH   9  24
ATOM     24  C   UNL     1       8.287  -0.579   2.803  0.00  0.00    -0.006 A 
ATOM     25  C   UNL     1       8.076  -1.675   3.572  0.00  0.00    +0.011 A 
ATOM     26  C   UNL     1       9.165  -2.356   4.083  0.00  0.00    +0.008 A 
ATOM     27  C   UNL     1      10.412  -1.907   3.801  0.00  0.00    +0.045 A 
ATOM     28  S   UNL     1      10.070  -0.484   2.777  0.00  0.00    -0.101 S 
ENDBRANCH   9  24
BRANCH   3  29
ATOM     29  C   UNL     1       4.491   5.766  -0.031  0.00  0.00    +0.338 C 
ATOM     30  O   UNL     1       4.429   6.852   0.513  0.00  0.00    -0.245 OA
BRANCH  29  31
ATOM     31  O   UNL     1       4.040   5.617  -1.294  0.00  0.00    -0.459 OA
BRANCH  31  32
ATOM     32  C   UNL     1       3.503   6.777  -1.932  0.00  0.00    +0.171 C 
ATOM     33  C   UNL     1       3.737   6.684  -3.441  0.00  0.00    +0.052 C 
ATOM     34  C   UNL     1       2.001   6.862  -1.653  0.00  0.00    +0.052 C 
ENDBRANCH  31  32
ENDBRANCH  29  31
ENDBRANCH   3  29
TORSDOF 7
