REMARK  Name = ZINC48838686
REMARK  6 active torsions:
REMARK  status: ('A' for Active; 'I' for Inactive)
REMARK    1  A    between atoms: C_4  and  N_8
REMARK    2  A    between atoms: C_5  and  N_7
REMARK    3  A    between atoms: N_8  and  S_9
REMARK    4  A    between atoms: S_9  and  C_12
REMARK    5  A    between atoms: C_15  and  C_17
REMARK    6  A    between atoms: C_17  and  C_18
REMARK                            x       y       z     vdW  Elec       q    Type
REMARK                         _______ _______ _______ _____ _____    ______ ____
ROOT
ATOM      1  S   UNL     1       4.966   0.042   0.669  0.00  0.00    +0.079 S 
ATOM      2  O   UNL     1       6.056  -0.832   0.410  0.00  0.00    -0.149 OA
ATOM      3  O   UNL     1       4.977   1.409   0.281  0.00  0.00    -0.149 OA
ENDROOT
BRANCH   1   4
ATOM      4  C   UNL     1       4.703   0.016   2.412  0.00  0.00    +0.146 A 
ATOM      5  C   UNL     1       5.036  -0.942   3.311  0.00  0.00    +0.037 A 
ATOM      6  C   UNL     1       4.728  -0.746   4.644  0.00  0.00    +0.014 A 
ATOM      7  C   UNL     1       4.102   0.398   5.013  0.00  0.00    +0.002 A 
ATOM      8  S   UNL     1       3.934   1.247   3.451  0.00  0.00    -0.073 S 
BRANCH   7   9
ATOM      9  C   UNL     1       3.665   0.841   6.385  0.00  0.00    +0.167 C 
BRANCH   9  10
ATOM     10  C   UNL     1       4.779   1.615   7.042  0.00  0.00    +0.361 C 
ATOM     11  O   UNL     1       5.830   1.790   6.450  0.00  0.00    -0.246 OA
ATOM     12  O   UNL     1       4.629   2.065   8.165  0.00  0.00    -0.246 OA
ENDBRANCH   9  10
ENDBRANCH   7   9
ENDBRANCH   1   4
BRANCH   1  13
ATOM     13  N   UNL     1       3.633  -0.640  -0.037  0.00  0.00    -0.214 N 
ATOM     14  H   UNL     1       3.728  -1.438  -0.582  0.00  0.00    +0.174 HD
BRANCH  13  18
ATOM     15  C   UNL     1      -0.130   1.071   0.520  0.00  0.00    +0.002 A 
ATOM     16  C   UNL     1       0.990   1.876   0.420  0.00  0.00    +0.002 A 
ATOM     17  C   UNL     1       2.238   1.311   0.236  0.00  0.00    +0.026 A 
ATOM     18  C   UNL     1       2.370  -0.067   0.150  0.00  0.00    +0.069 A 
ATOM     19  C   UNL     1       1.241  -0.879   0.251  0.00  0.00    +0.047 A 
ATOM     20  C   UNL     1      -0.007  -0.304   0.435  0.00  0.00    +0.024 A 
BRANCH  19  21
ATOM     21  N   UNL     1       1.367  -2.271   0.165  0.00  0.00    -0.357 N 
ATOM     22  H   UNL     1       2.241  -2.671   0.035  0.00  0.00    +0.142 HD
ATOM     23  H   UNL     1       0.581  -2.834   0.235  0.00  0.00    +0.142 HD
ENDBRANCH  19  21
ENDBRANCH  13  18
ENDBRANCH   1  13
TORSDOF 6
