REMARK  Name = ZINC01790623
REMARK  10 active torsions:
REMARK  status: ('A' for Active; 'I' for Inactive)
REMARK    1  A    between atoms: C_1  and  C_2
REMARK    2  A    between atoms: C_7  and  N_8
REMARK    3  A    between atoms: C_9  and  C_11
REMARK    4  A    between atoms: C_11  and  S_12
REMARK    5  A    between atoms: S_12  and  C_13
REMARK    6  A    between atoms: C_18  and  S_31
REMARK    7  A    between atoms: C_27  and  C_29
REMARK    8  A    between atoms: C_27  and  C_30
REMARK    9  A    between atoms: S_31  and  C_32
REMARK   10  A    between atoms: C_32  and  C_33
REMARK                            x       y       z     vdW  Elec       q    Type
REMARK                         _______ _______ _______ _____ _____    ______ ____
ROOT
ATOM      1  C   UNL     1      -0.384  -0.118   7.687  0.00  0.00    +0.198 A 
ATOM      2  N   UNL     1      -0.409   1.194   7.713  0.00  0.00    -0.122 NA
ATOM      3  N   UNL     1      -0.508   1.615   8.926  0.00  0.00    -0.128 NA
ATOM      4  C   UNL     1      -0.553   0.594   9.745  0.00  0.00    +0.174 A 
ATOM      5  N   UNL     1      -0.479  -0.550   8.982  0.00  0.00    -0.248 N 
ATOM      6  C   UNL     1      -0.508  -1.785   9.575  0.00  0.00    +0.178 A 
ATOM      7  N   UNL     1      -0.609  -1.912  10.877  0.00  0.00    -0.216 NA
ATOM      8  C   UNL     1      -0.689  -0.861  11.690  0.00  0.00    +0.115 A 
ATOM      9  C   UNL     1      -0.663   0.459  11.214  0.00  0.00    +0.056 A 
ATOM     10  C   UNL     1      -0.761   1.503  12.227  0.00  0.00    -0.019 A 
ATOM     11  C   UNL     1      -0.853   1.104  13.517  0.00  0.00    +0.021 A 
ATOM     12  S   UNL     1      -0.832  -0.664  13.450  0.00  0.00    -0.071 S 
ATOM     13  C   UNL     1      -0.961   1.996  14.715  0.00  0.00    +0.203 C 
ATOM     14  O   UNL     1      -0.635   3.333  14.300  0.00  0.00    -0.368 OA
ATOM     15  C   UNL     1      -1.319   3.745  13.114  0.00  0.00    +0.068 C 
ATOM     16  C   UNL     1      -0.768   2.994  11.899  0.00  0.00    +0.071 C 
ATOM     17  C   UNL     1      -1.124   5.249  12.913  0.00  0.00    +0.041 C 
ATOM     18  C   UNL     1      -2.813   3.446  13.260  0.00  0.00    +0.041 C 
ENDROOT
BRANCH   1  19
ATOM     19  S   UNL     1      -0.259  -1.133   6.252  0.00  0.00    -0.076 S 
BRANCH  19  20
ATOM     20  C   UNL     1      -0.168   0.052   4.882  0.00  0.00    +0.173 C 
BRANCH  20  22
ATOM     21  N   UNL     1       0.025  -0.015   2.417  0.00  0.00    -0.285 N 
ATOM     22  C   UNL     1      -0.056  -0.694   3.578  0.00  0.00    +0.227 C 
ATOM     23  O   UNL     1      -0.040  -1.907   3.573  0.00  0.00    -0.275 OA
ATOM     24  H   UNL     1       0.078   0.954   2.425  0.00  0.00    +0.155 HD
BRANCH  21  31
ATOM     25  C   UNL     1      -1.264   1.184   0.181  0.00  0.00    +0.045 C 
ATOM     26  C   UNL     1      -0.584  -0.158   0.084  0.00  0.00    -0.029 A 
ATOM     27  C   UNL     1      -0.568  -0.840  -1.117  0.00  0.00    +0.005 A 
ATOM     28  C   UNL     1       0.055  -2.071  -1.206  0.00  0.00    +0.000 A 
ATOM     29  C   UNL     1       0.666  -2.622  -0.095  0.00  0.00    +0.002 A 
ATOM     30  C   UNL     1       0.655  -1.945   1.108  0.00  0.00    +0.023 A 
ATOM     31  C   UNL     1       0.034  -0.706   1.201  0.00  0.00    +0.036 A 
ENDBRANCH  21  31
ENDBRANCH  20  22
ENDBRANCH  19  20
ENDBRANCH   1  19
BRANCH   6  32
ATOM     32  S   UNL     1      -0.407  -3.229   8.570  0.00  0.00    -0.083 S 
BRANCH  32  33
ATOM     33  C   UNL     1      -0.481  -4.597   9.760  0.00  0.00    +0.112 C 
BRANCH  33  34
ATOM     34  C   UNL     1      -0.403  -5.908   9.022  0.00  0.00    -0.037 A 
ATOM     35  C   UNL     1      -1.561  -6.525   8.585  0.00  0.00    +0.004 A 
ATOM     36  C   UNL     1      -1.490  -7.728   7.909  0.00  0.00    +0.000 A 
ATOM     37  C   UNL     1      -0.261  -8.315   7.669  0.00  0.00    +0.000 A 
ATOM     38  C   UNL     1       0.896  -7.698   8.105  0.00  0.00    +0.000 A 
ATOM     39  C   UNL     1       0.825  -6.493   8.778  0.00  0.00    +0.004 A 
ENDBRANCH  33  34
ENDBRANCH  32  33
ENDBRANCH   6  32
TORSDOF 7
