REMARK  Name = ZINC13033294
REMARK  10 active torsions:
REMARK  status: ('A' for Active; 'I' for Inactive)
REMARK    1  A    between atoms: C_1  and  C_2
REMARK    2  A    between atoms: C_2  and  C_3
REMARK    3  A    between atoms: C_10  and  C_15
REMARK    4  A    between atoms: C_15  and  N_66
REMARK    5  A    between atoms: C_16  and  C_17
REMARK    6  A    between atoms: C_16  and  N_66
REMARK    7  A    between atoms: C_20  and  C_23
REMARK    8  A    between atoms: C_24  and  C_25
REMARK    9  A    between atoms: C_24  and  N_66
REMARK   10  A    between atoms: N_29  and  C_30
REMARK                            x       y       z     vdW  Elec       q    Type
REMARK                         _______ _______ _______ _____ _____    ______ ____
ROOT
ATOM      1  N   UNL     1       1.195  -2.511   1.508  0.00  0.00    +0.390 N 
ATOM      2  H   UNL     1       1.789  -1.964   2.142  0.00  0.00    -0.080 HD
ENDROOT
BRANCH   1   3
ATOM      3  C   UNL     1       1.356  -1.994   0.133  0.00  0.00    -0.036 C 
BRANCH   3  11
ATOM      4  C   UNL     1       2.754   4.028   0.401  0.00  0.00    -0.047 A 
ATOM      5  C   UNL     1       1.452   4.495   0.289  0.00  0.00    +0.005 A 
ATOM      6  C   UNL     1       0.397   3.616   0.171  0.00  0.00    +0.026 A 
ATOM      7  C   UNL     1       0.638   2.246   0.162  0.00  0.00    +0.049 A 
ATOM      8  C   UNL     1       1.960   1.776   0.275  0.00  0.00    -0.001 A 
ATOM      9  C   UNL     1       3.015   2.687   0.395  0.00  0.00    +0.013 A 
ATOM     10  C   UNL     1       2.203   0.332   0.265  0.00  0.00    +0.017 A 
ATOM     11  C   UNL     1       1.141  -0.502   0.146  0.00  0.00    +0.001 A 
ATOM     12  C   UNL     1      -0.166   0.020   0.036  0.00  0.00    +0.251 A 
ATOM     13  O   UNL     1      -1.106  -0.748  -0.070  0.00  0.00    -0.268 OA
ATOM     14  N   UNL     1      -0.399   1.345   0.044  0.00  0.00    -0.322 N 
ATOM     15  H   UNL     1      -1.308   1.670  -0.039  0.00  0.00    +0.169 HD
BRANCH   4  17
ATOM     16  C   UNL     1       4.410   5.373  -0.863  0.00  0.00    +0.009 C 
ATOM     17  C   UNL     1       3.891   5.008   0.529  0.00  0.00    +0.032 C 
ENDBRANCH   4  17
ENDBRANCH   3  11
ENDBRANCH   1   3
BRANCH   1  18
ATOM     18  C   UNL     1      -0.214  -2.378   1.936  0.00  0.00    -0.042 C 
BRANCH  18  19
ATOM     19  C   UNL     1      -0.321  -2.771   3.387  0.00  0.00    -0.064 A 
ATOM     20  C   UNL     1      -0.728  -4.047   3.730  0.00  0.00    +0.002 A 
ATOM     21  C   UNL     1      -0.822  -4.408   5.061  0.00  0.00    +0.003 A 
ATOM     22  C   UNL     1      -0.519  -3.490   6.049  0.00  0.00    -0.050 A 
ATOM     23  C   UNL     1      -0.117  -2.213   5.707  0.00  0.00    +0.003 A 
ATOM     24  C   UNL     1      -0.019  -1.853   4.375  0.00  0.00    +0.002 A 
ATOM     25  C   UNL     1      -0.626  -3.883   7.500  0.00  0.00    +0.044 C 
ENDBRANCH  18  19
ENDBRANCH   1  18
BRANCH   1  26
ATOM     26  C   UNL     1       1.609  -3.929   1.566  0.00  0.00    +0.001 C 
BRANCH  26  27
ATOM     27  C   UNL     1       3.112  -3.998   1.485  0.00  0.00    +0.135 A 
ATOM     28  N   UNL     1       3.829  -4.213   0.409  0.00  0.00    -0.115 NA
ATOM     29  N   UNL     1       5.071  -4.197   0.749  0.00  0.00    -0.023 NA
ATOM     30  N   UNL     1       5.166  -3.985   2.015  0.00  0.00    -0.044 NA
ATOM     31  N   UNL     1       3.979  -3.857   2.505  0.00  0.00    -0.228 N 
BRANCH  31  32
ATOM     32  C   UNL     1       3.639  -3.605   3.908  0.00  0.00    +0.111 C 
ATOM     33  C   UNL     1       4.216  -2.246   4.356  0.00  0.00    +0.027 C 
ATOM     34  C   UNL     1       4.665  -2.489   5.819  0.00  0.00    +0.002 C 
ATOM     35  C   UNL     1       5.230  -3.930   5.770  0.00  0.00    +0.002 C 
ATOM     36  C   UNL     1       4.283  -4.675   4.806  0.00  0.00    +0.027 C 
ENDBRANCH  31  32
ENDBRANCH  26  27
ENDBRANCH   1  26
TORSDOF 8
