REMARK  Name = ZINC14189102
REMARK  8 active torsions:
REMARK  status: ('A' for Active; 'I' for Inactive)
REMARK    1  A    between atoms: C_1  and  C_2
REMARK    2  A    between atoms: C_5  and  C_8
REMARK    3  A    between atoms: C_8  and  N_9
REMARK    4  A    between atoms: C_10  and  C_12
REMARK    5  A    between atoms: C_17  and  N_18
REMARK    6  A    between atoms: C_19  and  C_21
REMARK    7  A    between atoms: C_21  and  N_59
REMARK    8  A    between atoms: C_29  and  C_31
REMARK                            x       y       z     vdW  Elec       q    Type
REMARK                         _______ _______ _______ _____ _____    ______ ____
ROOT
ATOM      1  C   UNL     1      -0.984  -0.794   0.210  0.00  0.00    +0.058 A 
ATOM      2  C   UNL     1      -0.795  -2.177   0.258  0.00  0.00    +0.015 A 
ATOM      3  C   UNL     1       0.476  -2.701   0.167  0.00  0.00    +0.001 A 
ATOM      4  C   UNL     1       1.570  -1.863   0.022  0.00  0.00    +0.002 A 
ATOM      5  C   UNL     1       1.399  -0.494  -0.032  0.00  0.00    +0.024 A 
ATOM      6  C   UNL     1       0.125   0.051   0.058  0.00  0.00    +0.045 A 
ENDROOT
BRANCH   1   8
ATOM      7  N   UNL     1      -3.393  -1.033   0.559  0.00  0.00    -0.307 N 
ATOM      8  C   UNL     1      -2.341  -0.226   0.314  0.00  0.00    +0.246 C 
ATOM      9  O   UNL     1      -2.512   0.970   0.177  0.00  0.00    -0.270 OA
ATOM     10  H   UNL     1      -3.256  -1.988   0.667  0.00  0.00    +0.149 HD
BRANCH   7  11
ATOM     11  C   UNL     1      -4.741  -0.469   0.661  0.00  0.00    +0.139 C 
BRANCH  11  16
ATOM     12  C   UNL     1      -8.526  -4.705   1.720  0.00  0.00    +0.044 C 
ATOM     13  C   UNL     1      -7.539  -3.600   1.444  0.00  0.00    -0.050 A 
ATOM     14  C   UNL     1      -6.931  -2.938   2.494  0.00  0.00    +0.003 A 
ATOM     15  C   UNL     1      -6.026  -1.925   2.241  0.00  0.00    +0.005 A 
ATOM     16  C   UNL     1      -5.728  -1.574   0.937  0.00  0.00    -0.030 A 
ATOM     17  C   UNL     1      -6.339  -2.233  -0.113  0.00  0.00    +0.005 A 
ATOM     18  C   UNL     1      -7.241  -3.249   0.141  0.00  0.00    +0.003 A 
ENDBRANCH  11  16
ENDBRANCH   7  11
ENDBRANCH   1   8
BRANCH   6  19
ATOM     19  N   UNL     1      -0.050   1.432   0.004  0.00  0.00    -0.286 N 
ATOM     20  C   UNL     1       0.868   2.250   0.556  0.00  0.00    +0.201 C 
ATOM     21  O   UNL     1       1.886   1.789   1.027  0.00  0.00    -0.278 OA
ATOM     22  H   UNL     1      -0.831   1.805  -0.434  0.00  0.00    +0.155 HD
BRANCH  20  23
ATOM     23  C   UNL     1       0.630   3.738   0.587  0.00  0.00    +0.020 C 
BRANCH  23  33
ATOM     24  C   UNL     1       1.860   4.028   2.654  0.00  0.00    -0.055 C 
ATOM     25  C   UNL     1       3.239   4.411   3.204  0.00  0.00    +0.103 C 
ATOM     26  N   UNL     1       3.503   5.810   2.847  0.00  0.00    -0.354 N 
ATOM     27  C   UNL     1       4.431   6.647   3.376  0.00  0.00    +0.086 A 
ATOM     28  C   UNL     1       4.322   7.843   2.757  0.00  0.00    +0.019 A 
ATOM     29  C   UNL     1       3.284   7.735   1.807  0.00  0.00    +0.021 A 
ATOM     30  C   UNL     1       2.803   6.485   1.882  0.00  0.00    +0.005 A 
ATOM     31  C   UNL     1       1.688   5.865   1.075  0.00  0.00    -0.023 C 
ATOM     32  C   UNL     1       1.850   6.233  -0.401  0.00  0.00    -0.007 C 
ATOM     33  N   UNL     1       1.794   4.393   1.222  0.00  0.00    +0.392 N 
ATOM     34  H   UNL     1       2.651   4.072   0.757  0.00  0.00    -0.080 HD
ENDBRANCH  23  33
ENDBRANCH  20  23
ENDBRANCH   6  19
TORSDOF 6
