REMARK  Name = ZINC27700604
REMARK  12 active torsions:
REMARK  status: ('A' for Active; 'I' for Inactive)
REMARK    1  A    between atoms: C_1  and  C_2
REMARK    2  A    between atoms: C_7  and  C_8
REMARK    3  A    between atoms: N_10  and  C_11
REMARK    4  A    between atoms: C_11  and  C_13
REMARK    5  A    between atoms: C_11  and  C_17
REMARK    6  A    between atoms: C_13  and  C_14
REMARK    7  A    between atoms: C_14  and  C_15
REMARK    8  A    between atoms: C_14  and  C_16
REMARK    9  A    between atoms: N_19  and  C_20
REMARK   10  A    between atoms: C_20  and  C_21
REMARK   11  A    between atoms: C_21  and  N_22
REMARK   12  A    between atoms: C_26  and  C_27
REMARK                            x       y       z     vdW  Elec       q    Type
REMARK                         _______ _______ _______ _____ _____    ______ ____
ROOT
ATOM      1  C   UNL     1      -1.051  -0.400   0.795  0.00  0.00    +0.233 C 
ATOM      2  O   UNL     1      -1.847   0.481   0.550  0.00  0.00    -0.274 OA
ATOM      3  N   UNL     1       0.265  -0.117   0.872  0.00  0.00    -0.312 N 
ATOM      4  H   UNL     1       0.987  -0.917   1.095  0.00  0.00    +0.149 HD
ENDROOT
BRANCH   1   5
ATOM      5  C   UNL     1      -1.532  -1.811   1.014  0.00  0.00    +0.159 C 
BRANCH   5   8
ATOM      6  C   UNL     1      -3.546  -3.046   0.417  0.00  0.00    +0.245 C 
ATOM      7  O   UNL     1      -2.853  -4.022   0.208  0.00  0.00    -0.270 OA
ATOM      8  N   UNL     1      -2.976  -1.878   0.773  0.00  0.00    -0.300 N 
ATOM      9  H   UNL     1      -3.594  -0.975   0.883  0.00  0.00    +0.150 HD
BRANCH   6  16
ATOM     10  C   UNL     1      -4.741  -5.499  -0.544  0.00  0.00    +0.044 C 
ATOM     11  C   UNL     1      -5.603  -4.318  -0.180  0.00  0.00    -0.038 A 
ATOM     12  C   UNL     1      -6.975  -4.399  -0.303  0.00  0.00    +0.004 A 
ATOM     13  C   UNL     1      -7.768  -3.316   0.031  0.00  0.00    +0.000 A 
ATOM     14  C   UNL     1      -7.192  -2.145   0.490  0.00  0.00    +0.001 A 
ATOM     15  C   UNL     1      -5.822  -2.052   0.623  0.00  0.00    +0.013 A 
ATOM     16  C   UNL     1      -5.016  -3.140   0.282  0.00  0.00    +0.040 A 
ENDBRANCH   6  16
ENDBRANCH   5   8
BRANCH   5  17
ATOM     17  C   UNL     1      -1.236  -2.233   2.455  0.00  0.00    +0.034 C 
BRANCH  17  18
ATOM     18  C   UNL     1      -2.068  -1.383   3.417  0.00  0.00    -0.015 C 
ATOM     19  C   UNL     1      -1.907  -1.919   4.841  0.00  0.00    +0.007 C 
ATOM     20  C   UNL     1      -1.587   0.068   3.361  0.00  0.00    +0.007 C 
ENDBRANCH  17  18
ENDBRANCH   5  17
ENDBRANCH   1   5
BRANCH   3  21
ATOM     21  C   UNL     1       0.733   1.254   0.659  0.00  0.00    +0.123 C 
BRANCH  21  22
ATOM     22  C   UNL     1       2.255   1.302   0.801  0.00  0.00    +0.136 C 
BRANCH  22  23
ATOM     23  N   UNL     1       2.723   2.673   0.588  0.00  0.00    -0.227 N 
ATOM     24  C   UNL     1       2.818   3.492   1.622  0.00  0.00    +0.260 C 
ATOM     25  O   UNL     1       2.526   3.135   2.749  0.00  0.00    -0.269 OA
ATOM     26  C   UNL     1       3.296   4.861   1.341  0.00  0.00    +0.080 C 
ATOM     27  C   UNL     1       3.491   5.900   2.191  0.00  0.00    +0.031 C 
ATOM     28  S   UNL     1       3.548   4.771  -0.426  0.00  0.00    -0.026 S 
ATOM     29  C   UNL     1       3.053   3.071  -0.658  0.00  0.00    +0.286 C 
ATOM     30  O   UNL     1       3.019   2.428  -1.690  0.00  0.00    -0.262 OA
BRANCH  27  31
ATOM     31  C   UNL     1       3.825   7.229   1.661  0.00  0.00    +0.011 A 
ATOM     32  C   UNL     1       3.586   7.531   0.315  0.00  0.00    +0.011 A 
ATOM     33  C   UNL     1       3.897   8.782  -0.173  0.00  0.00    +0.001 A 
ATOM     34  C   UNL     1       4.454   9.737   0.661  0.00  0.00    +0.003 A 
ATOM     35  C   UNL     1       4.699   9.448   1.991  0.00  0.00    +0.039 A 
ATOM     36  C   UNL     1       4.389   8.201   2.499  0.00  0.00    +0.131 A 
ATOM     37  F   UNL     1       4.630   7.919   3.798  0.00  0.00    -0.205 F 
ENDBRANCH  27  31
ENDBRANCH  22  23
ENDBRANCH  21  22
ENDBRANCH   3  21
TORSDOF 9
