REMARK  Name = ZINC63175498
REMARK  4 active torsions:
REMARK  status: ('A' for Active; 'I' for Inactive)
REMARK    1  A    between atoms: C_6  and  S_7
REMARK    2  A    between atoms: S_7  and  N_10
REMARK    3  A    between atoms: N_10  and  C_11
REMARK    4  A    between atoms: C_16  and  N_18
REMARK                            x       y       z     vdW  Elec       q    Type
REMARK                         _______ _______ _______ _____ _____    ______ ____
ROOT
ATOM      1  S   UNL     1      -1.513  -0.903   0.013  0.00  0.00    +0.059 S 
ATOM      2  O   UNL     1      -1.222  -2.184   0.554  0.00  0.00    -0.153 OA
ATOM      3  O   UNL     1      -2.492  -0.042   0.578  0.00  0.00    -0.153 OA
ENDROOT
BRANCH   1   9
ATOM      4  C   UNL     1      -0.017   1.378   0.010  0.00  0.00    +0.032 A 
ATOM      5  C   UNL     1       1.169   2.091   0.002  0.00  0.00    +0.049 A 
ATOM      6  C   UNL     1       2.378   1.419  -0.013  0.00  0.00    +0.142 A 
ATOM      7  C   UNL     1       2.397   0.025  -0.021  0.00  0.00    +0.078 A 
ATOM      8  C   UNL     1       1.207  -0.684  -0.013  0.00  0.00    +0.055 A 
ATOM      9  C   UNL     1       0.002  -0.004   0.002  0.00  0.00    +0.107 A 
ATOM     10  N   UNL     1       3.629  -0.644  -0.038  0.00  0.00    -0.280 N 
ATOM     11  C   UNL     1       4.751   0.043   0.269  0.00  0.00    +0.255 C 
ATOM     12  O   UNL     1       5.831  -0.507   0.231  0.00  0.00    -0.272 OA
ATOM     13  C   UNL     1       4.655   1.496   0.659  0.00  0.00    +0.325 C 
ATOM     14  O   UNL     1       3.552   2.104  -0.020  0.00  0.00    -0.481 OA
ATOM     15  H   UNL     1       3.675  -1.586  -0.267  0.00  0.00    +0.155 HD
ENDBRANCH   1   9
BRANCH   1  16
ATOM     16  N   UNL     1      -1.950  -1.144  -1.566  0.00  0.00    -0.188 NA
ATOM     17  H   UNL     1      -2.757  -0.734  -1.914  0.00  0.00    +0.148 HD
BRANCH  16  18
ATOM     18  C   UNL     1      -1.118  -1.978  -2.438  0.00  0.00    +0.062 C 
ATOM     19  C   UNL     1      -0.196  -1.100  -3.319  0.00  0.00    +0.019 C 
ATOM     20  C   UNL     1       0.127  -1.993  -4.535  0.00  0.00    -0.000 C 
ATOM     21  C   UNL     1      -1.013  -3.021  -4.640  0.00  0.00    -0.015 C 
ATOM     22  C   UNL     1      -1.989  -2.722  -3.481  0.00  0.00    -0.056 C 
BRANCH  22  23
ATOM     23  N   UNL     1      -2.518  -3.969  -2.913  0.00  0.00    +0.381 N 
ATOM     24  H   UNL     1      -3.084  -3.757  -2.105  0.00  0.00    -0.090 HD
ATOM     25  H   UNL     1      -3.082  -4.440  -3.604  0.00  0.00    -0.090 HD
ATOM     26  H   UNL     1      -1.752  -4.566  -2.640  0.00  0.00    -0.090 HD
ENDBRANCH  22  23
ENDBRANCH  16  18
ENDBRANCH   1  16
TORSDOF 4
