REMARK  Name = ZINC12755686
REMARK  8 active torsions:
REMARK  status: ('A' for Active; 'I' for Inactive)
REMARK    1  A    between atoms: C_1  and  C_2
REMARK    2  A    between atoms: C_4  and  C_25
REMARK    3  A    between atoms: C_6  and  C_22
REMARK    4  A    between atoms: C_10  and  C_11
REMARK    5  A    between atoms: N_13  and  C_14
REMARK    6  A    between atoms: C_19  and  C_20
REMARK    7  A    between atoms: C_19  and  C_21
REMARK    8  A    between atoms: C_19  and  N_54
REMARK                            x       y       z     vdW  Elec       q    Type
REMARK                         _______ _______ _______ _____ _____    ______ ____
ROOT
ATOM      1  C   UNL     1       2.701  -0.008  -0.360  0.00  0.00    +0.046 C 
ATOM      2  C   UNL     1       2.462   1.479  -0.321  0.00  0.00    -0.020 A 
ATOM      3  C   UNL     1       3.545   2.369  -0.408  0.00  0.00    +0.032 A 
ATOM      4  C   UNL     1       4.928   2.090  -0.537  0.00  0.00    +0.050 A 
ATOM      5  N   UNL     1       5.783   3.086  -0.603  0.00  0.00    -0.236 NA
ATOM      6  C   UNL     1       5.403   4.351  -0.552  0.00  0.00    +0.134 A 
ATOM      7  N   UNL     1       4.131   4.682  -0.433  0.00  0.00    -0.225 NA
ATOM      8  C   UNL     1       3.209   3.747  -0.360  0.00  0.00    +0.113 A 
ATOM      9  S   UNL     1       1.441   3.731  -0.207  0.00  0.00    -0.064 S 
ATOM     10  C   UNL     1       1.197   1.963  -0.200  0.00  0.00    +0.079 A 
ATOM     11  C   UNL     1       5.414   0.664  -0.599  0.00  0.00    +0.066 C 
ENDROOT
BRANCH  10  12
ATOM     12  C   UNL     1      -0.063   1.214  -0.096  0.00  0.00    +0.251 C 
ATOM     13  O   UNL     1      -0.051  -0.003  -0.113  0.00  0.00    -0.270 OA
ATOM     14  N   UNL     1      -1.233   1.874   0.013  0.00  0.00    -0.308 N 
ATOM     15  H   UNL     1      -1.243   2.844   0.027  0.00  0.00    +0.149 HD
BRANCH  14  16
ATOM     16  C   UNL     1      -2.490   1.128   0.111  0.00  0.00    +0.070 C 
ATOM     17  C   UNL     1      -2.992   0.784  -1.294  0.00  0.00    +0.004 C 
ATOM     18  C   UNL     1      -4.335   0.058  -1.188  0.00  0.00    -0.077 C 
ATOM     19  C   UNL     1      -4.867   1.223   0.869  0.00  0.00    -0.077 C 
ATOM     20  C   UNL     1      -3.540   1.984   0.824  0.00  0.00    +0.004 C 
ATOM     21  N   UNL     1      -5.307   0.944  -0.514  0.00  0.00    +0.381 N 
ATOM     22  H   UNL     1      -5.364   1.830  -1.030  0.00  0.00    -0.081 HD
BRANCH  21  23
ATOM     23  C   UNL     1      -6.642   0.311  -0.501  0.00  0.00    -0.075 C 
ATOM     24  C   UNL     1      -7.063   0.009  -1.940  0.00  0.00    -0.014 C 
ATOM     25  C   UNL     1      -6.612  -0.989   0.306  0.00  0.00    -0.014 C 
ENDBRANCH  21  23
ENDBRANCH  14  16
ENDBRANCH  10  12
BRANCH   6  26
ATOM     26  C   UNL     1       6.443   5.439  -0.633  0.00  0.00    +0.057 C 
ATOM     27  C   UNL     1       5.986   6.875  -0.369  0.00  0.00    +0.012 C 
ATOM     28  C   UNL     1       6.337   6.433  -1.791  0.00  0.00    +0.012 C 
ENDBRANCH   6  26
TORSDOF 4
