REMARK  Name = ZINC39545624
REMARK  6 active torsions:
REMARK  status: ('A' for Active; 'I' for Inactive)
REMARK    1  A    between atoms: C_1  and  C_2
REMARK    2  A    between atoms: C_2  and  O_3
REMARK    3  A    between atoms: O_3  and  N_4
REMARK    4  A    between atoms: N_4  and  C_5
REMARK    5  A    between atoms: C_10  and  O_11
REMARK    6  A    between atoms: C_12  and  C_14
REMARK                            x       y       z     vdW  Elec       q    Type
REMARK                         _______ _______ _______ _____ _____    ______ ____
ROOT
ATOM      1  C   UNL     1       3.207  -1.325   0.039  0.00  0.00    +0.153 C 
ATOM      2  C   UNL     1       2.662  -0.630   1.302  0.00  0.00    +0.100 C 
ATOM      3  C   UNL     1       3.671  -0.972   2.375  0.00  0.00    +0.137 C 
ATOM      4  C   UNL     1       4.614  -1.722   1.863  0.00  0.00    +0.107 C 
ATOM      5  N   UNL     1       5.750  -2.210   2.545  0.00  0.00    -0.302 N 
ATOM      6  C   UNL     1       6.925  -2.257   1.776  0.00  0.00    +0.037 A 
ATOM      7  C   UNL     1       8.126  -2.611   2.373  0.00  0.00    +0.023 A 
ATOM      8  C   UNL     1       9.280  -2.666   1.615  0.00  0.00    +0.002 A 
ATOM      9  C   UNL     1       9.230  -2.369   0.265  0.00  0.00    +0.000 A 
ATOM     10  C   UNL     1       8.035  -2.013  -0.328  0.00  0.00    +0.007 A 
ATOM     11  C   UNL     1       6.873  -1.949   0.424  0.00  0.00    -0.010 A 
ATOM     12  C   UNL     1       5.591  -1.531  -0.247  0.00  0.00    +0.124 C 
ATOM     13  N   UNL     1       4.426  -2.008   0.500  0.00  0.00    -0.368 NA
ATOM     14  F   UNL     1       3.609  -0.567   3.663  0.00  0.00    -0.207 F 
ATOM     15  H   UNL     1       5.721  -2.492   3.473  0.00  0.00    +0.153 HD
ATOM     16  H   UNL     1       4.327  -3.003   0.371  0.00  0.00    +0.129 HD
ENDROOT
BRANCH   1  18
ATOM     17  N   UNL     1       1.239  -1.926  -1.334  0.00  0.00    -0.143 N 
ATOM     18  C   UNL     1       2.208  -2.324  -0.486  0.00  0.00    +0.262 C 
ATOM     19  O   UNL     1       2.277  -3.486  -0.146  0.00  0.00    -0.271 OA
BRANCH  17  20
ATOM     20  C   UNL     1       1.098  -0.568  -1.649  0.00  0.00    +0.106 A 
ATOM     21  C   UNL     1       1.854  -0.009  -2.669  0.00  0.00    +0.029 A 
ATOM     22  C   UNL     1       1.713   1.330  -2.978  0.00  0.00    +0.002 A 
ATOM     23  C   UNL     1       0.820   2.116  -2.274  0.00  0.00    +0.004 A 
ATOM     24  C   UNL     1       0.063   1.566  -1.256  0.00  0.00    +0.047 A 
ATOM     25  C   UNL     1       0.194   0.222  -0.944  0.00  0.00    +0.140 A 
BRANCH  25  26
ATOM     26  O   UNL     1      -0.555  -0.322   0.052  0.00  0.00    -0.505 OA
ATOM     27  H   UNL     1      -0.107  -0.351   0.909  0.00  0.00    +0.292 HD
ENDBRANCH  25  26
ENDBRANCH  17  20
BRANCH  17  28
ATOM     28  O   UNL     1       0.363  -2.881  -1.905  0.00  0.00    -0.273 OA
BRANCH  28  30
ATOM     29  C   UNL     1      -0.120  -4.548  -3.587  0.00  0.00    +0.036 C 
ATOM     30  C   UNL     1       0.840  -3.449  -3.127  0.00  0.00    +0.187 C 
ENDBRANCH  28  30
ENDBRANCH  17  28
ENDBRANCH   1  18
TORSDOF 5
