REMARK  Name = ZINC12521028
REMARK  9 active torsions:
REMARK  status: ('A' for Active; 'I' for Inactive)
REMARK    1  A    between atoms: C_1  and  C_2
REMARK    2  A    between atoms: C_6  and  N_8
REMARK    3  A    between atoms: N_8  and  S_9
REMARK    4  A    between atoms: S_9  and  C_12
REMARK    5  A    between atoms: C_16  and  C_18
REMARK    6  A    between atoms: N_20  and  C_21
REMARK    7  A    between atoms: C_21  and  C_22
REMARK    8  A    between atoms: C_22  and  C_24
REMARK    9  A    between atoms: C_22  and  N_29
REMARK                            x       y       z     vdW  Elec       q    Type
REMARK                         _______ _______ _______ _____ _____    ______ ____
ROOT
ATOM      1  C   UNL     1       2.774  -2.651   1.937  0.00  0.00    +0.109 A 
ATOM      2  C   UNL     1       3.510  -2.461   0.780  0.00  0.00    +0.029 A 
ATOM      3  C   UNL     1       4.826  -2.040   0.852  0.00  0.00    +0.003 A 
ATOM      4  C   UNL     1       5.413  -1.807   2.078  0.00  0.00    +0.013 A 
ATOM      5  C   UNL     1       4.677  -1.997   3.248  0.00  0.00    +0.039 A 
ATOM      6  C   UNL     1       3.348  -2.416   3.169  0.00  0.00    +0.041 A 
ENDROOT
BRANCH   5   7
ATOM      7  C   UNL     1       5.300  -1.749   4.566  0.00  0.00    +0.244 C 
ATOM      8  O   UNL     1       4.656  -1.915   5.584  0.00  0.00    -0.270 OA
ATOM      9  N   UNL     1       6.582  -1.340   4.639  0.00  0.00    -0.312 N 
ATOM     10  H   UNL     1       7.096  -1.207   3.827  0.00  0.00    +0.149 HD
BRANCH   9  11
ATOM     11  C   UNL     1       7.199  -1.095   5.945  0.00  0.00    +0.097 C 
BRANCH  11  12
ATOM     12  C   UNL     1       8.682  -0.770   5.755  0.00  0.00    +0.016 C 
BRANCH  12  13
ATOM     13  N   UNL     1       9.323  -1.842   4.982  0.00  0.00    +0.387 N 
ATOM     14  C   UNL     1       9.196  -3.111   5.709  0.00  0.00    -0.078 C 
ATOM     15  C   UNL     1       9.790  -4.245   4.872  0.00  0.00    -0.019 C 
ATOM     16  C   UNL     1      11.270  -3.954   4.605  0.00  0.00    -0.004 C 
ATOM     17  C   UNL     1      11.396  -2.594   3.912  0.00  0.00    -0.019 C 
ATOM     18  C   UNL     1      10.742  -1.521   4.785  0.00  0.00    -0.078 C 
ATOM     19  H   UNL     1       8.871  -1.925   4.084  0.00  0.00    -0.081 HD
ENDBRANCH  12  13
BRANCH  12  20
ATOM     20  C   UNL     1       8.820   0.535   5.013  0.00  0.00    +0.093 A 
ATOM     21  C   UNL     1       9.089   1.730   5.568  0.00  0.00    +0.043 A 
ATOM     22  C   UNL     1       9.129   2.671   4.514  0.00  0.00    +0.041 A 
ATOM     23  C   UNL     1       8.881   1.995   3.378  0.00  0.00    +0.195 A 
ATOM     24  O   UNL     1       8.700   0.700   3.686  0.00  0.00    -0.469 OA
ENDBRANCH  12  20
ENDBRANCH  11  12
ENDBRANCH   9  11
ENDBRANCH   5   7
BRANCH   1  25
ATOM     25  S   UNL     1       1.099  -3.187   1.835  0.00  0.00    +0.072 S 
ATOM     26  O   UNL     1       0.795  -3.809   3.076  0.00  0.00    -0.150 OA
ATOM     27  O   UNL     1       0.964  -3.862   0.592  0.00  0.00    -0.150 OA
BRANCH  25  28
ATOM     28  N   UNL     1       0.155  -1.830   1.742  0.00  0.00    -0.216 N 
ATOM     29  H   UNL     1      -0.463  -1.619   2.458  0.00  0.00    +0.174 HD
BRANCH  28  35
ATOM     30  C   UNL     1       0.471   2.712  -0.109  0.00  0.00    +0.044 C 
ATOM     31  C   UNL     1       0.405   1.218  -0.296  0.00  0.00    -0.049 A 
ATOM     32  C   UNL     1       0.438   0.679  -1.569  0.00  0.00    +0.003 A 
ATOM     33  C   UNL     1       0.377  -0.691  -1.745  0.00  0.00    +0.002 A 
ATOM     34  C   UNL     1       0.283  -1.526  -0.649  0.00  0.00    +0.024 A 
ATOM     35  C   UNL     1       0.250  -0.988   0.631  0.00  0.00    +0.048 A 
ATOM     36  C   UNL     1       0.317   0.389   0.804  0.00  0.00    +0.027 A 
ENDBRANCH  28  35
ENDBRANCH  25  28
ENDBRANCH   1  25
TORSDOF 8
