REMARK  Name = ZINC63806606
REMARK  6 active torsions:
REMARK  status: ('A' for Active; 'I' for Inactive)
REMARK    1  A    between atoms: C_7  and  C_10
REMARK    2  A    between atoms: C_10  and  C_11
REMARK    3  A    between atoms: N_13  and  N_14
REMARK    4  A    between atoms: C_15  and  C_17
REMARK    5  A    between atoms: N_20  and  S_23
REMARK    6  A    between atoms: S_23  and  C_26
REMARK                            x       y       z     vdW  Elec       q    Type
REMARK                         _______ _______ _______ _____ _____    ______ ____
ROOT
ATOM      1  N   UNL     1      -0.567  -5.122  -3.001  0.00  0.00    -0.234 N 
ATOM      2  C   UNL     1      -1.380  -6.168  -3.245  0.00  0.00    +0.232 C 
ATOM      3  O   UNL     1      -1.926  -6.740  -2.325  0.00  0.00    -0.274 OA
ATOM      4  H   UNL     1      -0.131  -4.665  -3.737  0.00  0.00    +0.173 HD
ENDROOT
BRANCH   2   5
ATOM      5  C   UNL     1      -1.611  -6.629  -4.661  0.00  0.00    +0.079 C 
ATOM      6  C   UNL     1      -0.276  -7.042  -5.287  0.00  0.00    +0.030 C 
ATOM      7  C   UNL     1      -0.509  -7.477  -6.737  0.00  0.00    +0.110 C 
ATOM      8  N   UNL     1      -1.536  -8.528  -6.756  0.00  0.00    -0.177 NA
ATOM      9  C   UNL     1      -2.825  -8.268  -6.102  0.00  0.00    +0.110 C 
ATOM     10  C   UNL     1      -2.566  -7.825  -4.659  0.00  0.00    +0.030 C 
BRANCH   8  11
ATOM     11  S   UNL     1      -1.244  -9.978  -7.501  0.00  0.00    +0.061 S 
ATOM     12  O   UNL     1      -2.512 -10.521  -7.843  0.00  0.00    -0.153 OA
ATOM     13  O   UNL     1      -0.231  -9.741  -8.469  0.00  0.00    -0.153 OA
BRANCH  11  14
ATOM     14  C   UNL     1      -0.545 -11.053  -6.293  0.00  0.00    +0.109 A 
ATOM     15  C   UNL     1       0.826 -11.095  -6.116  0.00  0.00    +0.032 A 
ATOM     16  C   UNL     1       1.378 -11.938  -5.170  0.00  0.00    +0.051 A 
ATOM     17  C   UNL     1       0.557 -12.744  -4.395  0.00  0.00    +0.162 A 
ATOM     18  C   UNL     1      -0.820 -12.700  -4.570  0.00  0.00    +0.164 A 
ATOM     19  C   UNL     1      -1.368 -11.849  -5.519  0.00  0.00    +0.078 A 
ATOM     20  O   UNL     1      -1.644 -13.476  -3.814  0.00  0.00    -0.485 OA
ATOM     21  C   UNL     1      -1.040 -14.581  -3.132  0.00  0.00    +0.270 C 
ATOM     22  C   UNL     1       0.245 -14.083  -2.455  0.00  0.00    +0.270 C 
ATOM     23  O   UNL     1       1.116 -13.571  -3.469  0.00  0.00    -0.485 OA
ENDBRANCH  11  14
ENDBRANCH   8  11
ENDBRANCH   2   5
BRANCH   1  26
ATOM     24  C   UNL     1       0.460  -3.646  -1.440  0.00  0.00    +0.233 C 
ATOM     25  O   UNL     1       1.006  -3.075  -2.360  0.00  0.00    -0.274 OA
ATOM     26  N   UNL     1      -0.353  -4.693  -1.684  0.00  0.00    -0.234 N 
ATOM     27  H   UNL     1      -0.790  -5.150  -0.948  0.00  0.00    +0.173 HD
BRANCH  24  28
ATOM     28  C   UNL     1       0.691  -3.186  -0.024  0.00  0.00    +0.130 C 
BRANCH  28  35
ATOM     29  C   UNL     1      -0.016   1.348   0.009  0.00  0.00    +0.001 A 
ATOM     30  C   UNL     1       1.166   2.101   0.002  0.00  0.00    +0.002 A 
ATOM     31  C   UNL     1       2.391   1.535  -0.013  0.00  0.00    +0.026 A 
ATOM     32  C   UNL     1       2.529   0.120  -0.022  0.00  0.00    +0.043 A 
ATOM     33  N   UNL     1       3.587  -0.654  -0.037  0.00  0.00    -0.380 N 
ATOM     34  C   UNL     1       3.143  -2.053  -0.041  0.00  0.00    +0.145 C 
ATOM     35  C   UNL     1       1.631  -2.008  -0.025  0.00  0.00    -0.033 C 
ATOM     36  C   UNL     1       1.295  -0.698  -0.014  0.00  0.00    -0.001 A 
ATOM     37  C   UNL     1       0.002  -0.004   0.002  0.00  0.00    +0.010 A 
ATOM     38  H   UNL     1       4.509  -0.353  -0.045  0.00  0.00    +0.160 HD
ENDBRANCH  28  35
ENDBRANCH  24  28
ENDBRANCH   1  26
TORSDOF 6
