REMARK  Name = ZINC03377295
REMARK  3 active torsions:
REMARK  status: ('A' for Active; 'I' for Inactive)
REMARK    1  A    between atoms: C_9  and  C_11
REMARK    2  A    between atoms: N_13  and  N_14
REMARK    3  A    between atoms: N_14  and  C_15
REMARK                            x       y       z     vdW  Elec       q    Type
REMARK                         _______ _______ _______ _____ _____    ______ ____
ROOT
ATOM      1  C   UNL     1      -3.585  -0.607   0.212  0.00  0.00    +0.278 C 
ATOM      2  O   UNL     1      -3.607  -1.821   0.205  0.00  0.00    -0.267 OA
ATOM      3  N   UNL     1      -2.411   0.047   0.112  0.00  0.00    -0.231 N 
ATOM      4  H   UNL     1      -2.394   1.017   0.118  0.00  0.00    +0.173 HD
ENDROOT
BRANCH   1  13
ATOM      5  C   UNL     1      -8.260   3.688   0.659  0.00  0.00    +0.001 A 
ATOM      6  C   UNL     1      -7.023   4.324   0.553  0.00  0.00    +0.002 A 
ATOM      7  C   UNL     1      -5.872   3.608   0.446  0.00  0.00    +0.028 A 
ATOM      8  C   UNL     1      -5.923   2.201   0.441  0.00  0.00    +0.072 A 
ATOM      9  C   UNL     1      -7.183   1.556   0.549  0.00  0.00    +0.000 A 
ATOM     10  C   UNL     1      -8.350   2.330   0.657  0.00  0.00    +0.010 A 
ATOM     11  C   UNL     1      -7.237   0.150   0.544  0.00  0.00    +0.012 A 
ATOM     12  C   UNL     1      -6.064  -0.540   0.428  0.00  0.00    +0.034 A 
ATOM     13  C   UNL     1      -4.851   0.156   0.331  0.00  0.00    +0.127 A 
ATOM     14  N   UNL     1      -4.811   1.475   0.336  0.00  0.00    -0.242 NA
ENDBRANCH   1  13
BRANCH   3  15
ATOM     15  N   UNL     1      -1.215  -0.673   0.001  0.00  0.00    -0.269 N 
ATOM     16  H   UNL     1      -1.237  -1.640  -0.079  0.00  0.00    +0.170 HD
BRANCH  15  17
ATOM     17  C   UNL     1       0.002  -0.004   0.003  0.00  0.00    +0.018 C 
ATOM     18  C   UNL     1      -0.015   1.301   0.005  0.00  0.00    -0.007 C 
ATOM     19  C   UNL     1       1.218   2.155  -0.002  0.00  0.00    +0.029 C 
ATOM     20  C   UNL     1       2.436   1.326   0.413  0.00  0.00    +0.004 C 
ATOM     21  C   UNL     1       2.451   0.036  -0.418  0.00  0.00    +0.006 C 
ATOM     22  C   UNL     1       1.258  -0.825   0.003  0.00  0.00    +0.052 C 
ENDBRANCH  15  17
ENDBRANCH   3  15
TORSDOF 3
