REMARK  Name = ZINC12497529
REMARK  6 active torsions:
REMARK  status: ('A' for Active; 'I' for Inactive)
REMARK    1  A    between atoms: C_1  and  O_2
REMARK    2  A    between atoms: O_2  and  C_3
REMARK    3  A    between atoms: C_3  and  C_5
REMARK    4  A    between atoms: C_5  and  C_29
REMARK    5  A    between atoms: C_10  and  C_12
REMARK    6  A    between atoms: N_19  and  C_22
REMARK                            x       y       z     vdW  Elec       q    Type
REMARK                         _______ _______ _______ _____ _____    ______ ____
ROOT
ATOM      1  C   UNL     1      -1.527   2.845  -0.680  0.00  0.00    +0.070 C 
ATOM      2  C   UNL     1      -1.026   3.250   0.657  0.00  0.00    +0.090 C 
ATOM      3  C   UNL     1      -0.820   1.842   1.345  0.00  0.00    +0.078 C 
ATOM      4  C   UNL     1      -0.022   1.188   0.243  0.00  0.00    -0.019 C 
ATOM      5  C   UNL     1      -0.292   2.333   2.638  0.00  0.00    +0.229 C 
ATOM      6  O   UNL     1       0.562   1.818   3.327  0.00  0.00    -0.275 OA
ATOM      7  N   UNL     1      -0.973   3.495   2.890  0.00  0.00    -0.207 N 
ATOM      8  C   UNL     1      -1.611   3.983   1.777  0.00  0.00    +0.230 C 
ATOM      9  O   UNL     1      -2.472   4.835   1.732  0.00  0.00    -0.275 OA
ATOM     10  N   UNL     1      -0.791   1.579  -0.976  0.00  0.00    +0.398 N 
ATOM     11  H   UNL     1      -0.146   1.728  -1.761  0.00  0.00    -0.083 HD
ATOM     12  H   UNL     1      -1.459   0.837  -1.218  0.00  0.00    -0.083 HD
ENDROOT
BRANCH   7  13
ATOM     13  C   UNL     1      -1.014   4.118   4.146  0.00  0.00    +0.079 A 
ATOM     14  C   UNL     1      -0.053   5.058   4.489  0.00  0.00    +0.027 A 
ATOM     15  C   UNL     1      -0.099   5.673   5.725  0.00  0.00    +0.002 A 
ATOM     16  C   UNL     1      -1.095   5.346   6.626  0.00  0.00    +0.003 A 
ATOM     17  C   UNL     1      -2.053   4.406   6.291  0.00  0.00    +0.040 A 
ATOM     18  C   UNL     1      -2.015   3.790   5.053  0.00  0.00    +0.145 A 
ATOM     19  F   UNL     1      -2.950   2.871   4.727  0.00  0.00    -0.204 F 
ENDBRANCH   7  13
BRANCH   1  20
ATOM     20  C   UNL     1      -3.013   2.599  -0.632  0.00  0.00    -0.047 A 
ATOM     21  C   UNL     1      -3.499   1.305  -0.590  0.00  0.00    +0.003 A 
ATOM     22  C   UNL     1      -4.862   1.080  -0.541  0.00  0.00    +0.000 A 
ATOM     23  C   UNL     1      -5.739   2.148  -0.545  0.00  0.00    +0.000 A 
ATOM     24  C   UNL     1      -5.254   3.441  -0.593  0.00  0.00    +0.000 A 
ATOM     25  C   UNL     1      -3.891   3.667  -0.637  0.00  0.00    +0.003 A 
ENDBRANCH   1  20
BRANCH   4  26
ATOM     26  C   UNL     1       1.378   1.742   0.194  0.00  0.00    -0.023 A 
ATOM     27  C   UNL     1       2.531   1.192   0.649  0.00  0.00    +0.009 A 
ATOM     28  C   UNL     1       3.714   1.889   0.491  0.00  0.00    +0.008 A 
ATOM     29  C   UNL     1       3.686   3.106  -0.105  0.00  0.00    +0.045 A 
ATOM     30  S   UNL     1       1.949   3.298  -0.472  0.00  0.00    -0.103 S 
ENDBRANCH   4  26
BRANCH   1  31
ATOM     31  C   UNL     1      -1.203   3.900  -1.705  0.00  0.00    +0.301 C 
ATOM     32  O   UNL     1      -1.040   5.047  -1.361  0.00  0.00    -0.252 OA
BRANCH  31  34
ATOM     33  C   UNL     1      -0.779   4.635  -3.933  0.00  0.00    +0.280 C 
ATOM     34  O   UNL     1      -1.094   3.566  -3.001  0.00  0.00    -0.469 OA
ENDBRANCH  31  34
ENDBRANCH   1  31
TORSDOF 5
