REMARK  Name = ZINC53997371
REMARK  4 active torsions:
REMARK  status: ('A' for Active; 'I' for Inactive)
REMARK    1  A    between atoms: C_3  and  C_6
REMARK    2  A    between atoms: C_6  and  C_8
REMARK    3  A    between atoms: C_6  and  N_15
REMARK    4  A    between atoms: C_22  and  O_25
REMARK                            x       y       z     vdW  Elec       q    Type
REMARK                         _______ _______ _______ _____ _____    ______ ____
ROOT
ATOM      1  C   UNL     1       3.763   1.847  -0.024  0.00  0.00    +0.142 C 
ENDROOT
BRANCH   1   2
ATOM      2  N   UNL     1       4.570   1.020  -0.924  0.00  0.00    -0.288 N 
ATOM      3  C   UNL     1       4.598   1.290  -2.244  0.00  0.00    +0.303 C 
ATOM      4  O   UNL     1       3.884   2.161  -2.702  0.00  0.00    -0.253 OA
ATOM      5  N   UNL     1       5.419   0.596  -3.057  0.00  0.00    -0.283 N 
ATOM      6  C   UNL     1       5.547   0.955  -4.476  0.00  0.00    +0.109 C 
ATOM      7  C   UNL     1       7.030   1.162  -4.800  0.00  0.00    +0.022 C 
ATOM      8  C   UNL     1       7.816  -0.087  -4.394  0.00  0.00    +0.034 C 
ATOM      9  C   UNL     1       7.678  -0.312  -2.887  0.00  0.00    +0.132 C 
ATOM     10  C   UNL     1       6.207  -0.531  -2.540  0.00  0.00    +0.140 C 
ATOM     11  H   UNL     1       5.084   0.277  -0.570  0.00  0.00    +0.151 HD
BRANCH   9  12
ATOM     12  O   UNL     1       8.437  -1.460  -2.504  0.00  0.00    -0.390 OA
ATOM     13  H   UNL     1       8.395  -1.663  -1.559  0.00  0.00    +0.210 HD
ENDBRANCH   9  12
ENDBRANCH   1   2
BRANCH   1  14
ATOM     14  C   UNL     1       4.333   1.778   1.369  0.00  0.00    -0.022 A 
ATOM     15  C   UNL     1       4.810   0.577   1.861  0.00  0.00    +0.008 A 
ATOM     16  C   UNL     1       5.333   0.512   3.138  0.00  0.00    +0.038 A 
ATOM     17  C   UNL     1       5.381   1.650   3.925  0.00  0.00    +0.123 A 
ATOM     18  C   UNL     1       4.903   2.853   3.431  0.00  0.00    +0.038 A 
ATOM     19  C   UNL     1       4.385   2.916   2.152  0.00  0.00    +0.008 A 
ATOM     20  F   UNL     1       5.892   1.588   5.174  0.00  0.00    -0.205 F 
ENDBRANCH   1  14
BRANCH   1  23
ATOM     21  C   UNL     1      -0.015   1.356   0.012  0.00  0.00    +0.008 A 
ATOM     22  C   UNL     1       1.185   2.042   0.003  0.00  0.00    +0.013 A 
ATOM     23  C   UNL     1       2.344   1.339  -0.012  0.00  0.00    +0.014 A 
ATOM     24  S   UNL     1       1.753  -0.346  -0.014  0.00  0.00    -0.099 S 
ATOM     25  C   UNL     1       0.002   0.001   0.005  0.00  0.00    +0.045 A 
ENDBRANCH   1  23
TORSDOF 4
