REMARK  Name = ZINC62952612
REMARK  4 active torsions:
REMARK  status: ('A' for Active; 'I' for Inactive)
REMARK    1  A    between atoms: C_5  and  C_6
REMARK    2  A    between atoms: C_6  and  C_8
REMARK    3  A    between atoms: C_6  and  N_10
REMARK    4  A    between atoms: C_8  and  N_9
REMARK                            x       y       z     vdW  Elec       q    Type
REMARK                         _______ _______ _______ _____ _____    ______ ____
ROOT
ATOM      1  C   UNL     1      -1.228  -0.924  -0.010  0.00  0.00    -0.019 C 
ENDROOT
BRANCH   1   2
ATOM      2  N   UNL     1      -0.820  -2.058   0.830  0.00  0.00    +0.385 N 
ATOM      3  C   UNL     1      -0.671  -1.606   2.219  0.00  0.00    -0.077 C 
ATOM      4  C   UNL     1      -0.160  -2.763   3.082  0.00  0.00    -0.012 C 
ATOM      5  C   UNL     1      -1.153  -3.921   3.011  0.00  0.00    -0.033 C 
ATOM      6  C   UNL     1      -2.491  -3.502   3.646  0.00  0.00    +0.007 C 
ATOM      7  C   UNL     1      -2.982  -4.781   4.371  0.00  0.00    +0.001 C 
ATOM      8  C   UNL     1      -1.668  -5.385   4.928  0.00  0.00    +0.001 C 
ATOM      9  C   UNL     1      -0.628  -5.116   3.820  0.00  0.00    +0.007 C 
ATOM     10  C   UNL     1      -1.376  -4.331   1.556  0.00  0.00    -0.012 C 
ATOM     11  C   UNL     1      -1.839  -3.112   0.754  0.00  0.00    -0.077 C 
ATOM     12  H   UNL     1       0.062  -2.419   0.500  0.00  0.00    -0.081 HD
ENDBRANCH   1   2
BRANCH   1  17
ATOM     13  C   UNL     1      -0.530   1.508   0.218  0.00  0.00    +0.059 A 
ATOM     14  C   UNL     1       0.696   2.199   0.355  0.00  0.00    +0.070 A 
ATOM     15  C   UNL     1       1.670   1.269   0.356  0.00  0.00    +0.184 A 
ATOM     16  O   UNL     1       1.100   0.059   0.227  0.00  0.00    -0.454 OA
ATOM     17  C   UNL     1      -0.233   0.198   0.142  0.00  0.00    +0.092 A 
ATOM     18 BR   UNL     1       3.524   1.608   0.511  0.00  0.00    -0.007 Br
ATOM     19 BR   UNL     1       0.924   4.070   0.508  0.00  0.00    -0.046 Br
ENDBRANCH   1  17
BRANCH   1  20
ATOM     20  C   UNL     1      -1.277  -1.366  -1.474  0.00  0.00    -0.094 C 
BRANCH  20  21
ATOM     21  N   UNL     1      -1.761  -0.255  -2.305  0.00  0.00    +0.377 N 
ATOM     22  H   UNL     1      -2.645   0.074  -1.945  0.00  0.00    -0.090 HD
ATOM     23  H   UNL     1      -1.089   0.497  -2.285  0.00  0.00    -0.090 HD
ATOM     24  H   UNL     1      -1.882  -0.573  -3.255  0.00  0.00    -0.090 HD
ENDBRANCH  20  21
ENDBRANCH   1  20
TORSDOF 4
