REMARK  Name = ZINC09165205
REMARK  8 active torsions:
REMARK  status: ('A' for Active; 'I' for Inactive)
REMARK    1  A    between atoms: C_1  and  C_2
REMARK    2  A    between atoms: C_7  and  N_8
REMARK    3  A    between atoms: C_9  and  C_11
REMARK    4  A    between atoms: N_13  and  C_14
REMARK    5  A    between atoms: C_14  and  C_15
REMARK    6  A    between atoms: C_15  and  C_17
REMARK    7  A    between atoms: C_15  and  N_66
REMARK    8  A    between atoms: N_26  and  C_27
REMARK                            x       y       z     vdW  Elec       q    Type
REMARK                         _______ _______ _______ _____ _____    ______ ____
ROOT
ATOM      1  C   UNL     1       2.950  -2.034   4.187  0.00  0.00    -0.020 C 
ENDROOT
BRANCH   1   2
ATOM      2  C   UNL     1       1.538  -2.006   3.660  0.00  0.00    -0.059 A 
ATOM      3  C   UNL     1       0.553  -2.755   4.280  0.00  0.00    +0.004 A 
ATOM      4  C   UNL     1      -0.737  -2.731   3.795  0.00  0.00    +0.023 A 
ATOM      5  C   UNL     1      -1.058  -1.954   2.680  0.00  0.00    +0.033 A 
ATOM      6  C   UNL     1      -0.071  -1.203   2.067  0.00  0.00    -0.026 A 
ATOM      7  C   UNL     1       1.225  -1.235   2.559  0.00  0.00    +0.007 A 
ATOM      8  C   UNL     1      -0.354  -0.336   0.867  0.00  0.00    +0.038 C 
ATOM      9  C   UNL     1      -1.703  -0.726   0.258  0.00  0.00    +0.024 C 
ATOM     10  C   UNL     1      -2.724  -0.827   1.398  0.00  0.00    +0.105 C 
ATOM     11  N   UNL     1      -2.380  -1.977   2.236  0.00  0.00    -0.333 N 
ATOM     12  C   UNL     1      -3.312  -2.106   3.363  0.00  0.00    +0.129 C 
ENDBRANCH   1   2
BRANCH   1  18
ATOM     13  C   UNL     1       3.818  -3.484   2.454  0.00  0.00    -0.078 C 
ATOM     14  C   UNL     1       4.580  -4.787   2.203  0.00  0.00    -0.019 C 
ATOM     15  C   UNL     1       3.747  -5.967   2.712  0.00  0.00    -0.004 C 
ATOM     16  C   UNL     1       3.448  -5.766   4.200  0.00  0.00    -0.019 C 
ATOM     17  C   UNL     1       2.718  -4.434   4.394  0.00  0.00    -0.078 C 
ATOM     18  N   UNL     1       3.583  -3.338   3.907  0.00  0.00    +0.385 N 
ATOM     19  H   UNL     1       4.485  -3.383   4.396  0.00  0.00    -0.081 HD
ENDBRANCH   1  18
BRANCH   1  20
ATOM     20  C   UNL     1       2.934  -1.808   5.700  0.00  0.00    +0.094 C 
BRANCH  20  23
ATOM     21  C   UNL     1       4.516  -1.853   7.552  0.00  0.00    +0.299 C 
ATOM     22  O   UNL     1       3.584  -1.704   8.314  0.00  0.00    -0.265 OA
ATOM     23  N   UNL     1       4.298  -1.919   6.224  0.00  0.00    -0.309 N 
ATOM     24  H   UNL     1       5.043  -2.038   5.615  0.00  0.00    +0.149 HD
BRANCH  21  26
ATOM     25  N   UNL     1       6.125  -1.901   9.415  0.00  0.00    -0.278 N 
ATOM     26  C   UNL     1       5.907  -1.966   8.087  0.00  0.00    +0.303 C 
ATOM     27  O   UNL     1       6.839  -2.116   7.325  0.00  0.00    -0.265 OA
ATOM     28  H   UNL     1       5.376  -1.838  10.027  0.00  0.00    +0.155 HD
BRANCH  25  35
ATOM     29  C   UNL     1       6.644  -0.607  11.895  0.00  0.00    +0.045 C 
ATOM     30  C   UNL     1       7.730  -1.305  11.117  0.00  0.00    -0.029 A 
ATOM     31  C   UNL     1       9.023  -1.330  11.603  0.00  0.00    +0.005 A 
ATOM     32  C   UNL     1      10.019  -1.970  10.890  0.00  0.00    +0.000 A 
ATOM     33  C   UNL     1       9.726  -2.588   9.688  0.00  0.00    +0.002 A 
ATOM     34  C   UNL     1       8.435  -2.571   9.198  0.00  0.00    +0.023 A 
ATOM     35  C   UNL     1       7.432  -1.924   9.910  0.00  0.00    +0.037 A 
ENDBRANCH  25  35
ENDBRANCH  21  26
ENDBRANCH  20  23
ENDBRANCH   1  20
TORSDOF 6
