REMARK  Name = ZINC22796067
REMARK  7 active torsions:
REMARK  status: ('A' for Active; 'I' for Inactive)
REMARK    1  A    between atoms: C_1  and  C_2
REMARK    2  A    between atoms: C_15  and  C_17
REMARK    3  A    between atoms: C_17  and  N_18
REMARK    4  A    between atoms: N_18  and  C_19
REMARK    5  A    between atoms: C_24  and  C_25
REMARK    6  A    between atoms: C_25  and  C_26
REMARK    7  A    between atoms: C_25  and  C_27
REMARK                            x       y       z     vdW  Elec       q    Type
REMARK                         _______ _______ _______ _____ _____    ______ ____
ROOT
ATOM      1  C   UNL     1      -0.015   1.540   0.021  0.00  0.00    +0.029 C 
ATOM      2  C   UNL     1       0.009   0.010   0.002  0.00  0.00    +0.087 C 
ATOM      3  C   UNL     1      -1.425  -0.521   0.001  0.00  0.00    +0.118 C 
ATOM      4  C   UNL     1      -1.439  -1.979   0.378  0.00  0.00    +0.219 C 
ATOM      5  O   UNL     1      -1.609  -2.821  -0.479  0.00  0.00    -0.275 OA
ATOM      6  N   UNL     1      -1.262  -2.355   1.663  0.00  0.00    -0.284 N 
ATOM      7  C   UNL     1      -0.969  -1.403   2.647  0.00  0.00    +0.055 A 
ATOM      8  C   UNL     1      -1.676  -1.370   3.837  0.00  0.00    +0.025 A 
ATOM      9  C   UNL     1      -1.353  -0.436   4.804  0.00  0.00    +0.002 A 
ATOM     10  C   UNL     1      -0.325   0.464   4.587  0.00  0.00    +0.002 A 
ATOM     11  C   UNL     1       0.380   0.444   3.397  0.00  0.00    +0.025 A 
ATOM     12  C   UNL     1       0.054  -0.482   2.419  0.00  0.00    +0.058 A 
ATOM     13  N   UNL     1       0.717  -0.480   1.186  0.00  0.00    -0.265 N 
ATOM     14  C   UNL     1       1.987  -0.921   1.092  0.00  0.00    +0.237 C 
ATOM     15  O   UNL     1       2.554  -0.915   0.019  0.00  0.00    -0.274 OA
ATOM     16  H   UNL     1      -1.339  -3.291   1.906  0.00  0.00    +0.155 HD
ENDROOT
BRANCH  14  17
ATOM     17  C   UNL     1       2.704  -1.423   2.319  0.00  0.00    +0.198 C 
BRANCH  17  18
ATOM     18  N   UNL     1       4.060  -1.842   1.956  0.00  0.00    -0.335 N 
ATOM     19  H   UNL     1       4.360  -1.769   1.037  0.00  0.00    +0.147 HD
BRANCH  18  20
ATOM     20  C   UNL     1       4.920  -2.346   2.934  0.00  0.00    +0.031 A 
ATOM     21  C   UNL     1       4.535  -2.345   4.269  0.00  0.00    +0.023 A 
ATOM     22  C   UNL     1       5.388  -2.845   5.233  0.00  0.00    +0.002 A 
ATOM     23  C   UNL     1       6.625  -3.346   4.871  0.00  0.00    +0.000 A 
ATOM     24  C   UNL     1       7.012  -3.349   3.543  0.00  0.00    +0.006 A 
ATOM     25  C   UNL     1       6.161  -2.856   2.573  0.00  0.00    -0.024 A 
BRANCH  25  26
ATOM     26  C   UNL     1       6.581  -2.866   1.126  0.00  0.00    +0.015 C 
ATOM     27  C   UNL     1       7.919  -2.139   0.979  0.00  0.00    +0.012 C 
ATOM     28  C   UNL     1       6.730  -4.311   0.648  0.00  0.00    +0.012 C 
ENDBRANCH  25  26
ENDBRANCH  18  20
ENDBRANCH  17  18
ENDBRANCH  14  17
TORSDOF 4
