REMARK  Name = ZINC12038122
REMARK  12 active torsions:
REMARK  status: ('A' for Active; 'I' for Inactive)
REMARK    1  A    between atoms: C_1  and  C_2
REMARK    2  A    between atoms: C_6  and  C_9
REMARK    3  A    between atoms: C_7  and  C_8
REMARK    4  A    between atoms: C_14  and  C_17
REMARK    5  A    between atoms: C_17  and  C_28
REMARK    6  A    between atoms: N_20  and  C_24
REMARK    7  A    between atoms: C_24  and  C_25
REMARK    8  A    between atoms: C_25  and  N_74
REMARK    9  A    between atoms: C_26  and  N_74
REMARK   10  A    between atoms: C_27  and  N_74
REMARK   11  A    between atoms: C_28  and  C_29
REMARK   12  A    between atoms: C_29  and  C_30
REMARK                            x       y       z     vdW  Elec       q    Type
REMARK                         _______ _______ _______ _____ _____    ______ ____
ROOT
ATOM      1  C   UNL     1       4.014   6.804   2.802  0.00  0.00    +0.116 C 
ATOM      2  C   UNL     1       4.402   5.973   4.008  0.00  0.00    +0.247 C 
ATOM      3  O   UNL     1       3.766   5.071   4.511  0.00  0.00    -0.273 OA
ATOM      4  N   UNL     1       5.600   6.445   4.406  0.00  0.00    -0.226 N 
ATOM      5  C   UNL     1       6.018   7.449   3.627  0.00  0.00    +0.309 C 
ATOM      6  O   UNL     1       7.070   8.036   3.788  0.00  0.00    -0.252 OA
ATOM      7  N   UNL     1       5.144   7.736   2.645  0.00  0.00    -0.285 N 
ATOM      8  H   UNL     1       5.240   8.422   1.966  0.00  0.00    +0.151 HD
ENDROOT
BRANCH   1  14
ATOM      9  C   UNL     1       3.692   2.092   0.080  0.00  0.00    +0.247 C 
ATOM     10  O   UNL     1       4.735   1.474   0.001  0.00  0.00    -0.270 OA
ATOM     11  N   UNL     1       3.711   3.432   0.224  0.00  0.00    -0.297 N 
ATOM     12  C   UNL     1       2.466   4.180   0.442  0.00  0.00    +0.108 C 
ATOM     13  C   UNL     1       2.626   5.039   1.705  0.00  0.00    +0.025 C 
ATOM     14  C   UNL     1       3.870   5.919   1.562  0.00  0.00    +0.024 C 
ATOM     15  C   UNL     1       5.110   5.033   1.421  0.00  0.00    +0.025 C 
ATOM     16  C   UNL     1       4.978   4.173   0.161  0.00  0.00    +0.108 C 
BRANCH   9  22
ATOM     17  C   UNL     1       0.742  -1.630   1.612  0.00  0.00    +0.044 C 
ATOM     18  C   UNL     1       0.977  -0.415   0.751  0.00  0.00    -0.047 A 
ATOM     19  C   UNL     1      -0.018   0.030  -0.101  0.00  0.00    +0.003 A 
ATOM     20  C   UNL     1       0.190   1.145  -0.894  0.00  0.00    +0.001 A 
ATOM     21  C   UNL     1       1.393   1.819  -0.840  0.00  0.00    +0.013 A 
ATOM     22  C   UNL     1       2.401   1.374   0.017  0.00  0.00    +0.040 A 
ATOM     23  C   UNL     1       2.184   0.249   0.814  0.00  0.00    -0.035 A 
ATOM     24  C   UNL     1       3.267  -0.237   1.743  0.00  0.00    +0.045 C 
ENDBRANCH   9  22
ENDBRANCH   1  14
BRANCH   4  25
ATOM     25  C   UNL     1       6.350   5.924   5.552  0.00  0.00    +0.099 C 
BRANCH  25  26
ATOM     26  C   UNL     1       5.951   6.690   6.814  0.00  0.00    -0.060 C 
BRANCH  26  29
ATOM     27  C   UNL     1       8.139   6.449   7.823  0.00  0.00    -0.097 C 
ATOM     28  C   UNL     1       6.181   6.710   9.225  0.00  0.00    -0.097 C 
ATOM     29  N   UNL     1       6.700   6.140   7.963  0.00  0.00    +0.377 N 
ATOM     30  H   UNL     1       6.578   5.120   7.983  0.00  0.00    -0.083 HD
ENDBRANCH  26  29
ENDBRANCH  25  26
ENDBRANCH   4  25
BRANCH   1  31
ATOM     31  C   UNL     1       2.717   7.571   3.067  0.00  0.00    +0.040 C 
BRANCH  31  32
ATOM     32  C   UNL     1       2.926   8.539   4.233  0.00  0.00    +0.038 C 
BRANCH  32  33
ATOM     33  C   UNL     1       1.649   9.295   4.494  0.00  0.00    -0.047 A 
ATOM     34  C   UNL     1       1.412  10.495   3.850  0.00  0.00    +0.003 A 
ATOM     35  C   UNL     1       0.238  11.186   4.085  0.00  0.00    +0.000 A 
ATOM     36  C   UNL     1      -0.694  10.682   4.973  0.00  0.00    +0.000 A 
ATOM     37  C   UNL     1      -0.455   9.484   5.621  0.00  0.00    +0.000 A 
ATOM     38  C   UNL     1       0.717   8.791   5.382  0.00  0.00    +0.003 A 
ENDBRANCH  32  33
ENDBRANCH  31  32
ENDBRANCH   1  31
TORSDOF 8
