REMARK  Name = ZINC64588307
REMARK  11 active torsions:
REMARK  status: ('A' for Active; 'I' for Inactive)
REMARK    1  A    between atoms: C_1  and  C_2
REMARK    2  A    between atoms: C_2  and  C_3
REMARK    3  A    between atoms: C_3  and  C_5
REMARK    4  A    between atoms: C_3  and  N_6
REMARK    5  A    between atoms: C_7  and  C_9
REMARK    6  A    between atoms: N_18  and  C_21
REMARK    7  A    between atoms: C_21  and  C_22
REMARK    8  A    between atoms: C_22  and  C_24
REMARK    9  A    between atoms: N_31  and  C_34
REMARK   10  A    between atoms: C_34  and  C_35
REMARK   11  A    between atoms: C_34  and  C_36
REMARK                            x       y       z     vdW  Elec       q    Type
REMARK                         _______ _______ _______ _____ _____    ______ ____
ROOT
ATOM      1  C   UNL     1      -0.128   0.364   4.839  0.00  0.00    +0.039 A 
ATOM      2  C   UNL     1      -1.507   0.577   4.761  0.00  0.00    +0.014 A 
ATOM      3  C   UNL     1      -2.219   0.926   5.887  0.00  0.00    +0.016 A 
ATOM      4  C   UNL     1      -1.561   1.066   7.108  0.00  0.00    +0.064 A 
ATOM      5  C   UNL     1      -0.177   0.853   7.191  0.00  0.00    +0.067 A 
ATOM      6  C   UNL     1       0.535   0.496   6.057  0.00  0.00    +0.040 A 
ATOM      7  N   UNL     1       0.465   0.998   8.421  0.00  0.00    -0.229 N 
ATOM      8  C   UNL     1      -0.250   1.347   9.546  0.00  0.00    +0.240 A 
ATOM      9  N   UNL     1       0.576   1.416  10.554  0.00  0.00    -0.129 NA
ATOM     10  N   UNL     1       1.860   1.107  10.089  0.00  0.00    -0.203 N 
ATOM     11  C   UNL     1       1.761   0.853   8.768  0.00  0.00    +0.353 A 
ATOM     12  O   UNL     1       2.675   0.547   8.024  0.00  0.00    -0.244 OA
ATOM     13  N   UNL     1      -1.620   1.564   9.490  0.00  0.00    -0.274 N 
ATOM     14  C   UNL     1      -2.298   1.440   8.332  0.00  0.00    +0.263 A 
ATOM     15  O   UNL     1      -3.498   1.633   8.295  0.00  0.00    -0.267 OA
ENDROOT
BRANCH   1  17
ATOM     16  N   UNL     1      -0.008  -0.140   2.444  0.00  0.00    -0.309 N 
ATOM     17  C   UNL     1       0.630  -0.011   3.624  0.00  0.00    +0.244 C 
ATOM     18  O   UNL     1       1.829  -0.202   3.690  0.00  0.00    -0.270 OA
ATOM     19  H   UNL     1      -0.965   0.013   2.391  0.00  0.00    +0.149 HD
BRANCH  16  20
ATOM     20  C   UNL     1       0.742  -0.511   1.242  0.00  0.00    +0.070 C 
ATOM     21  C   UNL     1       0.872  -2.034   1.171  0.00  0.00    +0.028 C 
BRANCH  20  23
ATOM     22  C   UNL     1      -0.019   1.526   0.010  0.00  0.00    +0.005 C 
ATOM     23  C   UNL     1       0.002  -0.004   0.002  0.00  0.00    +0.018 C 
ENDBRANCH  20  23
ENDBRANCH  16  20
ENDBRANCH   1  17
BRANCH  13  24
ATOM     24  C   UNL     1      -2.341   1.934  10.711  0.00  0.00    +0.088 C 
ATOM     25  C   UNL     1      -3.008   3.297  10.515  0.00  0.00    +0.031 C 
ATOM     26  C   UNL     1      -3.410   0.881  11.011  0.00  0.00    +0.031 C 
ENDBRANCH  13  24
BRANCH  10  27
ATOM     27  C   UNL     1       3.086   1.066  10.889  0.00  0.00    +0.228 C 
BRANCH  27  28
ATOM     28  C   UNL     1       3.735   2.426  10.883  0.00  0.00    +0.184 C 
ATOM     29  O   UNL     1       3.224   3.339  10.270  0.00  0.00    -0.290 OA
BRANCH  28  30
ATOM     30  C   UNL     1       4.989   2.646  11.621  0.00  0.00    +0.019 A 
ATOM     31  C   UNL     1       5.585   1.594  12.324  0.00  0.00    +0.013 A 
ATOM     32  C   UNL     1       6.759   1.807  13.012  0.00  0.00    +0.020 A 
ATOM     33  C   UNL     1       7.350   3.061  13.009  0.00  0.00    +0.041 A 
ATOM     34  C   UNL     1       6.766   4.108  12.314  0.00  0.00    +0.020 A 
ATOM     35  C   UNL     1       5.594   3.907  11.617  0.00  0.00    +0.013 A 
ATOM     36 CL   UNL     1       8.829   3.320  13.880  0.00  0.00    -0.084 Cl
ENDBRANCH  28  30
ENDBRANCH  27  28
ENDBRANCH  10  27
TORSDOF 7
