REMARK  Name = ZINC15225103
REMARK  6 active torsions:
REMARK  status: ('A' for Active; 'I' for Inactive)
REMARK    1  A    between atoms: C_1  and  C_2
REMARK    2  A    between atoms: C_2  and  C_4
REMARK    3  A    between atoms: C_2  and  O_10
REMARK    4  A    between atoms: O_10  and  C_11
REMARK    5  A    between atoms: C_11  and  C_13
REMARK    6  A    between atoms: C_27  and  C_28
REMARK                            x       y       z     vdW  Elec       q    Type
REMARK                         _______ _______ _______ _____ _____    ______ ____
ROOT
ATOM      1  C   UNL     1       0.397  -0.479   4.102  0.00  0.00    +0.073 A 
ATOM      2  C   UNL     1      -0.233  -0.373   5.418  0.00  0.00    +0.015 A 
ATOM      3  C   UNL     1      -1.392   0.384   5.616  0.00  0.00    +0.011 A 
ATOM      4  C   UNL     1      -1.947   0.455   6.859  0.00  0.00    +0.001 A 
ATOM      5  C   UNL     1      -1.374  -0.218   7.936  0.00  0.00    +0.002 A 
ATOM      6  C   UNL     1      -0.252  -0.972   7.777  0.00  0.00    +0.028 A 
ATOM      7  C   UNL     1       0.353  -1.063   6.509  0.00  0.00    +0.072 A 
ATOM      8  N   UNL     1       1.461  -1.779   6.325  0.00  0.00    -0.247 NA
ATOM      9  C   UNL     1       2.055  -1.885   5.148  0.00  0.00    +0.072 A 
ATOM     10  C   UNL     1       1.550  -1.248   4.000  0.00  0.00    -0.007 A 
ATOM     11  C   UNL     1       2.219  -1.377   2.660  0.00  0.00    +0.038 C 
ATOM     12  C   UNL     1       3.689  -1.758   2.809  0.00  0.00    +0.009 C 
ATOM     13  C   UNL     1       3.799  -3.030   3.660  0.00  0.00    +0.037 C 
ATOM     14  C   UNL     1       3.288  -2.696   5.045  0.00  0.00    -0.021 C 
ATOM     15  C   UNL     1       3.933  -3.123   6.145  0.00  0.00    +0.013 C 
ENDROOT
BRANCH  15  16
ATOM     16  C   UNL     1       5.056  -4.068   6.021  0.00  0.00    -0.025 A 
ATOM     17  C   UNL     1       5.055  -5.031   5.008  0.00  0.00    +0.008 A 
ATOM     18  C   UNL     1       6.112  -5.909   4.894  0.00  0.00    +0.001 A 
ATOM     19  C   UNL     1       7.168  -5.845   5.787  0.00  0.00    +0.000 A 
ATOM     20  C   UNL     1       7.174  -4.898   6.796  0.00  0.00    +0.001 A 
ATOM     21  C   UNL     1       6.126  -4.010   6.918  0.00  0.00    +0.008 A 
ENDBRANCH  15  16
BRANCH   1  22
ATOM     22  C   UNL     1      -0.168   0.213   2.925  0.00  0.00    +0.341 C 
ATOM     23  O   UNL     1      -0.985  -0.350   2.224  0.00  0.00    -0.245 OA
BRANCH  22  24
ATOM     24  O   UNL     1       0.223   1.467   2.628  0.00  0.00    -0.449 OA
BRANCH  24  26
ATOM     25  C   UNL     1       0.481   1.776   0.227  0.00  0.00    +0.062 C 
ATOM     26  C   UNL     1      -0.374   2.085   1.458  0.00  0.00    +0.259 C 
BRANCH  26  27
ATOM     27  C   UNL     1      -0.446   3.577   1.658  0.00  0.00    +0.261 C 
ATOM     28  O   UNL     1       0.046   4.080   2.645  0.00  0.00    -0.271 OA
ATOM     29  N   UNL     1      -1.058   4.351   0.740  0.00  0.00    -0.237 N 
ATOM     30  C   UNL     1      -1.122   5.685   0.919  0.00  0.00    +0.303 C 
ATOM     31  O   UNL     1      -0.629   6.190   1.909  0.00  0.00    -0.253 OA
ATOM     32  N   UNL     1      -1.734   6.460   0.002  0.00  0.00    -0.313 N 
ATOM     33  H   UNL     1      -1.452   3.948  -0.049  0.00  0.00    +0.159 HD
ATOM     34  H   UNL     1      -2.128   6.057  -0.788  0.00  0.00    +0.146 HD
ATOM     35  H   UNL     1      -1.781   7.420   0.131  0.00  0.00    +0.146 HD
ENDBRANCH  26  27
ENDBRANCH  24  26
ENDBRANCH  22  24
ENDBRANCH   1  22
TORSDOF 5
