REMARK  Name = ZINC08737990
REMARK  7 active torsions:
REMARK  status: ('A' for Active; 'I' for Inactive)
REMARK    1  A    between atoms: C_8  and  C_11
REMARK    2  A    between atoms: N_13  and  C_14
REMARK    3  A    between atoms: C_14  and  C_16
REMARK    4  A    between atoms: C_14  and  C_27
REMARK    5  A    between atoms: C_16  and  C_17
REMARK    6  A    between atoms: N_29  and  C_30
REMARK    7  A    between atoms: C_30  and  C_31
REMARK                            x       y       z     vdW  Elec       q    Type
REMARK                         _______ _______ _______ _____ _____    ______ ____
ROOT
ATOM      1  C   UNL     1       1.120   3.657   0.011  0.00  0.00    +0.163 C 
ENDROOT
BRANCH   1   4
ATOM      2  C   UNL     1       2.756   5.393  -0.489  0.00  0.00    +0.200 C 
ATOM      3  O   UNL     1       1.853   6.078  -0.920  0.00  0.00    -0.278 OA
ATOM      4  N   UNL     1       2.494   4.164   0.001  0.00  0.00    -0.305 N 
ATOM      5  H   UNL     1       3.216   3.616   0.346  0.00  0.00    +0.149 HD
BRANCH   2  13
ATOM      6  C   UNL     1       7.709   8.136   2.001  0.00  0.00    +0.000 A 
ATOM      7  C   UNL     1       8.248   8.561   0.801  0.00  0.00    +0.000 A 
ATOM      8  C   UNL     1       7.585   8.302  -0.381  0.00  0.00    +0.002 A 
ATOM      9  C   UNL     1       6.378   7.616  -0.373  0.00  0.00    -0.061 A 
ATOM     10  C   UNL     1       5.839   7.196   0.824  0.00  0.00    -0.047 A 
ATOM     11  C   UNL     1       6.508   7.455   2.011  0.00  0.00    +0.004 A 
ATOM     12  C   UNL     1       4.527   6.457   0.885  0.00  0.00    +0.028 C 
ATOM     13  C   UNL     1       4.169   5.914  -0.499  0.00  0.00    +0.021 C 
ATOM     14  C   UNL     1       5.694   7.353  -1.688  0.00  0.00    -0.045 C 
ATOM     15  N   UNL     1       4.280   7.013  -1.477  0.00  0.00    +0.389 N 
ATOM     16  H   UNL     1       3.781   7.837  -1.122  0.00  0.00    -0.084 HD
ATOM     17  H   UNL     1       3.864   6.718  -2.369  0.00  0.00    -0.084 HD
ENDBRANCH   2  13
ENDBRANCH   1   4
BRANCH   1  18
ATOM     18  C   UNL     1       1.140   2.151   0.003  0.00  0.00    +0.234 C 
ATOM     19  O   UNL     1       2.199   1.558  -0.011  0.00  0.00    -0.274 OA
ATOM     20  N   UNL     1      -0.018   1.461   0.010  0.00  0.00    -0.311 N 
ATOM     21  H   UNL     1      -0.864   1.934   0.017  0.00  0.00    +0.149 HD
BRANCH  20  22
ATOM     22  C   UNL     1       0.002  -0.004   0.002  0.00  0.00    +0.135 C 
BRANCH  22  23
ATOM     23  C   UNL     1      -1.433  -0.534   0.013  0.00  0.00    +0.135 C 
ATOM     24  C   UNL     1      -1.423  -2.073   0.126  0.00  0.00    +0.035 C 
ATOM     25  C   UNL     1      -2.579  -2.481  -0.829  0.00  0.00    +0.031 C 
ATOM     26  C   UNL     1      -2.460  -1.387  -1.921  0.00  0.00    +0.160 C 
ATOM     27  O   UNL     1      -2.086  -0.193  -1.216  0.00  0.00    -0.375 OA
ENDBRANCH  22  23
ENDBRANCH  20  22
ENDBRANCH   1  18
BRANCH   1  28
ATOM     28  C   UNL     1       0.404   4.151   1.270  0.00  0.00    +0.069 C 
BRANCH  28  29
ATOM     29  C   UNL     1       0.275   5.651   1.219  0.00  0.00    -0.020 A 
ATOM     30  C   UNL     1       1.109   6.544   1.774  0.00  0.00    +0.087 A 
ATOM     31  N   UNL     1       0.671   7.815   1.519  0.00  0.00    -0.360 N 
ATOM     32  H   UNL     1       1.109   8.626   1.819  0.00  0.00    +0.165 HD
ATOM     33  C   UNL     1      -0.486   7.770   0.774  0.00  0.00    +0.047 A 
ATOM     34  C   UNL     1      -0.782   6.413   0.548  0.00  0.00    +0.003 A 
ATOM     35  C   UNL     1      -1.911   6.060  -0.194  0.00  0.00    +0.010 A 
ATOM     36  C   UNL     1      -2.722   7.036  -0.700  0.00  0.00    +0.001 A 
ATOM     37  C   UNL     1      -2.433   8.376  -0.483  0.00  0.00    +0.002 A 
ATOM     38  C   UNL     1      -1.328   8.746   0.252  0.00  0.00    +0.026 A 
ENDBRANCH  28  29
ENDBRANCH   1  28
TORSDOF 7
