REMARK  Name = ZINC16914022
REMARK  8 active torsions:
REMARK  status: ('A' for Active; 'I' for Inactive)
REMARK    1  A    between atoms: C_1  and  N_2
REMARK    2  A    between atoms: N_2  and  C_3
REMARK    3  A    between atoms: N_2  and  C_4
REMARK    4  A    between atoms: C_7  and  C_10
REMARK    5  A    between atoms: C_10  and  C_12
REMARK    6  A    between atoms: C_10  and  N_22
REMARK    7  A    between atoms: C_12  and  N_13
REMARK    8  A    between atoms: C_14  and  C_16
REMARK                            x       y       z     vdW  Elec       q    Type
REMARK                         _______ _______ _______ _____ _____    ______ ____
ROOT
ATOM      1  C   UNL     1      -0.919  -0.305  -0.307  0.00  0.00    -0.020 C 
ENDROOT
BRANCH   1   2
ATOM      2  N   UNL     1       0.031   0.808  -0.433  0.00  0.00    +0.388 N 
ATOM      3  C   UNL     1       1.402   0.368  -0.130  0.00  0.00    -0.073 C 
ATOM      4  C   UNL     1       2.376   1.438  -0.625  0.00  0.00    +0.017 C 
ATOM      5  C   UNL     1       1.954   2.793  -0.117  0.00  0.00    -0.048 A 
ATOM      6  C   UNL     1       2.874   3.829  -0.152  0.00  0.00    +0.004 A 
ATOM      7  C   UNL     1       2.527   5.086   0.301  0.00  0.00    +0.000 A 
ATOM      8  C   UNL     1       1.255   5.313   0.792  0.00  0.00    +0.000 A 
ATOM      9  C   UNL     1       0.338   4.282   0.829  0.00  0.00    +0.002 A 
ATOM     10  C   UNL     1       0.686   3.018   0.375  0.00  0.00    -0.061 A 
ATOM     11  C   UNL     1      -0.348   1.924   0.439  0.00  0.00    -0.042 C 
ATOM     12  H   UNL     1      -0.003   1.158  -1.476  0.00  0.00    -0.080 HD
ENDBRANCH   1   2
BRANCH   1  16
ATOM     13  C   UNL     1      -4.223   0.336  -2.941  0.00  0.00    +0.029 A 
ATOM     14  C   UNL     1      -3.995  -0.925  -2.405  0.00  0.00    +0.023 A 
ATOM     15  C   UNL     1      -2.927  -1.128  -1.554  0.00  0.00    +0.004 A 
ATOM     16  C   UNL     1      -2.084  -0.079  -1.236  0.00  0.00    -0.059 A 
ATOM     17  C   UNL     1      -2.312   1.179  -1.764  0.00  0.00    +0.004 A 
ATOM     18  C   UNL     1      -3.375   1.388  -2.619  0.00  0.00    +0.023 A 
BRANCH  13  20
ATOM     19  C   UNL     1      -6.246  -0.542  -4.073  0.00  0.00    +0.129 C 
ATOM     20  N   UNL     1      -5.303   0.546  -3.802  0.00  0.00    -0.336 N 
ATOM     21  C   UNL     1      -5.494   1.854  -4.433  0.00  0.00    +0.129 C 
ENDBRANCH  13  20
ENDBRANCH   1  16
BRANCH   1  22
ATOM     22  C   UNL     1      -1.424  -0.383   1.135  0.00  0.00    +0.093 C 
BRANCH  22  23
ATOM     23  N   UNL     1      -0.306  -0.697   2.028  0.00  0.00    -0.316 N 
ATOM     24  C   UNL     1      -0.485  -0.679   3.364  0.00  0.00    +0.216 C 
ATOM     25  O   UNL     1      -1.571  -0.403   3.827  0.00  0.00    -0.276 OA
ATOM     26  H   UNL     1       0.679  -0.947   1.608  0.00  0.00    +0.149 HD
BRANCH  24  27
ATOM     27  C   UNL     1       0.666  -1.002   4.282  0.00  0.00    +0.075 C 
ATOM     28  C   UNL     1       1.165  -2.419   3.995  0.00  0.00    +0.013 C 
ATOM     29  C   UNL     1       2.333  -2.747   4.928  0.00  0.00    +0.001 C 
ATOM     30  C   UNL     1       1.866  -2.655   6.382  0.00  0.00    +0.000 C 
ATOM     31  C   UNL     1       1.366  -1.238   6.669  0.00  0.00    +0.001 C 
ATOM     32  C   UNL     1       0.198  -0.910   5.736  0.00  0.00    +0.013 C 
ENDBRANCH  24  27
ENDBRANCH  22  23
ENDBRANCH   1  22
TORSDOF 6
