REMARK  Name = ZINC39639230
REMARK  9 active torsions:
REMARK  status: ('A' for Active; 'I' for Inactive)
REMARK    1  A    between atoms: C_1  and  C_2
REMARK    2  A    between atoms: C_5  and  C_8
REMARK    3  A    between atoms: C_8  and  C_10
REMARK    4  A    between atoms: C_8  and  N_11
REMARK    5  A    between atoms: C_12  and  C_14
REMARK    6  A    between atoms: C_25  and  C_27
REMARK    7  A    between atoms: C_32  and  O_33
REMARK    8  A    between atoms: O_33  and  C_34
REMARK    9  A    between atoms: C_34  and  C_36
REMARK                            x       y       z     vdW  Elec       q    Type
REMARK                         _______ _______ _______ _____ _____    ______ ____
ROOT
ATOM      1  C   UNL     1       2.183  -6.679   1.617  0.00  0.00    +0.100 C 
ATOM      2  C   UNL     1       1.588  -6.558   3.038  0.00  0.00    +0.121 C 
ATOM      3  N   UNL     1       1.169  -7.936   3.386  0.00  0.00    -0.296 N 
ATOM      4  C   UNL     1       2.246  -8.798   2.842  0.00  0.00    +0.115 C 
ATOM      5  C   UNL     1       2.617  -8.149   1.494  0.00  0.00    -0.004 C 
ATOM      6  C   UNL     1       4.122  -8.238   1.262  0.00  0.00    -0.010 C 
ATOM      7  C   UNL     1       4.521  -9.706   1.084  0.00  0.00    -0.082 C 
ATOM      8  N   UNL     1       3.795 -10.278  -0.056  0.00  0.00    +0.379 N 
ATOM      9  C   UNL     1       2.353 -10.273   0.216  0.00  0.00    -0.082 C 
ATOM     10  C   UNL     1       1.862  -8.830   0.356  0.00  0.00    -0.010 C 
ATOM     11  C   UNL     1       0.060  -8.320   4.049  0.00  0.00    +0.250 C 
ATOM     12  O   UNL     1      -0.099  -9.489   4.343  0.00  0.00    -0.270 OA
ATOM     13  H   UNL     1       3.982  -9.729  -0.882  0.00  0.00    -0.086 HD
ATOM     14  H   UNL     1       4.105 -11.226  -0.208  0.00  0.00    -0.086 HD
ENDROOT
BRANCH  11  15
ATOM     15  C   UNL     1      -0.962  -7.321   4.417  0.00  0.00    +0.079 A 
ATOM     16  C   UNL     1      -0.581  -6.027   4.778  0.00  0.00    +0.017 A 
ATOM     17  C   UNL     1      -1.541  -5.098   5.120  0.00  0.00    +0.001 A 
ATOM     18  C   UNL     1      -2.882  -5.443   5.108  0.00  0.00    +0.004 A 
ATOM     19  C   UNL     1      -3.272  -6.719   4.754  0.00  0.00    +0.047 A 
ATOM     20  C   UNL     1      -2.321  -7.664   4.401  0.00  0.00    +0.144 A 
BRANCH  20  21
ATOM     21  O   UNL     1      -2.703  -8.917   4.047  0.00  0.00    -0.425 OA
BRANCH  21  22
ATOM     22  C   UNL     1      -2.886  -9.176   2.742  0.00  0.00    +0.309 C 
ATOM     23  O   UNL     1      -2.625  -8.333   1.917  0.00  0.00    -0.251 OA
ATOM     24  C   UNL     1      -3.418 -10.517   2.307  0.00  0.00    +0.136 C 
ENDBRANCH  21  22
ENDBRANCH  20  21
ENDBRANCH  11  15
BRANCH   1  26
ATOM     25  N   UNL     1       1.506  -5.819  -0.601  0.00  0.00    -0.308 N 
ATOM     26  C   UNL     1       1.139  -6.352   0.581  0.00  0.00    +0.219 C 
ATOM     27  O   UNL     1      -0.032  -6.569   0.811  0.00  0.00    -0.275 OA
ATOM     28  H   UNL     1       2.442  -5.646  -0.785  0.00  0.00    +0.149 HD
BRANCH  25  29
ATOM     29  C   UNL     1       0.490  -5.501  -1.608  0.00  0.00    +0.100 C 
ATOM     30  C   UNL     1      -0.089  -4.113  -1.329  0.00  0.00    +0.033 C 
BRANCH  29  35
ATOM     31  C   UNL     1       2.899  -5.559  -6.861  0.00  0.00    +0.044 C 
ATOM     32  C   UNL     1       2.271  -5.544  -5.491  0.00  0.00    -0.050 A 
ATOM     33  C   UNL     1       1.007  -6.072  -5.304  0.00  0.00    +0.004 A 
ATOM     34  C   UNL     1       0.431  -6.058  -4.048  0.00  0.00    +0.006 A 
ATOM     35  C   UNL     1       1.119  -5.517  -2.978  0.00  0.00    -0.027 A 
ATOM     36  C   UNL     1       2.383  -4.990  -3.164  0.00  0.00    +0.006 A 
ATOM     37  C   UNL     1       2.961  -5.008  -4.420  0.00  0.00    +0.004 A 
ENDBRANCH  29  35
ENDBRANCH  25  29
ENDBRANCH   1  26
TORSDOF 6
