REMARK  Name = ZINC24226719
REMARK  10 active torsions:
REMARK  status: ('A' for Active; 'I' for Inactive)
REMARK    1  A    between atoms: C_1  and  C_2
REMARK    2  A    between atoms: C_2  and  C_4
REMARK    3  A    between atoms: C_2  and  S_13
REMARK    4  A    between atoms: C_8  and  N_10
REMARK    5  A    between atoms: S_13  and  C_14
REMARK    6  A    between atoms: C_17  and  C_29
REMARK    7  A    between atoms: N_18  and  C_19
REMARK    8  A    between atoms: C_22  and  O_25
REMARK    9  A    between atoms: O_25  and  C_26
REMARK   10  A    between atoms: C_29  and  N_30
REMARK                            x       y       z     vdW  Elec       q    Type
REMARK                         _______ _______ _______ _____ _____    ______ ____
ROOT
ATOM      1  C   UNL     1      -0.669   7.666   1.356  0.00  0.00    +0.197 A 
ATOM      2  N   UNL     1      -0.030   8.274   0.383  0.00  0.00    -0.122 NA
ATOM      3  N   UNL     1      -0.039   9.544   0.580  0.00  0.00    -0.135 NA
ATOM      4  C   UNL     1      -0.679   9.823   1.681  0.00  0.00    +0.122 A 
ATOM      5  N   UNL     1      -1.109   8.636   2.213  0.00  0.00    -0.276 N 
ENDROOT
BRANCH   5   6
ATOM      6  C   UNL     1      -1.846   8.454   3.394  0.00  0.00    +0.050 A 
ATOM      7  C   UNL     1      -3.138   8.951   3.490  0.00  0.00    +0.030 A 
ATOM      8  C   UNL     1      -3.865   8.766   4.650  0.00  0.00    +0.048 A 
ATOM      9  C   UNL     1      -3.298   8.095   5.724  0.00  0.00    +0.127 A 
ATOM     10  C   UNL     1      -2.004   7.604   5.631  0.00  0.00    +0.048 A 
ATOM     11  C   UNL     1      -1.279   7.783   4.469  0.00  0.00    +0.030 A 
BRANCH   9  12
ATOM     12  O   UNL     1      -4.011   7.919   6.868  0.00  0.00    -0.434 OA
BRANCH  12  13
ATOM     13  C   UNL     1      -5.338   8.451   6.894  0.00  0.00    +0.541 C 
ATOM     14  F   UNL     1      -5.290   9.834   6.690  0.00  0.00    -0.166 F 
ATOM     15  F   UNL     1      -6.098   7.856   5.881  0.00  0.00    -0.166 F 
ENDBRANCH  12  13
ENDBRANCH   9  12
ENDBRANCH   5   6
BRANCH   1  16
ATOM     16  S   UNL     1      -0.919   5.930   1.521  0.00  0.00    -0.078 S 
BRANCH  16  18
ATOM     17  C   UNL     1      -0.810   5.855  -1.208  0.00  0.00    +0.024 C 
ATOM     18  C   UNL     1      -0.070   5.347   0.032  0.00  0.00    +0.081 C 
BRANCH  18  19
ATOM     19  C   UNL     1      -0.050   3.840   0.023  0.00  0.00    -0.032 A 
ATOM     20  C   UNL     1      -1.238   3.133   0.029  0.00  0.00    +0.005 A 
ATOM     21  C   UNL     1      -1.219   1.751   0.017  0.00  0.00    +0.003 A 
ATOM     22  C   UNL     1      -0.013   1.076   0.008  0.00  0.00    +0.033 A 
ATOM     23  C   UNL     1       1.175   1.783   0.000  0.00  0.00    +0.126 A 
ATOM     24  C   UNL     1       1.156   3.166   0.008  0.00  0.00    +0.037 A 
BRANCH  23  25
ATOM     25  N   UNL     1       2.467   1.060  -0.015  0.00  0.00    +0.056 N 
ATOM     26  O   UNL     1       2.483  -0.157  -0.022  0.00  0.00    -0.126 OA
ATOM     27  O   UNL     1       3.513   1.684  -0.022  0.00  0.00    -0.126 OA
ENDBRANCH  23  25
ENDBRANCH  18  19
ENDBRANCH  16  18
ENDBRANCH   1  16
BRANCH   4  28
ATOM     28  C   UNL     1      -0.908  11.196   2.258  0.00  0.00    -0.001 C 
BRANCH  28  29
ATOM     29  N   UNL     1      -2.166  11.744   1.732  0.00  0.00    +0.384 N 
ATOM     30  C   UNL     1      -2.073  11.977   0.285  0.00  0.00    -0.078 C 
ATOM     31  C   UNL     1      -3.440  12.408  -0.252  0.00  0.00    -0.019 C 
ATOM     32  C   UNL     1      -3.884  13.688   0.463  0.00  0.00    -0.004 C 
ATOM     33  C   UNL     1      -3.925  13.431   1.972  0.00  0.00    -0.019 C 
ATOM     34  C   UNL     1      -2.544  12.970   2.444  0.00  0.00    -0.078 C 
ATOM     35  H   UNL     1      -2.958  11.000   1.901  0.00  0.00    -0.081 HD
ENDBRANCH  28  29
ENDBRANCH   4  28
TORSDOF 9
