REMARK  Name = ZINC38911080
REMARK  7 active torsions:
REMARK  status: ('A' for Active; 'I' for Inactive)
REMARK    1  A    between atoms: C_1  and  C_2
REMARK    2  A    between atoms: C_2  and  C_3
REMARK    3  A    between atoms: C_3  and  N_4
REMARK    4  A    between atoms: C_12  and  C_13
REMARK    5  A    between atoms: C_15  and  C_18
REMARK    6  A    between atoms: N_20  and  C_21
REMARK    7  A    between atoms: C_21  and  C_22
REMARK                            x       y       z     vdW  Elec       q    Type
REMARK                         _______ _______ _______ _____ _____    ______ ____
ROOT
ATOM      1  C   UNL     1      -1.384  -2.309   2.517  0.00  0.00    +0.125 A 
ATOM      2  N   UNL     1      -1.358  -3.002   3.644  0.00  0.00    -0.233 NA
ATOM      3  C   UNL     1      -1.355  -2.339   4.792  0.00  0.00    +0.133 A 
ATOM      4  C   UNL     1      -1.379  -0.969   4.770  0.00  0.00    +0.080 A 
ATOM      5  S   UNL     1      -1.399  -0.631   3.122  0.00  0.00    -0.073 S 
ENDROOT
BRANCH   1  14
ATOM      6  N   UNL     1      -1.413  -1.998   0.005  0.00  0.00    -0.338 N 
ATOM      7  C   UNL     1      -1.408  -2.784  -1.126  0.00  0.00    +0.050 A 
ATOM      8  C   UNL     1      -1.418  -2.496  -2.487  0.00  0.00    +0.026 A 
ATOM      9  C   UNL     1      -1.409  -3.523  -3.405  0.00  0.00    +0.002 A 
ATOM     10  C   UNL     1      -1.389  -4.847  -2.987  0.00  0.00    +0.001 A 
ATOM     11  C   UNL     1      -1.379  -5.155  -1.657  0.00  0.00    +0.010 A 
ATOM     12  C   UNL     1      -1.388  -4.128  -0.707  0.00  0.00    +0.001 A 
ATOM     13  C   UNL     1      -1.381  -4.103   0.754  0.00  0.00    +0.038 A 
ATOM     14  C   UNL     1      -1.391  -2.797   1.127  0.00  0.00    +0.075 A 
BRANCH   6  15
ATOM     15  C   UNL     1      -1.433  -0.534   0.013  0.00  0.00    +0.122 C 
BRANCH  15  17
ATOM     16  C   UNL     1      -0.019   1.526   0.010  0.00  0.00    +0.005 C 
ATOM     17  C   UNL     1       0.002  -0.004   0.002  0.00  0.00    +0.018 C 
ENDBRANCH  15  17
ENDBRANCH   6  15
ENDBRANCH   1  14
BRANCH   3  18
ATOM     18  C   UNL     1      -1.327  -3.065   6.073  0.00  0.00    +0.263 C 
ATOM     19  O   UNL     1      -1.325  -2.448   7.122  0.00  0.00    -0.269 OA
ATOM     20  N   UNL     1      -1.304  -4.412   6.084  0.00  0.00    -0.301 N 
ATOM     21  H   UNL     1      -1.305  -4.904   5.248  0.00  0.00    +0.150 HD
BRANCH  20  22
ATOM     22  C   UNL     1      -1.276  -5.134   7.359  0.00  0.00    +0.200 C 
BRANCH  22  23
ATOM     23  C   UNL     1      -1.253  -6.618   7.095  0.00  0.00    +0.214 A 
ATOM     24  N   UNL     1      -0.176  -7.331   6.958  0.00  0.00    -0.212 NA
ATOM     25  C   UNL     1      -0.533  -8.625   6.732  0.00  0.00    +0.110 A 
ATOM     26  C   UNL     1       0.186  -9.802   6.517  0.00  0.00    +0.031 A 
ATOM     27  C   UNL     1      -0.488 -10.986   6.314  0.00  0.00    +0.002 A 
ATOM     28  C   UNL     1      -1.875 -11.015   6.323  0.00  0.00    +0.004 A 
ATOM     29  C   UNL     1      -2.598  -9.860   6.534  0.00  0.00    +0.048 A 
ATOM     30  C   UNL     1      -1.936  -8.659   6.741  0.00  0.00    +0.155 A 
ATOM     31  O   UNL     1      -2.343  -7.392   6.974  0.00  0.00    -0.438 OA
ENDBRANCH  22  23
ENDBRANCH  20  22
ENDBRANCH   3  18
TORSDOF 6
