REMARK  Name = ZINC13980257
REMARK  5 active torsions:
REMARK  status: ('A' for Active; 'I' for Inactive)
REMARK    1  A    between atoms: C_3  and  N_9
REMARK    2  A    between atoms: C_10  and  C_12
REMARK    3  A    between atoms: C_12  and  C_13
REMARK    4  A    between atoms: C_13  and  C_14
REMARK    5  A    between atoms: N_16  and  N_17
REMARK                            x       y       z     vdW  Elec       q    Type
REMARK                         _______ _______ _______ _____ _____    ______ ____
ROOT
ATOM      1  C   UNL     1       5.860   6.495  -0.446  0.00  0.00    +0.233 C 
ATOM      2  O   UNL     1       6.916   5.899  -0.465  0.00  0.00    -0.274 OA
ATOM      3  N   UNL     1       5.843   7.839  -0.540  0.00  0.00    -0.206 N 
ATOM      4  H   UNL     1       4.998   8.316  -0.524  0.00  0.00    +0.177 HD
ENDROOT
BRANCH   3   5
ATOM      5  N   UNL     1       7.045   8.548  -0.660  0.00  0.00    -0.175 NA
ATOM      6  C   UNL     1       7.037   9.858  -0.654  0.00  0.00    +0.153 C 
ATOM      7  C   UNL     1       5.856  10.753  -0.632  0.00  0.00    +0.029 A 
ATOM      8  C   UNL     1       4.486  10.520  -0.613  0.00  0.00    +0.027 A 
ATOM      9  C   UNL     1       3.609  11.587  -0.595  0.00  0.00    +0.019 A 
ATOM     10  C   UNL     1       4.096  12.885  -0.596  0.00  0.00    +0.017 A 
ATOM     11  C   UNL     1       5.455  13.125  -0.615  0.00  0.00    +0.025 A 
ATOM     12  C   UNL     1       6.352  12.063  -0.633  0.00  0.00    +0.043 A 
ATOM     13  N   UNL     1       7.742  12.028  -0.653  0.00  0.00    -0.280 N 
ATOM     14  C   UNL     1       8.203  10.766  -0.660  0.00  0.00    +0.269 C 
ATOM     15  O   UNL     1       9.372  10.429  -0.672  0.00  0.00    -0.268 OA
ATOM     16 BR   UNL     1       1.744  11.278  -0.570  0.00  0.00    -0.050 Br
ATOM     17  H   UNL     1       8.308  12.816  -0.658  0.00  0.00    +0.155 HD
ENDBRANCH   3   5
BRANCH   1  18
ATOM     18  C   UNL     1       4.566   5.732  -0.316  0.00  0.00    +0.107 C 
BRANCH  18  19
ATOM     19  C   UNL     1       4.864   4.234  -0.227  0.00  0.00    +0.105 C 
BRANCH  19  21
ATOM     20  N   UNL     1       3.588   2.127  -0.004  0.00  0.00    -0.284 N 
ATOM     21  C   UNL     1       3.571   3.471  -0.098  0.00  0.00    +0.218 C 
ATOM     22  O   UNL     1       2.515   4.067  -0.078  0.00  0.00    -0.275 OA
ATOM     23  H   UNL     1       4.433   1.656   0.063  0.00  0.00    +0.155 HD
BRANCH  20  26
ATOM     24  C   UNL     1       0.066   1.243  -0.588  0.00  0.00    +0.022 A 
ATOM     25  C   UNL     1       1.251   1.953  -0.590  0.00  0.00    +0.026 A 
ATOM     26  C   UNL     1       2.385   1.410  -0.002  0.00  0.00    +0.052 A 
ATOM     27  C   UNL     1       2.325   0.153   0.589  0.00  0.00    +0.064 A 
ATOM     28  C   UNL     1       1.136  -0.552   0.589  0.00  0.00    +0.041 A 
ATOM     29  C   UNL     1       0.007  -0.007   0.001  0.00  0.00    +0.042 A 
ATOM     30 CL   UNL     1      -1.484  -0.895   0.003  0.00  0.00    -0.083 Cl
ATOM     31 CL   UNL     1       3.740  -0.530   1.326  0.00  0.00    -0.082 Cl
ENDBRANCH  20  26
ENDBRANCH  19  21
ENDBRANCH  18  19
ENDBRANCH   1  18
TORSDOF 5
