REMARK  Name = ZINC59768644
REMARK  8 active torsions:
REMARK  status: ('A' for Active; 'I' for Inactive)
REMARK    1  A    between atoms: C_1  and  C_2
REMARK    2  A    between atoms: C_4  and  C_24
REMARK    3  A    between atoms: C_7  and  N_8
REMARK    4  A    between atoms: C_9  and  C_11
REMARK    5  A    between atoms: C_11  and  C_12
REMARK    6  A    between atoms: C_13  and  C_23
REMARK    7  A    between atoms: C_21  and  C_22
REMARK    8  A    between atoms: N_26  and  C_27
REMARK                            x       y       z     vdW  Elec       q    Type
REMARK                         _______ _______ _______ _____ _____    ______ ____
ROOT
ATOM      1  N   UNL     1       0.025  -0.012   2.413  0.00  0.00    -0.285 N 
ATOM      2  C   UNL     1      -0.632  -0.513   3.478  0.00  0.00    +0.222 C 
ATOM      3  O   UNL     1      -1.149  -1.609   3.411  0.00  0.00    -0.275 OA
ATOM      4  H   UNL     1       0.494   0.834   2.487  0.00  0.00    +0.155 HD
ENDROOT
BRANCH   1  11
ATOM      5  C   UNL     1      -0.013   1.493   0.004  0.00  0.00    +0.045 C 
ATOM      6  C   UNL     1       0.013  -0.014   0.002  0.00  0.00    -0.029 A 
ATOM      7  C   UNL     1       0.025  -0.699  -1.192  0.00  0.00    +0.018 A 
ATOM      8  C   UNL     1       0.049  -2.096  -1.193  0.00  0.00    +0.037 A 
ATOM      9  C   UNL     1       0.061  -2.793   0.018  0.00  0.00    +0.015 A 
ATOM     10  C   UNL     1       0.049  -2.101   1.208  0.00  0.00    +0.024 A 
ATOM     11  C   UNL     1       0.031  -0.710   1.206  0.00  0.00    +0.036 A 
BRANCH   8  12
ATOM     12  C   UNL     1       0.061  -2.835  -2.471  0.00  0.00    +0.244 C 
ATOM     13  O   UNL     1       0.050  -2.228  -3.524  0.00  0.00    -0.270 OA
ATOM     14  N   UNL     1       0.084  -4.182  -2.470  0.00  0.00    -0.308 N 
ATOM     15  H   UNL     1       0.092  -4.667  -1.630  0.00  0.00    +0.149 HD
BRANCH  14  16
ATOM     16  C   UNL     1       0.096  -4.915  -3.739  0.00  0.00    +0.073 C 
ATOM     17  C   UNL     1      -1.339  -5.086  -4.243  0.00  0.00    +0.022 C 
ATOM     18  C   UNL     1      -1.327  -5.852  -5.567  0.00  0.00    +0.002 C 
ATOM     19  C   UNL     1      -0.693  -7.228  -5.355  0.00  0.00    +0.000 C 
ATOM     20  C   UNL     1       0.741  -7.057  -4.851  0.00  0.00    +0.002 C 
ATOM     21  C   UNL     1       0.729  -6.292  -3.527  0.00  0.00    +0.022 C 
ENDBRANCH  14  16
ENDBRANCH   8  12
ENDBRANCH   1  11
BRANCH   2  22
ATOM     22  C   UNL     1      -0.725   0.287   4.751  0.00  0.00    +0.133 C 
BRANCH  22  23
ATOM     23  C   UNL     1      -1.506  -0.491   5.779  0.00  0.00    -0.016 A 
ATOM     24  C   UNL     1      -2.863  -0.353   5.856  0.00  0.00    -0.036 A 
ATOM     25  C   UNL     1      -3.552  -1.100   6.829  0.00  0.00    +0.002 A 
ATOM     26  C   UNL     1      -4.947  -1.010   6.968  0.00  0.00    +0.010 A 
ATOM     27  C   UNL     1      -5.577  -1.749   7.922  0.00  0.00    +0.001 A 
ATOM     28  C   UNL     1      -4.856  -2.594   8.764  0.00  0.00    +0.002 A 
ATOM     29  C   UNL     1      -3.504  -2.705   8.658  0.00  0.00    +0.026 A 
ATOM     30  C   UNL     1      -2.817  -1.958   7.684  0.00  0.00    +0.047 A 
ATOM     31  N   UNL     1      -1.490  -2.048   7.556  0.00  0.00    -0.358 N 
ATOM     32  C   UNL     1      -0.845  -1.357   6.647  0.00  0.00    +0.017 A 
ATOM     33  C   UNL     1       0.652  -1.500   6.542  0.00  0.00    +0.063 C 
ATOM     34  C   UNL     1      -3.601   0.574   4.924  0.00  0.00    +0.045 C 
ATOM     35  H   UNL     1      -0.994  -2.638   8.145  0.00  0.00    +0.166 HD
ENDBRANCH  22  23
ENDBRANCH   2  22
TORSDOF 5
