REMARK  Name = ZINC24040536
REMARK  6 active torsions:
REMARK  status: ('A' for Active; 'I' for Inactive)
REMARK    1  A    between atoms: C_1  and  S_2
REMARK    2  A    between atoms: S_2  and  C_3
REMARK    3  A    between atoms: C_6  and  C_9
REMARK    4  A    between atoms: C_15  and  C_17
REMARK    5  A    between atoms: C_17  and  N_18
REMARK    6  A    between atoms: C_25  and  N_29
REMARK                            x       y       z     vdW  Elec       q    Type
REMARK                         _______ _______ _______ _____ _____    ______ ____
ROOT
ATOM      1  C   UNL     1       2.892  -1.393  -5.089  0.00  0.00    +0.080 A 
ATOM      2  C   UNL     1       3.089  -2.700  -5.435  0.00  0.00    +0.076 A 
ATOM      3  S   UNL     1       3.966  -2.504  -6.981  0.00  0.00    -0.060 S 
ATOM      4  C   UNL     1       3.979  -0.717  -7.006  0.00  0.00    +0.165 A 
ATOM      5  N   UNL     1       3.337  -0.434  -5.887  0.00  0.00    -0.225 NA
ATOM      6  N   UNL     1       4.516   0.146  -7.954  0.00  0.00    -0.263 N 
ATOM      7  C   UNL     1       5.134  -0.351  -9.043  0.00  0.00    +0.237 C 
ATOM      8  O   UNL     1       5.221  -1.551  -9.197  0.00  0.00    -0.274 OA
ATOM      9  H   UNL     1       4.446   1.105  -7.831  0.00  0.00    +0.157 HD
ENDROOT
BRANCH   1  13
ATOM     10  C   UNL     1       0.848  -0.411  -1.489  0.00  0.00    +0.008 A 
ATOM     11  C   UNL     1       1.314   0.601  -2.321  0.00  0.00    +0.015 A 
ATOM     12  C   UNL     1       1.977   0.285  -3.488  0.00  0.00    +0.011 A 
ATOM     13  C   UNL     1       2.180  -1.050  -3.833  0.00  0.00    +0.001 A 
ATOM     14  C   UNL     1       1.712  -2.063  -2.998  0.00  0.00    +0.011 A 
ATOM     15  C   UNL     1       1.054  -1.743  -1.829  0.00  0.00    +0.015 A 
BRANCH  10  17
ATOM     16  C   UNL     1      -0.022   1.810   0.012  0.00  0.00    +0.090 C 
ATOM     17  S   UNL     1       0.002  -0.004   0.002  0.00  0.00    -0.129 S 
ENDBRANCH  10  17
ENDBRANCH   1  13
BRANCH   7  18
ATOM     18  C   UNL     1       5.717   0.584 -10.071  0.00  0.00    +0.213 C 
BRANCH  18  19
ATOM     19  N   UNL     1       6.329  -0.195 -11.150  0.00  0.00    -0.225 N 
ATOM     20  C   UNL     1       7.610  -0.605 -11.161  0.00  0.00    +0.254 C 
ATOM     21  O   UNL     1       8.430  -0.391 -10.291  0.00  0.00    -0.270 OA
ATOM     22  C   UNL     1       7.853  -1.361 -12.408  0.00  0.00    +0.052 A 
ATOM     23  C   UNL     1       8.953  -2.003 -12.951  0.00  0.00    +0.014 A 
ATOM     24  C   UNL     1       8.842  -2.636 -14.180  0.00  0.00    +0.003 A 
ATOM     25  C   UNL     1       7.642  -2.630 -14.865  0.00  0.00    +0.033 A 
ATOM     26  C   UNL     1       6.532  -1.991 -14.333  0.00  0.00    +0.139 A 
ATOM     27  C   UNL     1       6.628  -1.355 -13.106  0.00  0.00    +0.080 A 
ATOM     28  C   UNL     1       5.682  -0.601 -12.258  0.00  0.00    +0.256 C 
ATOM     29  O   UNL     1       4.516  -0.382 -12.518  0.00  0.00    -0.269 OA
BRANCH  26  30
ATOM     30  N   UNL     1       5.250  -1.990 -15.073  0.00  0.00    +0.057 N 
ATOM     31  O   UNL     1       5.170  -2.546 -16.143  0.00  0.00    -0.126 OA
ATOM     32  O   UNL     1       4.284  -1.432 -14.607  0.00  0.00    -0.126 OA
ENDBRANCH  26  30
ENDBRANCH  18  19
ENDBRANCH   7  18
TORSDOF 5
