REMARK  Name = ZINC19438431
REMARK  7 active torsions:
REMARK  status: ('A' for Active; 'I' for Inactive)
REMARK    1  A    between atoms: C_1  and  C_2
REMARK    2  A    between atoms: C_2  and  C_3
REMARK    3  A    between atoms: C_3  and  C_20
REMARK    4  A    between atoms: N_6  and  C_10
REMARK    5  A    between atoms: C_10  and  C_11
REMARK    6  A    between atoms: C_14  and  C_17
REMARK    7  A    between atoms: C_17  and  N_19
REMARK                            x       y       z     vdW  Elec       q    Type
REMARK                         _______ _______ _______ _____ _____    ______ ____
ROOT
ATOM      1  C   UNL     1      -2.569  -1.988   1.805  0.00  0.00    +0.153 C 
ENDROOT
BRANCH   1   5
ATOM      2  C   UNL     1       0.002  -0.004   0.002  0.00  0.00    +0.110 C 
ATOM      3  C   UNL     1      -1.403  -0.557   0.139  0.00  0.00    +0.247 C 
ATOM      4  O   UNL     1      -2.333  -0.391  -0.620  0.00  0.00    -0.273 OA
ATOM      5  N   UNL     1      -1.403  -1.272   1.282  0.00  0.00    -0.220 N 
ATOM      6  C   UNL     1      -0.206  -1.247   1.879  0.00  0.00    +0.310 C 
ATOM      7  O   UNL     1       0.040  -1.819   2.924  0.00  0.00    -0.252 OA
ATOM      8  N   UNL     1       0.695  -0.520   1.195  0.00  0.00    -0.285 N 
ATOM      9  C   UNL     1      -0.019   1.526   0.010  0.00  0.00    +0.041 C 
ATOM     10  H   UNL     1       1.754  -0.274   1.365  0.00  0.00    +0.151 HD
BRANCH   2  12
ATOM     11  C   UNL     1       2.136  -0.098  -1.294  0.00  0.00    +0.006 C 
ATOM     12  C   UNL     1       0.667  -0.525  -1.274  0.00  0.00    +0.031 C 
ENDBRANCH   2  12
ENDBRANCH   1   5
BRANCH   1  13
ATOM     13  C   UNL     1      -3.355  -1.074   2.709  0.00  0.00    -0.030 A 
ATOM     14  C   UNL     1      -3.070  -1.032   4.062  0.00  0.00    +0.006 A 
ATOM     15  C   UNL     1      -3.782  -0.194   4.895  0.00  0.00    +0.010 A 
ATOM     16  C   UNL     1      -4.801   0.605   4.371  0.00  0.00    +0.003 A 
ATOM     17  C   UNL     1      -5.087   0.553   3.006  0.00  0.00    +0.010 A 
ATOM     18  C   UNL     1      -4.363  -0.285   2.183  0.00  0.00    +0.006 A 
BRANCH  16  19
ATOM     19  C   UNL     1      -5.571   1.499   5.257  0.00  0.00    +0.077 C 
ATOM     20  S   UNL     1      -7.236   1.770   4.962  0.00  0.00    -0.035 S 
BRANCH  19  21
ATOM     21  N   UNL     1      -4.964   2.103   6.298  0.00  0.00    -0.352 N 
ATOM     22  H   UNL     1      -5.538   2.769   6.959  0.00  0.00    +0.143 HD
ATOM     23  H   UNL     1      -3.895   1.929   6.488  0.00  0.00    +0.143 HD
ENDBRANCH  19  21
ENDBRANCH  16  19
ENDBRANCH   1  13
TORSDOF 5
