REMARK  Name = ZINC46791491
REMARK  11 active torsions:
REMARK  status: ('A' for Active; 'I' for Inactive)
REMARK    1  A    between atoms: C_1  and  C_2
REMARK    2  A    between atoms: C_2  and  C_3
REMARK    3  A    between atoms: C_3  and  C_5
REMARK    4  A    between atoms: C_3  and  N_6
REMARK    5  A    between atoms: N_6  and  S_7
REMARK    6  A    between atoms: S_7  and  C_10
REMARK    7  A    between atoms: C_13  and  C_16
REMARK    8  A    between atoms: N_18  and  C_19
REMARK    9  A    between atoms: C_19  and  C_20
REMARK   10  A    between atoms: C_28  and  C_35
REMARK   11  A    between atoms: C_31  and  C_34
REMARK                            x       y       z     vdW  Elec       q    Type
REMARK                         _______ _______ _______ _____ _____    ______ ____
ROOT
ATOM      1  C   UNL     1       3.603  -4.591  -5.824  0.00  0.00    +0.244 C 
ATOM      2  O   UNL     1       4.736  -4.825  -5.450  0.00  0.00    -0.270 OA
ATOM      3  N   UNL     1       2.981  -5.445  -6.661  0.00  0.00    -0.307 N 
ATOM      4  H   UNL     1       2.077  -5.258  -6.960  0.00  0.00    +0.149 HD
ENDROOT
BRANCH   1   8
ATOM      5  C   UNL     1       1.609  -1.084  -4.497  0.00  0.00    +0.105 A 
ATOM      6  C   UNL     1       2.898  -1.347  -4.068  0.00  0.00    +0.029 A 
ATOM      7  C   UNL     1       3.551  -2.485  -4.495  0.00  0.00    +0.015 A 
ATOM      8  C   UNL     1       2.909  -3.371  -5.362  0.00  0.00    +0.037 A 
ATOM      9  C   UNL     1       1.609  -3.099  -5.790  0.00  0.00    +0.015 A 
ATOM     10  C   UNL     1       0.965  -1.961  -5.351  0.00  0.00    +0.029 A 
BRANCH   5  11
ATOM     11  S   UNL     1       0.782   0.371  -3.946  0.00  0.00    +0.059 S 
ATOM     12  O   UNL     1      -0.214   0.664  -4.916  0.00  0.00    -0.153 OA
ATOM     13  O   UNL     1       1.794   1.303  -3.589  0.00  0.00    -0.153 OA
BRANCH  11  14
ATOM     14  N   UNL     1      -0.017  -0.018  -2.549  0.00  0.00    -0.187 NA
ATOM     15  H   UNL     1      -0.986   0.005  -2.522  0.00  0.00    +0.148 HD
BRANCH  14  16
ATOM     16  C   UNL     1       0.741  -0.398  -1.354  0.00  0.00    +0.073 C 
ATOM     17  C   UNL     1       0.853  -1.922  -1.284  0.00  0.00    +0.025 C 
BRANCH  16  19
ATOM     18  C   UNL     1       0.017   1.648  -0.116  0.00  0.00    +0.005 C 
ATOM     19  C   UNL     1       0.019   0.118  -0.107  0.00  0.00    +0.017 C 
ENDBRANCH  16  19
ENDBRANCH  14  16
ENDBRANCH  11  14
ENDBRANCH   5  11
ENDBRANCH   1   8
BRANCH   3  20
ATOM     20  C   UNL     1       3.668  -6.655  -7.119  0.00  0.00    +0.141 C 
BRANCH  20  21
ATOM     21  C   UNL     1       2.761  -7.431  -8.038  0.00  0.00    -0.014 A 
ATOM     22  C   UNL     1       1.899  -8.392  -7.526  0.00  0.00    +0.010 A 
ATOM     23  C   UNL     1       1.083  -9.082  -8.403  0.00  0.00    +0.042 A 
ATOM     24  C   UNL     1       1.152  -8.792  -9.762  0.00  0.00    +0.099 A 
ATOM     25  N   UNL     1       1.988  -7.868 -10.212  0.00  0.00    -0.349 N 
ATOM     26  C   UNL     1       2.774  -7.190  -9.397  0.00  0.00    +0.089 A 
ATOM     27  N   UNL     1       0.338  -9.478 -10.655  0.00  0.00    -0.312 N 
ATOM     28  C   UNL     1      -0.507 -10.596 -10.205  0.00  0.00    +0.137 C 
ATOM     29  C   UNL     1      -0.261 -11.792 -11.132  0.00  0.00    +0.133 C 
ATOM     30  O   UNL     1      -0.427 -11.377 -12.490  0.00  0.00    -0.371 OA
ATOM     31  C   UNL     1       0.502 -10.377 -12.915  0.00  0.00    +0.133 C 
ATOM     32  C   UNL     1       0.291  -9.104 -12.078  0.00  0.00    +0.137 C 
ATOM     33  C   UNL     1       0.271 -10.059 -14.393  0.00  0.00    +0.039 C 
ATOM     34  C   UNL     1      -1.262 -12.903 -10.810  0.00  0.00    +0.039 C 
ATOM     35  H   UNL     1       2.019  -7.683 -11.164  0.00  0.00    +0.167 HD
ENDBRANCH  20  21
ENDBRANCH   3  20
TORSDOF 7
