REMARK  Name = ZINC08745910
REMARK  7 active torsions:
REMARK  status: ('A' for Active; 'I' for Inactive)
REMARK    1  A    between atoms: C_3  and  C_6
REMARK    2  A    between atoms: N_13  and  C_22
REMARK    3  A    between atoms: C_14  and  C_16
REMARK    4  A    between atoms: C_16  and  N_63
REMARK    5  A    between atoms: C_22  and  C_23
REMARK    6  A    between atoms: N_25  and  C_26
REMARK    7  A    between atoms: C_26  and  C_27
REMARK                            x       y       z     vdW  Elec       q    Type
REMARK                         _______ _______ _______ _____ _____    ______ ____
ROOT
ATOM      1  C   UNL     1       0.916   5.132   0.021  0.00  0.00    +0.010 A 
ATOM      2  C   UNL     1       0.429   6.038  -0.864  0.00  0.00    +0.057 A 
ATOM      3  S   UNL     1       1.318   7.529  -0.459  0.00  0.00    -0.076 S 
ATOM      4  C   UNL     1       2.312   6.909   0.874  0.00  0.00    +0.116 A 
ATOM      5  C   UNL     1       1.928   5.562   0.979  0.00  0.00    +0.080 A 
ATOM      6  C   UNL     1       2.594   4.805   1.994  0.00  0.00    +0.263 A 
ATOM      7  O   UNL     1       2.331   3.626   2.159  0.00  0.00    -0.267 OA
ATOM      8  N   UNL     1       3.510   5.416   2.768  0.00  0.00    -0.289 N 
ATOM      9  C   UNL     1       3.815   6.728   2.599  0.00  0.00    +0.097 A 
ATOM     10  N   UNL     1       3.229   7.444   1.677  0.00  0.00    -0.228 NA
ENDROOT
BRANCH   1  13
ATOM     11  C   UNL     1      -1.079   1.914   0.017  0.00  0.00    +0.008 A 
ATOM     12  C   UNL     1      -0.864   3.276   0.028  0.00  0.00    +0.016 A 
ATOM     13  C   UNL     1       0.426   3.738   0.018  0.00  0.00    +0.021 A 
ATOM     14  S   UNL     1       1.361   2.217   0.001  0.00  0.00    -0.097 S 
ATOM     15  C   UNL     1      -0.013   1.076   0.008  0.00  0.00    +0.046 A 
ENDBRANCH   1  13
BRANCH   9  16
ATOM     16  C   UNL     1       4.848   7.369   3.489  0.00  0.00    -0.003 C 
BRANCH  16  22
ATOM     17  C   UNL     1       5.584   8.912   1.772  0.00  0.00    -0.050 C 
ATOM     18  C   UNL     1       5.675  10.395   1.403  0.00  0.00    +0.141 C 
ATOM     19  O   UNL     1       6.446  11.081   2.392  0.00  0.00    -0.383 OA
ATOM     20  C   UNL     1       5.912  10.976   3.714  0.00  0.00    +0.141 C 
ATOM     21  C   UNL     1       5.823   9.499   4.107  0.00  0.00    -0.050 C 
ATOM     22  N   UNL     1       4.982   8.794   3.117  0.00  0.00    +0.387 N 
ATOM     23  H   UNL     1       4.050   9.225   3.104  0.00  0.00    -0.081 HD
ENDBRANCH  16  22
ENDBRANCH   9  16
BRANCH   8  24
ATOM     24  C   UNL     1       4.192   4.649   3.814  0.00  0.00    +0.222 C 
BRANCH  24  25
ATOM     25  C   UNL     1       3.407   4.743   5.098  0.00  0.00    +0.233 C 
ATOM     26  O   UNL     1       2.380   5.386   5.135  0.00  0.00    -0.274 OA
ATOM     27  N   UNL     1       3.848   4.111   6.204  0.00  0.00    -0.314 N 
ATOM     28  H   UNL     1       4.669   3.597   6.174  0.00  0.00    +0.149 HD
BRANCH  27  29
ATOM     29  C   UNL     1       3.085   4.202   7.451  0.00  0.00    +0.107 C 
BRANCH  29  30
ATOM     30  C   UNL     1       3.797   3.402   8.544  0.00  0.00    +0.006 C 
ATOM     31  C   UNL     1       3.792   1.917   8.174  0.00  0.00    +0.005 C 
ATOM     32  C   UNL     1       4.504   1.117   9.266  0.00  0.00    +0.000 C 
ATOM     33  C   UNL     1       3.777   1.313  10.598  0.00  0.00    +0.000 C 
ATOM     34  C   UNL     1       3.782   2.797  10.968  0.00  0.00    +0.000 C 
ATOM     35  C   UNL     1       3.070   3.598   9.876  0.00  0.00    +0.005 C 
ENDBRANCH  29  30
ENDBRANCH  27  29
ENDBRANCH  24  25
ENDBRANCH   8  24
TORSDOF 7
