REMARK  Name = ZINC00977287
REMARK  4 active torsions:
REMARK  status: ('A' for Active; 'I' for Inactive)
REMARK    1  A    between atoms: C_1  and  C_2
REMARK    2  A    between atoms: C_3  and  C_14
REMARK    3  A    between atoms: N_10  and  C_11
REMARK    4  A    between atoms: C_11  and  C_12
REMARK                            x       y       z     vdW  Elec       q    Type
REMARK                         _______ _______ _______ _____ _____    ______ ____
ROOT
ATOM      1  C   UNL     1      -5.787   3.483   2.734  0.00  0.00    +0.030 C 
ATOM      2  C   UNL     1      -6.919   3.066   3.366  0.00  0.00    +0.081 A 
ATOM      3  C   UNL     1      -8.026   3.828   3.825  0.00  0.00    +0.272 A 
ATOM      4  O   UNL     1      -8.048   5.036   3.673  0.00  0.00    -0.266 OA
ATOM      5  N   UNL     1      -9.048   3.201   4.424  0.00  0.00    -0.253 N 
ATOM      6  C   UNL     1     -10.281   3.562   4.997  0.00  0.00    +0.077 A 
ATOM      7  C   UNL     1     -10.925   4.778   5.151  0.00  0.00    +0.028 A 
ATOM      8  C   UNL     1     -12.159   4.825   5.770  0.00  0.00    +0.002 A 
ATOM      9  C   UNL     1     -12.754   3.662   6.236  0.00  0.00    +0.002 A 
ATOM     10  C   UNL     1     -12.125   2.446   6.089  0.00  0.00    +0.030 A 
ATOM     11  C   UNL     1     -10.876   2.384   5.465  0.00  0.00    +0.091 A 
ATOM     12  N   UNL     1     -10.026   1.364   5.179  0.00  0.00    -0.221 NA
ATOM     13  C   UNL     1      -8.972   1.835   4.579  0.00  0.00    +0.182 A 
ATOM     14  S   UNL     1      -7.405   1.415   3.846  0.00  0.00    -0.046 S 
ENDROOT
BRANCH   1  17
ATOM     15  C   UNL     1      -4.481   3.233  -0.080  0.00  0.00    +0.064 C 
ATOM     16  C   UNL     1      -4.174   2.381   1.125  0.00  0.00    +0.024 A 
ATOM     17  C   UNL     1      -4.762   2.511   2.352  0.00  0.00    +0.004 A 
ATOM     18  C   UNL     1      -4.159   1.478   3.216  0.00  0.00    +0.007 A 
ATOM     19  C   UNL     1      -4.335   1.107   4.546  0.00  0.00    +0.010 A 
ATOM     20  C   UNL     1      -3.606   0.059   5.064  0.00  0.00    +0.001 A 
ATOM     21  C   UNL     1      -2.692  -0.618   4.270  0.00  0.00    +0.002 A 
ATOM     22  C   UNL     1      -2.505  -0.259   2.954  0.00  0.00    +0.026 A 
ATOM     23  C   UNL     1      -3.237   0.792   2.409  0.00  0.00    +0.050 A 
ATOM     24  N   UNL     1      -3.270   1.369   1.157  0.00  0.00    -0.340 N 
BRANCH  24  25
ATOM     25  C   UNL     1      -2.451   0.944   0.019  0.00  0.00    +0.149 C 
BRANCH  25  26
ATOM     26  C   UNL     1      -1.156   1.715   0.017  0.00  0.00    -0.013 C 
ATOM     27  C   UNL     1      -0.013   1.076   0.008  0.00  0.00    +0.005 C 
ENDBRANCH  25  26
ENDBRANCH  24  25
ENDBRANCH   1  17
TORSDOF 3
