REMARK  Name = ZINC01670457
REMARK  10 active torsions:
REMARK  status: ('A' for Active; 'I' for Inactive)
REMARK    1  A    between atoms: C_1  and  C_2
REMARK    2  A    between atoms: C_2  and  C_3
REMARK    3  A    between atoms: C_3  and  C_4
REMARK    4  A    between atoms: C_9  and  N_10
REMARK    5  A    between atoms: C_11  and  C_13
REMARK    6  A    between atoms: C_15  and  C_20
REMARK    7  A    between atoms: C_17  and  C_18
REMARK    8  A    between atoms: C_17  and  C_19
REMARK    9  A    between atoms: C_21  and  C_22
REMARK   10  A    between atoms: C_21  and  C_23
REMARK                            x       y       z     vdW  Elec       q    Type
REMARK                         _______ _______ _______ _____ _____    ______ ____
ROOT
ATOM      1  N   UNL     1      -1.472   2.862   1.194  0.00  0.00    -0.285 N 
ATOM      2  C   UNL     1      -0.352   2.111   1.181  0.00  0.00    +0.221 C 
ATOM      3  O   UNL     1       0.315   2.001   2.188  0.00  0.00    -0.275 OA
ATOM      4  H   UNL     1      -2.039   2.899   0.408  0.00  0.00    +0.155 HD
ENDROOT
BRANCH   1  10
ATOM      5  C   UNL     1      -2.441   4.822   2.219  0.00  0.00    -0.022 A 
ATOM      6  C   UNL     1      -2.780   5.542   3.350  0.00  0.00    +0.055 A 
ATOM      7  C   UNL     1      -2.495   5.034   4.607  0.00  0.00    +0.167 A 
ATOM      8  C   UNL     1      -1.867   3.797   4.732  0.00  0.00    +0.168 A 
ATOM      9  C   UNL     1      -1.533   3.075   3.599  0.00  0.00    +0.073 A 
ATOM     10  C   UNL     1      -1.814   3.590   2.341  0.00  0.00    +0.040 A 
ATOM     11  O   UNL     1      -1.699   3.525   6.060  0.00  0.00    -0.453 OA
ATOM     12  C   UNL     1      -1.860   4.787   6.734  0.00  0.00    +0.466 C 
ATOM     13  O   UNL     1      -2.721   5.537   5.857  0.00  0.00    -0.453 OA
BRANCH   5  14
ATOM     14  C   UNL     1      -2.752   5.377   0.853  0.00  0.00    +0.037 C 
BRANCH  14  16
ATOM     15  C   UNL     1      -4.405   5.377  -1.020  0.00  0.00    +0.004 C 
ATOM     16  C   UNL     1      -4.089   4.814   0.367  0.00  0.00    +0.001 C 
ENDBRANCH  14  16
ENDBRANCH   5  14
ENDBRANCH   1  10
BRANCH   2  17
ATOM     17  C   UNL     1       0.070   1.409  -0.083  0.00  0.00    +0.089 C 
ATOM     18  C   UNL     1       0.099  -0.120  -0.066  0.00  0.00    +0.030 C 
ATOM     19  C   UNL     1       1.410   0.670  -0.067  0.00  0.00    -0.016 C 
ATOM     20  C   UNL     1       2.233   0.671  -1.356  0.00  0.00    +0.012 C 
ATOM     21  C   UNL     1       2.217   0.700   1.232  0.00  0.00    +0.012 C 
BRANCH  18  22
ATOM     22  C   UNL     1      -0.297  -0.809   1.214  0.00  0.00    -0.023 C 
ATOM     23  C   UNL     1      -0.453  -2.110   1.237  0.00  0.00    -0.079 C 
ATOM     24  C   UNL     1      -0.237  -2.917  -0.018  0.00  0.00    +0.038 C 
ATOM     25  C   UNL     1      -0.849  -2.799   2.517  0.00  0.00    +0.038 C 
ENDBRANCH  18  22
ENDBRANCH   2  17
TORSDOF 5
