REMARK  Name = ZINC08791422
REMARK  6 active torsions:
REMARK  status: ('A' for Active; 'I' for Inactive)
REMARK    1  A    between atoms: C_1  and  C_2
REMARK    2  A    between atoms: C_2  and  C_3
REMARK    3  A    between atoms: C_3  and  C_4
REMARK    4  A    between atoms: C_4  and  N_5
REMARK    5  A    between atoms: C_10  and  C_27
REMARK    6  A    between atoms: C_27  and  C_28
REMARK                            x       y       z     vdW  Elec       q    Type
REMARK                         _______ _______ _______ _____ _____    ______ ____
ROOT
ATOM      1  N   UNL     1       1.743  -3.287   0.447  0.00  0.00    -0.242 N 
ATOM      2  C   UNL     1       0.597  -2.622   0.174  0.00  0.00    +0.224 C 
ATOM      3  O   UNL     1       0.090  -2.492  -0.920  0.00  0.00    -0.275 OA
ATOM      4  C   UNL     1       0.046  -2.059   1.464  0.00  0.00    +0.073 C 
ATOM      5  C   UNL     1       0.148  -0.520   1.435  0.00  0.00    -0.053 C 
ATOM      6  C   UNL     1       1.707  -1.202   3.037  0.00  0.00    +0.050 C 
ATOM      7  C   UNL     1       1.077  -2.508   2.538  0.00  0.00    +0.088 C 
ATOM      8  C   UNL     1       2.095  -3.289   1.738  0.00  0.00    +0.225 C 
ATOM      9  O   UNL     1       3.077  -3.833   2.195  0.00  0.00    -0.275 OA
ATOM     10  C   UNL     1       1.082  -0.745   4.324  0.00  0.00    -0.026 A 
ATOM     11  C   UNL     1      -0.203  -0.413   4.689  0.00  0.00    +0.024 A 
ATOM     12  C   UNL     1      -0.475  -0.018   5.987  0.00  0.00    +0.041 A 
ATOM     13  C   UNL     1       0.548   0.042   6.917  0.00  0.00    +0.022 A 
ATOM     14  C   UNL     1       1.837  -0.290   6.556  0.00  0.00    +0.025 A 
ATOM     15  C   UNL     1       2.119  -0.689   5.251  0.00  0.00    +0.036 A 
ATOM     16  N   UNL     1       3.323  -1.069   4.653  0.00  0.00    -0.286 N 
ATOM     17  C   UNL     1       3.167  -1.383   3.352  0.00  0.00    +0.211 C 
ATOM     18  O   UNL     1       4.034  -1.743   2.585  0.00  0.00    -0.277 OA
ATOM     19 CL   UNL     1      -2.095   0.402   6.448  0.00  0.00    -0.084 Cl
ATOM     20  H   UNL     1       4.173  -1.102   5.120  0.00  0.00    +0.155 HD
ATOM     21  N   UNL     1       1.484  -0.243   1.969  0.00  0.00    +0.394 N 
ATOM     22  H   UNL     1       1.528   0.714   2.337  0.00  0.00    -0.083 HD
ATOM     23  H   UNL     1       2.191  -0.360   1.234  0.00  0.00    -0.083 HD
ENDROOT
BRANCH   1  24
ATOM     24  C   UNL     1       2.531  -3.956  -0.590  0.00  0.00    +0.116 C 
BRANCH  24  25
ATOM     25  C   UNL     1       2.048  -5.399  -0.747  0.00  0.00    +0.019 C 
BRANCH  25  27
ATOM     26  C   UNL     1       2.389  -7.542  -1.987  0.00  0.00    +0.004 C 
ATOM     27  C   UNL     1       2.872  -6.098  -1.830  0.00  0.00    -0.002 C 
ENDBRANCH  25  27
ENDBRANCH  24  25
ENDBRANCH   1  24
BRANCH   5  28
ATOM     28  C   UNL     1       0.002  -0.004   0.002  0.00  0.00    +0.022 C 
BRANCH  28  29
ATOM     29  C   UNL     1      -0.018   1.503   0.010  0.00  0.00    -0.024 A 
ATOM     30  C   UNL     1      -1.108   2.287   0.019  0.00  0.00    +0.087 A 
ATOM     31  N   UNL     1      -0.736   3.603   0.029  0.00  0.00    -0.360 N 
ATOM     32  H   UNL     1      -1.348   4.355   0.038  0.00  0.00    +0.165 HD
ATOM     33  C   UNL     1       0.637   3.701   0.016  0.00  0.00    +0.047 A 
ATOM     34  C   UNL     1       1.147   2.390   0.004  0.00  0.00    +0.003 A 
ATOM     35  C   UNL     1       2.527   2.179  -0.011  0.00  0.00    +0.010 A 
ATOM     36  C   UNL     1       3.377   3.250  -0.013  0.00  0.00    +0.001 A 
ATOM     37  C   UNL     1       2.879   4.545  -0.001  0.00  0.00    +0.002 A 
ATOM     38  C   UNL     1       1.521   4.776   0.013  0.00  0.00    +0.026 A 
ENDBRANCH  28  29
ENDBRANCH   5  28
TORSDOF 5
