REMARK  Name = ZINC60031972
REMARK  8 active torsions:
REMARK  status: ('A' for Active; 'I' for Inactive)
REMARK    1  A    between atoms: C_1  and  C_2
REMARK    2  A    between atoms: C_4  and  C_15
REMARK    3  A    between atoms: C_5  and  C_14
REMARK    4  A    between atoms: N_6  and  C_7
REMARK    5  A    between atoms: N_17  and  C_18
REMARK    6  A    between atoms: C_19  and  C_31
REMARK    7  A    between atoms: N_20  and  C_30
REMARK    8  A    between atoms: N_21  and  C_24
REMARK                            x       y       z     vdW  Elec       q    Type
REMARK                         _______ _______ _______ _____ _____    ______ ____
ROOT
ATOM      1  C   UNL     1      -0.343  -3.503  -1.431  0.00  0.00    +0.250 C 
ATOM      2  O   UNL     1      -0.525  -4.620  -0.983  0.00  0.00    -0.270 OA
ATOM      3  N   UNL     1      -0.072  -3.339  -2.741  0.00  0.00    -0.276 N 
ATOM      4  H   UNL     1       0.001  -2.446  -3.112  0.00  0.00    +0.155 HD
ENDROOT
BRANCH   3   5
ATOM      5  C   UNL     1       0.106  -4.464  -3.570  0.00  0.00    +0.121 A 
ATOM      6  C   UNL     1      -0.601  -4.760  -4.683  0.00  0.00    +0.059 A 
ATOM      7  N   UNL     1      -0.125  -5.934  -5.205  0.00  0.00    -0.282 N 
ATOM      8  N   UNL     1       0.919  -6.403  -4.400  0.00  0.00    -0.216 N 
ATOM      9  C   UNL     1       1.096  -5.527  -3.390  0.00  0.00    +0.293 A 
ATOM     10  O   UNL     1       1.921  -5.606  -2.497  0.00  0.00    -0.264 OA
ATOM     11  C   UNL     1      -0.629  -6.593  -6.412  0.00  0.00    +0.171 C 
ATOM     12  C   UNL     1      -1.726  -3.936  -5.255  0.00  0.00    +0.067 C 
BRANCH   8  13
ATOM     13  C   UNL     1       1.655  -7.574  -4.610  0.00  0.00    +0.067 A 
ATOM     14  C   UNL     1       1.839  -8.476  -3.570  0.00  0.00    +0.028 A 
ATOM     15  C   UNL     1       2.566  -9.631  -3.780  0.00  0.00    +0.002 A 
ATOM     16  C   UNL     1       3.110  -9.890  -5.025  0.00  0.00    +0.000 A 
ATOM     17  C   UNL     1       2.929  -8.994  -6.062  0.00  0.00    +0.002 A 
ATOM     18  C   UNL     1       2.199  -7.840  -5.860  0.00  0.00    +0.028 A 
ENDBRANCH   8  13
ENDBRANCH   3   5
BRANCH   1  22
ATOM     19  C   UNL     1      -0.282   1.294   0.306  0.00  0.00    +0.064 C 
ATOM     20  C   UNL     1      -0.388  -0.205   0.205  0.00  0.00    +0.022 A 
ATOM     21  C   UNL     1      -0.228  -0.927  -0.918  0.00  0.00    +0.036 A 
ATOM     22  C   UNL     1      -0.419  -2.332  -0.542  0.00  0.00    +0.058 A 
ATOM     23  C   UNL     1      -0.683  -2.335   0.800  0.00  0.00    +0.033 A 
ATOM     24  N   UNL     1      -0.657  -1.055   1.242  0.00  0.00    -0.317 N 
ATOM     25  C   UNL     1      -0.951  -3.554   1.644  0.00  0.00    +0.064 C 
BRANCH  24  26
ATOM     26  C   UNL     1      -0.877  -0.658   2.568  0.00  0.00    +0.048 A 
ATOM     27  C   UNL     1       0.018  -1.031   3.563  0.00  0.00    +0.026 A 
ATOM     28  C   UNL     1      -0.200  -0.639   4.869  0.00  0.00    +0.003 A 
ATOM     29  C   UNL     1      -1.309   0.124   5.187  0.00  0.00    +0.020 A 
ATOM     30  C   UNL     1      -2.202   0.497   4.199  0.00  0.00    +0.043 A 
ATOM     31  C   UNL     1      -1.986   0.112   2.889  0.00  0.00    +0.046 A 
ATOM     32 CL   UNL     1      -3.593   1.455   4.603  0.00  0.00    -0.083 Cl
ENDBRANCH  24  26
ENDBRANCH   1  22
TORSDOF 4
