REMARK  Name = ZINC03273502
REMARK  6 active torsions:
REMARK  status: ('A' for Active; 'I' for Inactive)
REMARK    1  A    between atoms: C_4  and  N_8
REMARK    2  A    between atoms: C_9  and  C_11
REMARK    3  A    between atoms: C_11  and  S_12
REMARK    4  A    between atoms: S_12  and  C_13
REMARK    5  A    between atoms: C_16  and  C_19
REMARK    6  A    between atoms: N_17  and  N_18
REMARK                            x       y       z     vdW  Elec       q    Type
REMARK                         _______ _______ _______ _____ _____    ______ ____
ROOT
ATOM      1  C   UNL     1       0.156  -2.961  -2.948  0.00  0.00    +0.209 A 
ATOM      2  N   UNL     1       0.866  -2.407  -1.990  0.00  0.00    -0.121 NA
ATOM      3  N   UNL     1       1.163  -1.197  -2.305  0.00  0.00    -0.127 NA
ATOM      4  C   UNL     1       0.654  -0.901  -3.478  0.00  0.00    +0.182 A 
ATOM      5  N   UNL     1      -0.004  -2.022  -3.927  0.00  0.00    -0.224 N 
ENDROOT
BRANCH   4   6
ATOM      6  C   UNL     1       0.770   0.392  -4.185  0.00  0.00    +0.021 A 
ATOM      7  C   UNL     1       0.469   0.476  -5.545  0.00  0.00    +0.013 A 
ATOM      8  C   UNL     1       0.574   1.686  -6.199  0.00  0.00    +0.021 A 
ATOM      9  C   UNL     1       0.989   2.814  -5.511  0.00  0.00    +0.041 A 
ATOM     10  C   UNL     1       1.295   2.736  -4.162  0.00  0.00    +0.021 A 
ATOM     11  C   UNL     1       1.188   1.532  -3.497  0.00  0.00    +0.013 A 
ATOM     12 CL   UNL     1       1.126   4.332  -6.341  0.00  0.00    -0.084 Cl
ENDBRANCH   4   6
BRANCH   5  13
ATOM     13  N   UNL     1      -0.676  -2.168  -5.107  0.00  0.00    -0.295 N 
ATOM     14  H   UNL     1      -0.062  -2.504  -5.834  0.00  0.00    +0.163 HD
ATOM     15  H   UNL     1      -1.473  -2.776  -4.997  0.00  0.00    +0.163 HD
ENDBRANCH   5  13
BRANCH   1  16
ATOM     16  S   UNL     1      -0.472  -4.607  -2.965  0.00  0.00    -0.075 S 
BRANCH  16  17
ATOM     17  C   UNL     1       0.144  -5.195  -1.367  0.00  0.00    +0.173 C 
BRANCH  17  19
ATOM     18  N   UNL     1       0.062  -7.274  -0.030  0.00  0.00    -0.282 N 
ATOM     19  C   UNL     1      -0.285  -6.624  -1.159  0.00  0.00    +0.228 C 
ATOM     20  O   UNL     1      -0.942  -7.190  -2.007  0.00  0.00    -0.275 OA
ATOM     21  H   UNL     1       0.647  -6.847   0.615  0.00  0.00    +0.155 HD
BRANCH  18  25
ATOM     22  C   UNL     1      -1.382 -11.118   0.691  0.00  0.00    +0.003 A 
ATOM     23  C   UNL     1      -0.178 -10.945   0.033  0.00  0.00    +0.022 A 
ATOM     24  C   UNL     1       0.304  -9.672  -0.208  0.00  0.00    +0.064 A 
ATOM     25  C   UNL     1      -0.423  -8.565   0.212  0.00  0.00    +0.070 A 
ATOM     26  C   UNL     1      -1.630  -8.742   0.877  0.00  0.00    +0.064 A 
ATOM     27  C   UNL     1      -2.108 -10.018   1.110  0.00  0.00    +0.022 A 
ATOM     28 CL   UNL     1      -2.540  -7.363   1.409  0.00  0.00    -0.082 Cl
ATOM     29 CL   UNL     1       1.816  -9.457  -1.033  0.00  0.00    -0.082 Cl
ENDBRANCH  18  25
ENDBRANCH  17  19
ENDBRANCH  16  17
ENDBRANCH   1  16
TORSDOF 6
