REMARK  Name = ZINC53824060
REMARK  9 active torsions:
REMARK  status: ('A' for Active; 'I' for Inactive)
REMARK    1  A    between atoms: C_1  and  C_2
REMARK    2  A    between atoms: C_2  and  C_4
REMARK    3  A    between atoms: C_2  and  S_12
REMARK    4  A    between atoms: C_6  and  C_9
REMARK    5  A    between atoms: S_12  and  C_13
REMARK    6  A    between atoms: C_16  and  C_21
REMARK    7  A    between atoms: N_17  and  C_18
REMARK    8  A    between atoms: C_18  and  C_19
REMARK    9  A    between atoms: C_21  and  C_22
REMARK                            x       y       z     vdW  Elec       q    Type
REMARK                         _______ _______ _______ _____ _____    ______ ____
ROOT
ATOM      1  C   UNL     1      -2.335  -0.110   1.573  0.00  0.00    +0.193 A 
ATOM      2  N   UNL     1      -1.692   0.581   2.486  0.00  0.00    -0.122 NA
ATOM      3  N   UNL     1      -2.458   0.785   3.498  0.00  0.00    -0.133 NA
ATOM      4  C   UNL     1      -3.625   0.243   3.293  0.00  0.00    +0.139 A 
ATOM      5  N   UNL     1      -3.590  -0.342   2.057  0.00  0.00    -0.302 N 
ENDROOT
BRANCH   1   6
ATOM      6  S   UNL     1      -1.700  -0.632   0.015  0.00  0.00    -0.073 S 
BRANCH   6   8
ATOM      7  C   UNL     1      -0.019   1.526   0.010  0.00  0.00    +0.029 C 
ATOM      8  C   UNL     1       0.002  -0.004   0.002  0.00  0.00    +0.140 C 
BRANCH   8   9
ATOM      9  C   UNL     1       0.707  -0.490  -1.238  0.00  0.00    +0.241 A 
ATOM     10  N   UNL     1       1.911  -0.991  -1.286  0.00  0.00    -0.195 NA
ATOM     11  C   UNL     1       2.222  -1.318  -2.545  0.00  0.00    +0.175 A 
ATOM     12  N   UNL     1       1.214  -1.028  -3.318  0.00  0.00    -0.061 NA
ATOM     13  O   UNL     1       0.204  -0.487  -2.479  0.00  0.00    -0.337 OA
BRANCH  11  14
ATOM     14  C   UNL     1       3.526  -1.924  -2.996  0.00  0.00    +0.060 C 
ATOM     15  C   UNL     1       3.767  -2.040  -4.503  0.00  0.00    +0.012 C 
ATOM     16  C   UNL     1       3.471  -3.293  -3.677  0.00  0.00    +0.012 C 
ENDBRANCH  11  14
ENDBRANCH   8   9
ENDBRANCH   6   8
ENDBRANCH   1   6
BRANCH   5  17
ATOM     17  C   UNL     1      -4.674  -1.070   1.392  0.00  0.00    +0.152 C 
BRANCH  17  18
ATOM     18  C   UNL     1      -4.595  -2.530   1.755  0.00  0.00    -0.013 C 
ATOM     19  C   UNL     1      -5.634  -3.133   2.276  0.00  0.00    +0.005 C 
ENDBRANCH  17  18
ENDBRANCH   5  17
BRANCH   4  20
ATOM     20  C   UNL     1      -4.797   0.261   4.240  0.00  0.00    +0.111 C 
BRANCH  20  21
ATOM     21  C   UNL     1      -5.647   1.475   3.964  0.00  0.00    -0.040 A 
ATOM     22  C   UNL     1      -5.387   2.664   4.620  0.00  0.00    +0.004 A 
ATOM     23  C   UNL     1      -6.166   3.778   4.366  0.00  0.00    +0.000 A 
ATOM     24  C   UNL     1      -7.204   3.702   3.457  0.00  0.00    +0.000 A 
ATOM     25  C   UNL     1      -7.463   2.514   2.800  0.00  0.00    +0.000 A 
ATOM     26  C   UNL     1      -6.681   1.401   3.050  0.00  0.00    +0.004 A 
ENDBRANCH  20  21
ENDBRANCH   4  20
TORSDOF 8
