REMARK  Name = ZINC13500836
REMARK  14 active torsions:
REMARK  status: ('A' for Active; 'I' for Inactive)
REMARK    1  A    between atoms: C_1  and  C_2
REMARK    2  A    between atoms: C_2  and  C_3
REMARK    3  A    between atoms: C_3  and  C_4
REMARK    4  A    between atoms: C_4  and  C_6
REMARK    5  A    between atoms: C_4  and  N_17
REMARK    6  A    between atoms: N_10  and  C_11
REMARK    7  A    between atoms: C_11  and  C_12
REMARK    8  A    between atoms: N_17  and  C_18
REMARK    9  A    between atoms: N_17  and  C_26
REMARK   10  A    between atoms: C_18  and  C_19
REMARK   11  A    between atoms: C_26  and  C_27
REMARK   12  A    between atoms: C_31  and  O_39
REMARK   13  A    between atoms: O_39  and  C_40
REMARK   14  A    between atoms: C_40  and  C_41
REMARK                            x       y       z     vdW  Elec       q    Type
REMARK                         _______ _______ _______ _____ _____    ______ ____
ROOT
ATOM      1  N   UNL     1      -0.706  -2.671   1.200  0.00  0.00    -0.284 NA
ENDROOT
BRANCH   1   2
ATOM      2  C   UNL     1      -1.731  -2.359   0.195  0.00  0.00    +0.127 C 
BRANCH   2   3
ATOM      3  C   UNL     1      -1.420  -3.092  -1.085  0.00  0.00    +0.169 A 
ATOM      4  N   UNL     1      -1.309  -4.389  -1.236  0.00  0.00    -0.112 NA
ATOM      5  N   UNL     1      -1.038  -4.623  -2.474  0.00  0.00    -0.023 NA
ATOM      6  N   UNL     1      -0.973  -3.509  -3.116  0.00  0.00    -0.043 NA
ATOM      7  N   UNL     1      -1.208  -2.542  -2.295  0.00  0.00    -0.220 N 
BRANCH   7   8
ATOM      8  C   UNL     1      -1.236  -1.113  -2.618  0.00  0.00    +0.221 C 
BRANCH   8   9
ATOM      9  C   UNL     1       0.173  -0.583  -2.675  0.00  0.00    +0.126 A 
ATOM     10  C   UNL     1       0.918  -0.444  -3.786  0.00  0.00    +0.046 A 
ATOM     11  C   UNL     1       2.165   0.084  -3.381  0.00  0.00    +0.041 A 
ATOM     12  C   UNL     1       2.108   0.236  -2.045  0.00  0.00    +0.195 A 
ATOM     13  O   UNL     1       0.897  -0.164  -1.624  0.00  0.00    -0.466 OA
ENDBRANCH   8   9
ENDBRANCH   7   8
ENDBRANCH   2   3
BRANCH   2  14
ATOM     14  C   UNL     1      -3.102  -2.796   0.713  0.00  0.00    +0.026 C 
BRANCH  14  16
ATOM     15  C   UNL     1      -4.892  -2.316   2.388  0.00  0.00    +0.004 C 
ATOM     16  C   UNL     1      -3.471  -1.966   1.944  0.00  0.00    -0.001 C 
ENDBRANCH  14  16
ENDBRANCH   2  14
ENDBRANCH   1   2
BRANCH   1  17
ATOM     17  C   UNL     1      -0.398  -4.108   1.209  0.00  0.00    +0.120 C 
BRANCH  17  18
ATOM     18  C   UNL     1       0.312  -4.461   2.490  0.00  0.00    -0.033 A 
ATOM     19  C   UNL     1       1.694  -4.457   2.538  0.00  0.00    +0.008 A 
ATOM     20  C   UNL     1       2.346  -4.781   3.712  0.00  0.00    +0.038 A 
ATOM     21  C   UNL     1       1.616  -5.109   4.841  0.00  0.00    +0.123 A 
ATOM     22  C   UNL     1       0.232  -5.113   4.793  0.00  0.00    +0.038 A 
ATOM     23  C   UNL     1      -0.418  -4.784   3.618  0.00  0.00    +0.008 A 
ATOM     24  F   UNL     1       2.252  -5.426   5.990  0.00  0.00    -0.205 F 
ENDBRANCH  17  18
ENDBRANCH   1  17
BRANCH   1  25
ATOM     25  C   UNL     1       0.508  -1.874   0.979  0.00  0.00    +0.126 C 
BRANCH  25  26
ATOM     26  C   UNL     1       0.388  -0.562   1.710  0.00  0.00    +0.031 A 
ATOM     27  C   UNL     1       0.927  -0.427   2.947  0.00  0.00    +0.020 A 
ATOM     28  C   UNL     1       0.793   0.860   3.632  0.00  0.00    +0.002 A 
ATOM     29  C   UNL     1       1.329   1.058   4.909  0.00  0.00    +0.055 A 
ATOM     30  C   UNL     1       1.185   2.284   5.526  0.00  0.00    +0.121 A 
ATOM     31  C   UNL     1       0.511   3.320   4.883  0.00  0.00    +0.047 A 
ATOM     32  C   UNL     1      -0.021   3.137   3.626  0.00  0.00    +0.030 A 
ATOM     33  C   UNL     1       0.113   1.909   2.986  0.00  0.00    +0.049 A 
ATOM     34  N   UNL     1      -0.413   1.707   1.726  0.00  0.00    -0.322 N 
ATOM     35  H   UNL     1      -0.881   2.430   1.282  0.00  0.00    +0.169 HD
ATOM     36  C   UNL     1      -0.280   0.523   1.103  0.00  0.00    +0.254 A 
ATOM     37  O   UNL     1      -0.752   0.381  -0.011  0.00  0.00    -0.268 OA
BRANCH  30  38
ATOM     38  O   UNL     1       1.703   2.482   6.767  0.00  0.00    -0.492 OA
BRANCH  38  39
ATOM     39  C   UNL     1       1.519   3.774   7.349  0.00  0.00    +0.225 C 
ATOM     40  C   UNL     1       2.165   3.806   8.735  0.00  0.00    +0.048 C 
ENDBRANCH  38  39
ENDBRANCH  30  38
ENDBRANCH  25  26
ENDBRANCH   1  25
TORSDOF 12
