REMARK  Name = ZINC06099455
REMARK  9 active torsions:
REMARK  status: ('A' for Active; 'I' for Inactive)
REMARK    1  A    between atoms: C_1  and  C_2
REMARK    2  A    between atoms: C_2  and  C_3
REMARK    3  A    between atoms: C_3  and  N_4
REMARK    4  A    between atoms: C_5  and  C_25
REMARK    5  A    between atoms: C_7  and  C_10
REMARK    6  A    between atoms: C_8  and  C_9
REMARK    7  A    between atoms: C_10  and  C_12
REMARK    8  A    between atoms: C_12  and  S_13
REMARK    9  A    between atoms: S_13  and  C_14
REMARK                            x       y       z     vdW  Elec       q    Type
REMARK                         _______ _______ _______ _____ _____    ______ ____
ROOT
ATOM      1  C   UNL     1       4.160  -1.270  -0.044  0.00  0.00    +0.157 C 
ENDROOT
BRANCH   1   2
ATOM      2  C   UNL     1       5.651  -1.488  -0.059  0.00  0.00    +0.175 C 
ATOM      3  O   UNL     1       6.404  -0.536  -0.062  0.00  0.00    -0.291 OA
BRANCH   2   7
ATOM      4  N   UNL     1       7.590  -4.558  -0.093  0.00  0.00    -0.348 N 
ATOM      5  C   UNL     1       6.335  -5.097  -0.084  0.00  0.00    +0.017 A 
ATOM      6  C   UNL     1       5.430  -4.104  -0.064  0.00  0.00    +0.034 A 
ATOM      7  C   UNL     1       6.192  -2.849  -0.071  0.00  0.00    +0.039 A 
ATOM      8  C   UNL     1       7.525  -3.215  -0.086  0.00  0.00    +0.026 A 
ATOM      9  C   UNL     1       8.701  -2.273  -0.093  0.00  0.00    +0.064 C 
ATOM     10  C   UNL     1       6.017  -6.570  -0.087  0.00  0.00    +0.063 C 
BRANCH   4  11
ATOM     11  C   UNL     1       8.832  -5.335  -0.109  0.00  0.00    +0.121 C 
BRANCH  11  13
ATOM     12  C   UNL     1      10.576  -6.423   1.311  0.00  0.00    +0.005 C 
ATOM     13  C   UNL     1       9.279  -5.612   1.328  0.00  0.00    +0.018 C 
ENDBRANCH  11  13
ENDBRANCH   4  11
ENDBRANCH   2   7
ENDBRANCH   1   2
BRANCH   1  14
ATOM     14  S   UNL     1       3.809   0.510  -0.032  0.00  0.00    -0.078 S 
BRANCH  14  15
ATOM     15  C   UNL     1       2.050   0.598  -0.014  0.00  0.00    +0.196 A 
ATOM     16  N   UNL     1       1.219  -0.421  -0.012  0.00  0.00    -0.122 NA
ATOM     17  N   UNL     1       0.002  -0.004   0.002  0.00  0.00    -0.127 NA
ATOM     18  C   UNL     1      -0.016   1.316   0.009  0.00  0.00    +0.180 A 
ATOM     19  N   UNL     1       1.298   1.735  -0.001  0.00  0.00    -0.275 N 
ATOM     20  C   UNL     1       1.599   3.069   0.004  0.00  0.00    +0.115 A 
ATOM     21  C   UNL     1       0.616   3.993   0.019  0.00  0.00    +0.059 A 
ATOM     22  C   UNL     1      -0.735   3.595   0.030  0.00  0.00    +0.045 A 
ATOM     23  C   UNL     1      -1.052   2.273   0.029  0.00  0.00    +0.087 A 
ATOM     24 CL   UNL     1      -2.713   1.768   0.051  0.00  0.00    -0.080 Cl
ATOM     25 CL   UNL     1       1.018   5.681   0.026  0.00  0.00    -0.082 Cl
ENDBRANCH  14  15
ENDBRANCH   1  14
TORSDOF 6
