REMARK  Name = ZINC06244710
REMARK  9 active torsions:
REMARK  status: ('A' for Active; 'I' for Inactive)
REMARK    1  A    between atoms: C_1  and  C_2
REMARK    2  A    between atoms: C_5  and  C_36
REMARK    3  A    between atoms: C_6  and  N_8
REMARK    4  A    between atoms: N_21  and  N_22
REMARK    5  A    between atoms: C_23  and  C_24
REMARK    6  A    between atoms: C_27  and  N_33
REMARK    7  A    between atoms: C_28  and  N_30
REMARK    8  A    between atoms: N_33  and  C_34
REMARK    9  A    between atoms: N_33  and  C_35
REMARK                            x       y       z     vdW  Elec       q    Type
REMARK                         _______ _______ _______ _____ _____    ______ ____
ROOT
ATOM      1  N   UNL     1      -2.397   6.724  -3.676  0.00  0.00    -0.283 N 
ATOM      2  C   UNL     1      -2.938   5.484  -3.395  0.00  0.00    +0.225 A 
ATOM      3  N   UNL     1      -3.356   4.702  -4.385  0.00  0.00    -0.179 NA
ATOM      4  C   UNL     1      -3.877   3.509  -4.114  0.00  0.00    +0.241 A 
ATOM      5  N   UNL     1      -3.975   3.096  -2.853  0.00  0.00    -0.180 NA
ATOM      6  C   UNL     1      -3.562   3.881  -1.864  0.00  0.00    +0.224 A 
ATOM      7  N   UNL     1      -3.040   5.074  -2.134  0.00  0.00    -0.181 NA
ATOM      8  N   UNL     1      -3.667   3.455  -0.555  0.00  0.00    -0.295 N 
ATOM      9  C   UNL     1      -4.268   2.115  -0.484  0.00  0.00    +0.136 C 
ATOM     10  C   UNL     1      -4.312   1.658   0.976  0.00  0.00    +0.179 C 
ATOM     11  O   UNL     1      -5.036   2.618   1.750  0.00  0.00    -0.377 OA
ATOM     12  C   UNL     1      -4.479   3.934   1.704  0.00  0.00    +0.179 C 
ATOM     13  C   UNL     1      -4.437   4.414   0.251  0.00  0.00    +0.136 C 
ATOM     14  N   UNL     1      -4.312   2.696  -5.142  0.00  0.00    -0.205 N 
ATOM     15  H   UNL     1      -2.257   6.994  -4.597  0.00  0.00    +0.155 HD
ATOM     16  H   UNL     1      -4.623   1.797  -4.952  0.00  0.00    +0.177 HD
ENDROOT
BRANCH   1  22
ATOM     17  C   UNL     1      -0.417   7.408   0.772  0.00  0.00    +0.044 C 
ATOM     18  C   UNL     1      -1.089   7.947  -0.465  0.00  0.00    -0.049 A 
ATOM     19  C   UNL     1      -1.363   9.298  -0.569  0.00  0.00    +0.004 A 
ATOM     20  C   UNL     1      -1.980   9.797  -1.702  0.00  0.00    +0.005 A 
ATOM     21  C   UNL     1      -2.318   8.947  -2.736  0.00  0.00    -0.029 A 
ATOM     22  C   UNL     1      -2.050   7.588  -2.633  0.00  0.00    +0.037 A 
ATOM     23  C   UNL     1      -1.431   7.090  -1.493  0.00  0.00    +0.027 A 
ATOM     24  C   UNL     1      -2.984   9.492  -3.973  0.00  0.00    +0.045 C 
ENDBRANCH   1  22
BRANCH  14  25
ATOM     25  N   UNL     1      -4.305   3.170  -6.460  0.00  0.00    -0.188 NA
ATOM     26  C   UNL     1      -4.804   2.444  -7.414  0.00  0.00    +0.138 C 
BRANCH  26  27
ATOM     27  C   UNL     1      -4.697   2.892  -8.814  0.00  0.00    -0.003 A 
ATOM     28  C   UNL     1      -3.973   4.045  -9.128  0.00  0.00    +0.011 A 
ATOM     29  C   UNL     1      -3.872   4.458 -10.438  0.00  0.00    +0.026 A 
ATOM     30  C   UNL     1      -4.498   3.734 -11.447  0.00  0.00    +0.060 A 
ATOM     31  C   UNL     1      -5.224   2.589 -11.139  0.00  0.00    +0.148 A 
ATOM     32  C   UNL     1      -5.325   2.167  -9.831  0.00  0.00    +0.044 A 
BRANCH  31  33
ATOM     33  N   UNL     1      -5.888   1.822 -12.216  0.00  0.00    +0.058 N 
ATOM     34  O   UNL     1      -6.524   0.818 -11.947  0.00  0.00    -0.126 OA
ATOM     35  O   UNL     1      -5.799   2.194 -13.373  0.00  0.00    -0.126 OA
ENDBRANCH  31  33
BRANCH  30  36
ATOM     36  N   UNL     1      -4.398   4.158 -12.773  0.00  0.00    -0.334 N 
ATOM     37  C   UNL     1      -4.955   5.508 -12.937  0.00  0.00    +0.129 C 
ATOM     38  C   UNL     1      -3.006   4.103 -13.239  0.00  0.00    +0.129 C 
ENDBRANCH  30  36
ENDBRANCH  26  27
ENDBRANCH  14  25
TORSDOF 5
