REMARK  Name = ZINC12048896
REMARK  8 active torsions:
REMARK  status: ('A' for Active; 'I' for Inactive)
REMARK    1  A    between atoms: C_1  and  C_2
REMARK    2  A    between atoms: C_2  and  C_4
REMARK    3  A    between atoms: C_2  and  N_61
REMARK    4  A    between atoms: N_6  and  C_7
REMARK    5  A    between atoms: C_7  and  C_8
REMARK    6  A    between atoms: C_15  and  C_22
REMARK    7  A    between atoms: C_25  and  C_27
REMARK    8  A    between atoms: C_27  and  C_29
REMARK                            x       y       z     vdW  Elec       q    Type
REMARK                         _______ _______ _______ _____ _____    ______ ____
ROOT
ATOM      1  C   UNL     1       4.173   5.308   0.139  0.00  0.00    +0.195 C 
ATOM      2  C   UNL     1       2.667   5.358  -0.213  0.00  0.00    +0.085 C 
ATOM      3  C   UNL     1       2.371   3.903  -0.522  0.00  0.00    +0.006 A 
ATOM      4  C   UNL     1       1.170   3.192  -0.633  0.00  0.00    -0.011 A 
ATOM      5  C   UNL     1      -0.073   3.832  -0.468  0.00  0.00    +0.009 A 
ATOM      6  C   UNL     1      -1.223   3.120  -0.578  0.00  0.00    +0.009 A 
ATOM      7  C   UNL     1      -1.195   1.742  -0.861  0.00  0.00    -0.011 A 
ATOM      8  C   UNL     1       0.013   1.083  -1.025  0.00  0.00    +0.017 A 
ATOM      9  C   UNL     1       1.211   1.802  -0.916  0.00  0.00    -0.017 A 
ATOM     10  C   UNL     1       2.458   1.171  -1.081  0.00  0.00    +0.012 A 
ATOM     11  C   UNL     1       3.604   1.889  -0.975  0.00  0.00    +0.046 A 
ATOM     12  C   UNL     1       3.581   3.267  -0.697  0.00  0.00    +0.125 A 
ATOM     13  O   UNL     1       4.621   4.138  -0.566  0.00  0.00    -0.487 OA
ENDROOT
BRANCH   7  14
ATOM     14  C   UNL     1      -2.462   0.993  -0.980  0.00  0.00    +0.020 A 
ATOM     15  C   UNL     1      -3.764   1.456  -0.852  0.00  0.00    +0.017 A 
ATOM     16  C   UNL     1      -4.793   0.574  -1.004  0.00  0.00    +0.019 A 
ATOM     17  C   UNL     1      -4.494  -0.758  -1.282  0.00  0.00    +0.055 A 
ATOM     18  S   UNL     1      -2.709  -0.740  -1.331  0.00  0.00    -0.085 S 
BRANCH  17  19
ATOM     19  C   UNL     1      -5.375  -1.841  -1.479  0.00  0.00    +0.167 C 
ATOM     20  O   UNL     1      -6.576  -1.667  -1.413  0.00  0.00    -0.292 OA
ATOM     21  C   UNL     1      -4.828  -3.214  -1.770  0.00  0.00    +0.092 C 
ENDBRANCH  17  19
ENDBRANCH   7  14
BRANCH   1  22
ATOM     22  C   UNL     1       4.895   6.557  -0.368  0.00  0.00    +0.149 C 
BRANCH  22  25
ATOM     23  C   UNL     1       7.175   7.407  -0.498  0.00  0.00    +0.199 C 
ATOM     24  O   UNL     1       6.741   8.408  -1.026  0.00  0.00    -0.278 OA
ATOM     25  N   UNL     1       6.334   6.420  -0.130  0.00  0.00    -0.313 N 
ATOM     26  H   UNL     1       6.681   5.619   0.293  0.00  0.00    +0.149 HD
BRANCH  23  28
ATOM     27  C   UNL     1       8.949   7.475   1.234  0.00  0.00    -0.004 C 
ATOM     28  C   UNL     1       8.655   7.265  -0.253  0.00  0.00    +0.016 C 
BRANCH  28  34
ATOM     29  C   UNL     1      10.810   7.939  -1.131  0.00  0.00    -0.049 C 
ATOM     30  C   UNL     1      11.515   8.977  -2.009  0.00  0.00    +0.141 C 
ATOM     31  O   UNL     1      11.294  10.282  -1.466  0.00  0.00    -0.383 OA
ATOM     32  C   UNL     1       9.913  10.638  -1.365  0.00  0.00    +0.141 C 
ATOM     33  C   UNL     1       9.192   9.617  -0.481  0.00  0.00    -0.049 C 
ATOM     34  N   UNL     1       9.371   8.271  -1.067  0.00  0.00    +0.390 N 
ATOM     35  H   UNL     1       8.985   8.267  -2.018  0.00  0.00    -0.081 HD
ENDBRANCH  28  34
ENDBRANCH  23  28
ENDBRANCH  22  25
ENDBRANCH   1  22
TORSDOF 6
