REMARK  Name = ZINC03537774
REMARK  5 active torsions:
REMARK  status: ('A' for Active; 'I' for Inactive)
REMARK    1  A    between atoms: C_4  and  C_7
REMARK    2  A    between atoms: C_7  and  C_9
REMARK    3  A    between atoms: C_7  and  S_21
REMARK    4  A    between atoms: C_9  and  C_11
REMARK    5  A    between atoms: S_21  and  C_22
REMARK                            x       y       z     vdW  Elec       q    Type
REMARK                         _______ _______ _______ _____ _____    ______ ____
ROOT
ATOM      1  C   UNL     1      -1.002   3.806   0.028  0.00  0.00    +0.155 C 
ENDROOT
BRANCH   1   5
ATOM      2  C   UNL     1      -0.481   5.163   4.045  0.00  0.00    +0.000 A 
ATOM      3  C   UNL     1       0.504   5.397   3.103  0.00  0.00    +0.000 A 
ATOM      4  C   UNL     1       0.335   4.958   1.803  0.00  0.00    +0.005 A 
ATOM      5  C   UNL     1      -0.818   4.285   1.445  0.00  0.00    -0.027 A 
ATOM      6  C   UNL     1      -1.804   4.055   2.385  0.00  0.00    +0.005 A 
ATOM      7  C   UNL     1      -1.634   4.490   3.686  0.00  0.00    +0.000 A 
ENDBRANCH   1   5
BRANCH   1   8
ATOM      8  C   UNL     1      -1.163   2.308   0.020  0.00  0.00    +0.183 C 
ATOM      9  O   UNL     1      -2.273   1.816   0.023  0.00  0.00    -0.290 OA
BRANCH   8  10
ATOM     10  C   UNL     1      -0.018   1.472   0.010  0.00  0.00    +0.044 A 
ATOM     11  C   UNL     1       1.301   1.874  -0.000  0.00  0.00    +0.095 A 
ATOM     12  N   UNL     1       2.103   0.793  -0.014  0.00  0.00    -0.360 N 
ATOM     13  H   UNL     1       3.073   0.826  -0.023  0.00  0.00    +0.165 HD
ATOM     14  C   UNL     1       1.358  -0.369  -0.013  0.00  0.00    +0.047 A 
ATOM     15  C   UNL     1       0.002  -0.004   0.002  0.00  0.00    +0.010 A 
ATOM     16  C   UNL     1      -0.986  -0.984   0.007  0.00  0.00    +0.011 A 
ATOM     17  C   UNL     1      -0.626  -2.315  -0.004  0.00  0.00    +0.001 A 
ATOM     18  C   UNL     1       0.712  -2.678  -0.019  0.00  0.00    +0.002 A 
ATOM     19  C   UNL     1       1.700  -1.717  -0.023  0.00  0.00    +0.026 A 
ENDBRANCH   8  10
ENDBRANCH   1   8
BRANCH   1  20
ATOM     20  S   UNL     1      -2.482   4.577  -0.684  0.00  0.00    -0.070 S 
BRANCH  20  21
ATOM     21  C   UNL     1      -2.083   6.292  -0.741  0.00  0.00    +0.191 A 
ATOM     22  N   UNL     1      -2.892   7.289  -1.210  0.00  0.00    -0.305 N 
ATOM     23  H   UNL     1      -3.785   7.177  -1.570  0.00  0.00    +0.171 HD
ATOM     24  C   UNL     1      -2.220   8.472  -1.081  0.00  0.00    +0.212 A 
ATOM     25  N   UNL     1      -1.045   8.217  -0.563  0.00  0.00    -0.113 NA
ATOM     26  N   UNL     1      -0.957   6.835  -0.347  0.00  0.00    -0.121 NA
ATOM     27  N   UNL     1      -2.699   9.726  -1.442  0.00  0.00    -0.328 N 
ATOM     28  H   UNL     1      -2.144  10.511  -1.315  0.00  0.00    +0.145 HD
ATOM     29  H   UNL     1      -3.587   9.815  -1.821  0.00  0.00    +0.145 HD
ENDBRANCH  20  21
ENDBRANCH   1  20
TORSDOF 5
