REMARK  Name = ZINC09622661
REMARK  7 active torsions:
REMARK  status: ('A' for Active; 'I' for Inactive)
REMARK    1  A    between atoms: C_1  and  C_2
REMARK    2  A    between atoms: C_2  and  N_3
REMARK    3  A    between atoms: C_7  and  C_9
REMARK    4  A    between atoms: C_9  and  C_11
REMARK    5  A    between atoms: C_9  and  S_12
REMARK    6  A    between atoms: S_12  and  C_13
REMARK    7  A    between atoms: N_23  and  C_24
REMARK                            x       y       z     vdW  Elec       q    Type
REMARK                         _______ _______ _______ _____ _____    ______ ____
ROOT
ATOM      1  C   UNL     1       0.002  -0.004   0.002  0.00  0.00    +0.177 A 
ATOM      2  N   UNL     1      -0.016   1.306   0.009  0.00  0.00    -0.223 NA
ATOM      3  C   UNL     1       1.129   2.030   0.002  0.00  0.00    +0.079 A 
ATOM      4  C   UNL     1       1.110   3.427   0.009  0.00  0.00    +0.030 A 
ATOM      5  C   UNL     1       2.285   4.123   0.002  0.00  0.00    +0.022 A 
ATOM      6  C   UNL     1       3.508   3.461  -0.014  0.00  0.00    +0.042 A 
ATOM      7  C   UNL     1       3.559   2.083  -0.021  0.00  0.00    +0.035 A 
ATOM      8  C   UNL     1       2.370   1.354  -0.013  0.00  0.00    +0.067 A 
ATOM      9  C   UNL     1       2.361  -0.115  -0.021  0.00  0.00    +0.267 A 
ATOM     10  O   UNL     1       3.399  -0.752  -0.035  0.00  0.00    -0.267 OA
ATOM     11  N   UNL     1       1.158  -0.734  -0.013  0.00  0.00    -0.253 N 
ATOM     12 CL   UNL     1       4.983   4.376  -0.024  0.00  0.00    -0.084 Cl
ENDROOT
BRANCH  11  13
ATOM     13  C   UNL     1       1.097  -2.135  -0.021  0.00  0.00    +0.087 A 
ATOM     14  C   UNL     1       1.055  -2.822  -1.226  0.00  0.00    +0.032 A 
ATOM     15  C   UNL     1       0.994  -4.202  -1.232  0.00  0.00    +0.040 A 
ATOM     16  C   UNL     1       0.975  -4.901  -0.037  0.00  0.00    +0.126 A 
ATOM     17  C   UNL     1       1.017  -4.220   1.167  0.00  0.00    +0.078 A 
ATOM     18  C   UNL     1       1.083  -2.838   1.178  0.00  0.00    +0.150 A 
ATOM     19  F   UNL     1       1.130  -2.172   2.353  0.00  0.00    -0.203 F 
ATOM     20  F   UNL     1       0.916  -6.251  -0.046  0.00  0.00    -0.205 F 
ENDBRANCH  11  13
BRANCH   1  21
ATOM     21  S   UNL     1      -1.535  -0.865   0.012  0.00  0.00    -0.075 S 
BRANCH  21  22
ATOM     22  C   UNL     1      -2.680   0.536   0.030  0.00  0.00    +0.137 C 
ATOM     23  C   UNL     1      -2.544   1.324  -1.274  0.00  0.00    +0.029 C 
BRANCH  22  28
ATOM     24  N   UNL     1      -7.303   1.224   1.155  0.00  0.00    -0.299 N 
ATOM     25  C   UNL     1      -6.330   0.399   0.720  0.00  0.00    +0.306 C 
ATOM     26  O   UNL     1      -6.591  -0.753   0.437  0.00  0.00    -0.252 OA
ATOM     27  N   UNL     1      -5.067   0.853   0.600  0.00  0.00    -0.239 N 
ATOM     28  C   UNL     1      -4.093   0.029   0.165  0.00  0.00    +0.233 C 
ATOM     29  O   UNL     1      -4.354  -1.121  -0.118  0.00  0.00    -0.274 OA
ATOM     30  H   UNL     1      -7.067   2.267   1.412  0.00  0.00    +0.150 HD
ATOM     31  H   UNL     1      -4.830   1.896   0.857  0.00  0.00    +0.159 HD
BRANCH  24  33
ATOM     32  C   UNL     1      -9.577   1.858   1.795  0.00  0.00    +0.024 C 
ATOM     33  C   UNL     1      -8.677   0.730   1.286  0.00  0.00    +0.102 C 
ENDBRANCH  24  33
ENDBRANCH  22  28
ENDBRANCH  21  22
ENDBRANCH   1  21
TORSDOF 5
