REMARK  Name = ZINC43509715
REMARK  11 active torsions:
REMARK  status: ('A' for Active; 'I' for Inactive)
REMARK    1  A    between atoms: C_1  and  C_2
REMARK    2  A    between atoms: C_3  and  C_4
REMARK    3  A    between atoms: C_5  and  C_6
REMARK    4  A    between atoms: C_7  and  C_8
REMARK    5  A    between atoms: C_8  and  O_10
REMARK    6  A    between atoms: O_10  and  C_11
REMARK    7  A    between atoms: C_15  and  O_32
REMARK    8  A    between atoms: C_20  and  O_31
REMARK    9  A    between atoms: C_21  and  C_30
REMARK   10  A    between atoms: C_24  and  C_28
REMARK   11  A    between atoms: C_24  and  C_29
REMARK                            x       y       z     vdW  Elec       q    Type
REMARK                         _______ _______ _______ _____ _____    ______ ____
ROOT
ATOM      1  C   UNL     1      -4.098  -8.568   0.231  0.00  0.00    +0.204 C 
ATOM      2  C   UNL     1      -3.982  -9.067   1.648  0.00  0.00    +0.026 C 
ATOM      3  C   UNL     1      -4.801  -9.939   2.120  0.00  0.00    +0.040 C 
ATOM      4  C   UNL     1      -4.953 -10.568   3.484  0.00  0.00    +0.339 C 
ATOM      5  O   UNL     1      -6.375 -10.764   3.615  0.00  0.00    -0.429 OA
ATOM      6  C   UNL     1      -6.927 -10.977   2.403  0.00  0.00    +0.347 C 
ATOM      7  O   UNL     1      -8.035 -11.418   2.211  0.00  0.00    -0.247 OA
ATOM      8  C   UNL     1      -5.935 -10.589   1.341  0.00  0.00    +0.195 C 
ATOM      9  C   UNL     1      -6.469  -9.512   0.378  0.00  0.00    +0.018 C 
ATOM     10  C   UNL     1      -5.302  -9.104  -0.509  0.00  0.00    +0.049 C 
ATOM     11  C   UNL     1      -5.675  -8.328  -1.754  0.00  0.00    -0.028 C 
ATOM     12  C   UNL     1      -6.773  -9.071  -2.530  0.00  0.00    +0.007 C 
ATOM     13  C   UNL     1      -7.986  -9.284  -1.628  0.00  0.00    +0.001 C 
ATOM     14  C   UNL     1      -7.592 -10.153  -0.438  0.00  0.00    +0.011 C 
ATOM     15  C   UNL     1      -4.446  -8.247  -2.683  0.00  0.00    +0.011 C 
ATOM     16  C   UNL     1      -6.156  -6.904  -1.487  0.00  0.00    +0.011 C 
ATOM     17  C   UNL     1      -7.015  -8.348   1.204  0.00  0.00    +0.015 C 
ENDROOT
BRANCH   8  18
ATOM     18  O   UNL     1      -5.477 -11.735   0.623  0.00  0.00    -0.373 OA
ATOM     19  H   UNL     1      -5.095 -12.423   1.184  0.00  0.00    +0.211 HD
ENDBRANCH   8  18
BRANCH   4  20
ATOM     20  O   UNL     1      -4.267 -11.819   3.541  0.00  0.00    -0.354 OA
ATOM     21  H   UNL     1      -4.333 -12.265   4.396  0.00  0.00    +0.214 HD
ENDBRANCH   4  20
BRANCH   1  22
ATOM     22  O   UNL     1      -4.078  -7.147   0.278  0.00  0.00    -0.454 OA
BRANCH  22  23
ATOM     23  C   UNL     1      -2.867  -6.551   0.308  0.00  0.00    +0.332 C 
ATOM     24  O   UNL     1      -1.856  -7.228   0.296  0.00  0.00    -0.246 OA
BRANCH  23  26
ATOM     25  C   UNL     1      -1.554  -4.543   0.386  0.00  0.00    +0.007 C 
ATOM     26  C   UNL     1      -2.773  -5.142   0.355  0.00  0.00    +0.091 C 
BRANCH  25  28
ATOM     27  C   UNL     1      -0.243  -2.539   0.463  0.00  0.00    -0.000 C 
ATOM     28  C   UNL     1      -1.460  -3.137   0.433  0.00  0.00    +0.000 C 
BRANCH  27  31
ATOM     29  C   UNL     1       1.152   1.010   0.592  0.00  0.00    +0.035 C 
ATOM     30  C   UNL     1       1.052  -0.492   0.542  0.00  0.00    -0.030 C 
ATOM     31  C   UNL     1      -0.146  -1.081   0.512  0.00  0.00    -0.005 C 
ENDBRANCH  27  31
ENDBRANCH  25  28
ENDBRANCH  23  26
ENDBRANCH  22  23
ENDBRANCH   1  22
TORSDOF 7
