REMARK  Name = ZINC02747764
REMARK  15 active torsions:
REMARK  status: ('A' for Active; 'I' for Inactive)
REMARK    1  A    between atoms: C_1  and  C_2
REMARK    2  A    between atoms: C_2  and  C_3
REMARK    3  A    between atoms: C_10  and  N_17
REMARK    4  A    between atoms: C_11  and  C_12
REMARK    5  A    between atoms: C_12  and  O_14
REMARK    6  A    between atoms: O_14  and  C_15
REMARK    7  A    between atoms: C_15  and  C_16
REMARK    8  A    between atoms: C_18  and  C_20
REMARK    9  A    between atoms: C_20  and  S_21
REMARK   10  A    between atoms: S_21  and  C_22
REMARK   11  A    between atoms: C_25  and  C_29
REMARK   12  A    between atoms: N_26  and  C_27
REMARK   13  A    between atoms: C_27  and  C_28
REMARK   14  A    between atoms: C_31  and  C_35
REMARK   15  A    between atoms: N_32  and  C_34
REMARK                            x       y       z     vdW  Elec       q    Type
REMARK                         _______ _______ _______ _____ _____    ______ ____
ROOT
ATOM      1  N   UNL     1       1.143   1.898   0.001  0.00  0.00    -0.279 N 
ATOM      2  C   UNL     1      -0.014   1.209   0.009  0.00  0.00    +0.228 C 
ATOM      3  O   UNL     1       0.002  -0.004   0.002  0.00  0.00    -0.275 OA
ATOM      4  H   UNL     1       1.130   2.868   0.007  0.00  0.00    +0.155 HD
ENDROOT
BRANCH   1  11
ATOM      5  C   UNL     1       6.732  -1.189   0.312  0.00  0.00    -0.006 C 
ATOM      6  C   UNL     1       7.061   0.052  -0.522  0.00  0.00    +0.008 C 
ATOM      7  C   UNL     1       6.213   1.235  -0.051  0.00  0.00    +0.037 C 
ATOM      8  C   UNL     1       4.748   0.813  -0.039  0.00  0.00    -0.021 A 
ATOM      9  C   UNL     1       4.400  -0.492  -0.042  0.00  0.00    -0.004 A 
ATOM     10  S   UNL     1       2.630  -0.489  -0.018  0.00  0.00    -0.077 S 
ATOM     11  C   UNL     1       2.353   1.222  -0.014  0.00  0.00    +0.086 A 
ATOM     12  C   UNL     1       3.637   1.750  -0.023  0.00  0.00    +0.091 A 
ATOM     13  C   UNL     1       5.322  -1.672  -0.056  0.00  0.00    +0.046 C 
BRANCH   5  15
ATOM     14  C   UNL     1       7.481  -3.494   0.922  0.00  0.00    +0.004 C 
ATOM     15  C   UNL     1       7.747  -2.294   0.011  0.00  0.00    +0.000 C 
ENDBRANCH   5  15
BRANCH  12  16
ATOM     16  C   UNL     1       3.864   3.197  -0.017  0.00  0.00    +0.342 C 
ATOM     17  O   UNL     1       3.968   3.792   1.039  0.00  0.00    -0.245 OA
BRANCH  16  18
ATOM     18  O   UNL     1       3.957   3.870  -1.182  0.00  0.00    -0.461 OA
BRANCH  18  19
ATOM     19  C   UNL     1       4.182   5.302  -1.100  0.00  0.00    +0.229 C 
ATOM     20  C   UNL     1       4.259   5.888  -2.512  0.00  0.00    +0.048 C 
ENDBRANCH  18  19
ENDBRANCH  16  18
ENDBRANCH  12  16
ENDBRANCH   1  11
BRANCH   2  21
ATOM     21  C   UNL     1      -1.330   1.944   0.019  0.00  0.00    +0.173 C 
BRANCH  21  22
ATOM     22  S   UNL     1      -2.689   0.750   0.019  0.00  0.00    -0.077 S 
BRANCH  22  23
ATOM     23  C   UNL     1      -4.064   1.851   0.031  0.00  0.00    +0.192 A 
ATOM     24  N   UNL     1      -4.011   3.164   0.044  0.00  0.00    -0.122 NA
ATOM     25  N   UNL     1      -5.200   3.653   0.048  0.00  0.00    -0.127 NA
ATOM     26  C   UNL     1      -6.084   2.684   0.046  0.00  0.00    +0.185 A 
ATOM     27  N   UNL     1      -5.385   1.499   0.036  0.00  0.00    -0.301 N 
BRANCH  26  28
ATOM     28  C   UNL     1      -7.555   2.836   0.055  0.00  0.00    +0.130 A 
ATOM     29  C   UNL     1      -8.264   4.055   0.072  0.00  0.00    +0.056 A 
ATOM     30  C   UNL     1      -9.583   3.767   0.072  0.00  0.00    +0.037 A 
ATOM     31  N   UNL     1      -9.717   2.422   0.065  0.00  0.00    -0.271 N 
ATOM     32  N   UNL     1      -8.436   1.855   0.055  0.00  0.00    -0.168 NA
ATOM     33  C   UNL     1     -10.983   1.685   0.069  0.00  0.00    +0.172 C 
ATOM     34  C   UNL     1     -10.708   4.769   0.084  0.00  0.00    +0.065 C 
ENDBRANCH  26  28
BRANCH  27  35
ATOM     35  C   UNL     1      -5.939   0.143   0.030  0.00  0.00    +0.122 C 
ATOM     36  C   UNL     1      -6.126  -0.338   1.470  0.00  0.00    +0.027 C 
ENDBRANCH  27  35
ENDBRANCH  22  23
ENDBRANCH  21  22
ENDBRANCH   2  21
TORSDOF 10
