REMARK  Name = ZINC35676008
REMARK  5 active torsions:
REMARK  status: ('A' for Active; 'I' for Inactive)
REMARK    1  A    between atoms: C_1  and  C_2
REMARK    2  A    between atoms: C_5  and  S_9
REMARK    3  A    between atoms: C_6  and  C_8
REMARK    4  A    between atoms: S_9  and  C_10
REMARK    5  A    between atoms: C_13  and  N_19
REMARK                            x       y       z     vdW  Elec       q    Type
REMARK                         _______ _______ _______ _____ _____    ______ ____
ROOT
ATOM      1  C   UNL     1      -0.087  -4.952  -1.728  0.00  0.00    +0.044 A 
ATOM      2  C   UNL     1       0.968  -5.490  -2.398  0.00  0.00    +0.019 A 
ATOM      3  C   UNL     1       0.898  -5.838  -3.747  0.00  0.00    +0.026 A 
ATOM      4  C   UNL     1      -0.230  -5.665  -4.488  0.00  0.00    +0.056 A 
ATOM      5  C   UNL     1      -1.425  -5.093  -3.862  0.00  0.00    +0.156 A 
ATOM      6  C   UNL     1      -1.354  -4.729  -2.433  0.00  0.00    +0.150 A 
ATOM      7  N   UNL     1      -2.518  -4.247  -2.076  0.00  0.00    -0.048 NA
ATOM      8  O   UNL     1      -3.370  -4.279  -3.209  0.00  0.00    -0.241 OA
ATOM      9  N   UNL     1      -2.629  -4.809  -4.295  0.00  0.00    -0.047 NA
ENDROOT
BRANCH   4  10
ATOM     10  N   UNL     1      -0.247  -6.030  -5.837  0.00  0.00    -0.356 N 
ATOM     11  H   UNL     1       0.546  -6.408  -6.248  0.00  0.00    +0.142 HD
ATOM     12  H   UNL     1      -1.053  -5.905  -6.362  0.00  0.00    +0.142 HD
ENDBRANCH   4  10
BRANCH   1  13
ATOM     13  S   UNL     1       0.064  -4.533  -0.023  0.00  0.00    -0.087 S 
BRANCH  13  18
ATOM     14  C   UNL     1       0.585   1.481  -0.038  0.00  0.00    +0.044 C 
ATOM     15  C   UNL     1       0.455  -0.020  -0.034  0.00  0.00    -0.050 A 
ATOM     16  C   UNL     1       0.431  -0.714  -1.231  0.00  0.00    +0.004 A 
ATOM     17  C   UNL     1       0.312  -2.089  -1.232  0.00  0.00    +0.015 A 
ATOM     18  C   UNL     1       0.216  -2.777  -0.027  0.00  0.00    +0.016 A 
ATOM     19  C   UNL     1       0.241  -2.077   1.173  0.00  0.00    -0.036 A 
ATOM     20  C   UNL     1       0.365  -0.702   1.166  0.00  0.00    +0.007 A 
ATOM     21  C   UNL     1       0.137  -2.819   2.481  0.00  0.00    +0.045 C 
ENDBRANCH  13  18
ENDBRANCH   1  13
TORSDOF 3
