REMARK  Name = ZINC04511023
REMARK  7 active torsions:
REMARK  status: ('A' for Active; 'I' for Inactive)
REMARK    1  A    between atoms: C_1  and  O_2
REMARK    2  A    between atoms: O_2  and  C_3
REMARK    3  A    between atoms: C_3  and  C_5
REMARK    4  A    between atoms: C_10  and  C_11
REMARK    5  A    between atoms: C_14  and  C_16
REMARK    6  A    between atoms: N_17  and  N_18
REMARK    7  A    between atoms: N_21  and  C_22
REMARK                            x       y       z     vdW  Elec       q    Type
REMARK                         _______ _______ _______ _____ _____    ______ ____
ROOT
ATOM      1  C   UNL     1       1.638  -2.252   0.328  0.00  0.00    +0.137 A 
ATOM      2  C   UNL     1       0.890  -3.074   1.121  0.00  0.00    +0.050 A 
ATOM      3  C   UNL     1       1.047  -4.375   0.629  0.00  0.00    +0.051 A 
ATOM      4  C   UNL     1       1.901  -4.292  -0.450  0.00  0.00    +0.148 A 
ATOM      5  O   UNL     1       2.246  -3.000  -0.614  0.00  0.00    -0.454 OA
ENDROOT
BRANCH   1  11
ATOM      6  C   UNL     1       3.040  -0.190   0.506  0.00  0.00    +0.070 A 
ATOM      7  C   UNL     1       3.142   1.195   0.651  0.00  0.00    +0.016 A 
ATOM      8  C   UNL     1       2.002   1.962   0.768  0.00  0.00    +0.001 A 
ATOM      9  C   UNL     1       0.749   1.368   0.743  0.00  0.00    +0.001 A 
ATOM     10  C   UNL     1       0.624   0.003   0.601  0.00  0.00    +0.012 A 
ATOM     11  C   UNL     1       1.765  -0.793   0.480  0.00  0.00    +0.031 A 
BRANCH   6  12
ATOM     12  C   UNL     1       4.254  -1.014   0.381  0.00  0.00    +0.340 C 
ATOM     13  O   UNL     1       4.160  -2.219   0.255  0.00  0.00    -0.245 OA
BRANCH  12  15
ATOM     14  C   UNL     1       6.622  -1.306   0.277  0.00  0.00    +0.280 C 
ATOM     15  O   UNL     1       5.469  -0.432   0.405  0.00  0.00    -0.464 OA
ENDBRANCH  12  15
ENDBRANCH   6  12
ENDBRANCH   1  11
BRANCH   4  16
ATOM     16  C   UNL     1       2.354  -5.414  -1.275  0.00  0.00    +0.176 C 
ATOM     17  N   UNL     1       3.165  -5.204  -2.271  0.00  0.00    -0.183 NA
BRANCH  17  18
ATOM     18  N   UNL     1       3.599  -6.277  -3.059  0.00  0.00    -0.190 N 
ATOM     19  C   UNL     1       4.439  -6.059  -4.091  0.00  0.00    +0.323 C 
ATOM     20  O   UNL     1       4.816  -6.990  -4.776  0.00  0.00    -0.251 OA
ATOM     21  N   UNL     1       4.861  -4.808  -4.363  0.00  0.00    -0.268 N 
ATOM     22  H   UNL     1       3.296  -7.177  -2.863  0.00  0.00    +0.179 HD
ATOM     23  H   UNL     1       4.502  -4.056  -3.867  0.00  0.00    +0.156 HD
BRANCH  21  24
ATOM     24  C   UNL     1       5.818  -4.595  -5.362  0.00  0.00    +0.035 A 
ATOM     25  C   UNL     1       6.810  -5.540  -5.588  0.00  0.00    +0.023 A 
ATOM     26  C   UNL     1       7.750  -5.328  -6.578  0.00  0.00    +0.002 A 
ATOM     27  C   UNL     1       7.711  -4.172  -7.335  0.00  0.00    +0.000 A 
ATOM     28  C   UNL     1       6.727  -3.227  -7.108  0.00  0.00    +0.002 A 
ATOM     29  C   UNL     1       5.781  -3.434  -6.124  0.00  0.00    +0.023 A 
ENDBRANCH  21  24
ENDBRANCH  17  18
ENDBRANCH   4  16
TORSDOF 6
