REMARK  Name = ZINC38656637
REMARK  9 active torsions:
REMARK  status: ('A' for Active; 'I' for Inactive)
REMARK    1  A    between atoms: C_1  and  C_2
REMARK    2  A    between atoms: C_2  and  O_3
REMARK    3  A    between atoms: O_3  and  C_4
REMARK    4  A    between atoms: C_9  and  C_10
REMARK    5  A    between atoms: C_10  and  O_12
REMARK    6  A    between atoms: O_12  and  C_13
REMARK    7  A    between atoms: C_20  and  N_31
REMARK    8  A    between atoms: C_21  and  C_29
REMARK    9  A    between atoms: C_22  and  C_24
REMARK                            x       y       z     vdW  Elec       q    Type
REMARK                         _______ _______ _______ _____ _____    ______ ____
ROOT
ATOM      1  C   UNL     1      -6.207  -1.148   0.022  0.00  0.00    +0.135 A 
ATOM      2  C   UNL     1      -5.906   0.205  -0.050  0.00  0.00    +0.047 A 
ATOM      3  C   UNL     1      -6.924   1.138  -0.069  0.00  0.00    +0.012 A 
ATOM      4  C   UNL     1      -8.245   0.730  -0.016  0.00  0.00    +0.008 A 
ATOM      5  C   UNL     1      -8.551  -0.621   0.057  0.00  0.00    +0.138 A 
ATOM      6  C   UNL     1      -7.528  -1.560   0.070  0.00  0.00    +0.093 A 
ATOM      7  O   UNL     1      -9.839  -1.040   0.110  0.00  0.00    -0.441 OA
ATOM      8  C   UNL     1     -10.827  -0.221  -0.287  0.00  0.00    +0.199 C 
ATOM      9  C   UNL     1     -10.655   1.119  -0.378  0.00  0.00    +0.098 C 
ATOM     10  C   UNL     1      -9.340   1.762  -0.037  0.00  0.00    +0.105 C 
ENDROOT
BRANCH  10  11
ATOM     11  C   UNL     1      -9.440   2.412   1.319  0.00  0.00    +0.002 A 
ATOM     12  C   UNL     1      -9.293   3.718   1.653  0.00  0.00    +0.012 A 
ATOM     13  C   UNL     1      -9.430   4.091   2.976  0.00  0.00    +0.008 A 
ATOM     14  C   UNL     1      -9.707   3.140   3.902  0.00  0.00    +0.045 A 
ATOM     15  S   UNL     1      -9.789   1.664   2.902  0.00  0.00    -0.101 S 
ENDBRANCH  10  11
BRANCH   8  16
ATOM     16  N   UNL     1     -12.048  -0.759  -0.610  0.00  0.00    -0.328 N 
ATOM     17  H   UNL     1     -12.188  -1.717  -0.550  0.00  0.00    +0.145 HD
ATOM     18  H   UNL     1     -12.772  -0.180  -0.898  0.00  0.00    +0.145 HD
ENDBRANCH   8  16
BRANCH   9  19
ATOM     19  C   UNL     1     -11.747   1.939  -0.808  0.00  0.00    +0.101 C 
ATOM     20  N   UNL     1     -12.614   2.590  -1.149  0.00  0.00    -0.191 NA
ENDBRANCH   9  19
BRANCH   1  21
ATOM     21  O   UNL     1      -5.206  -2.068   0.041  0.00  0.00    -0.422 OA
BRANCH  21  22
ATOM     22  C   UNL     1      -4.947  -2.745  -1.095  0.00  0.00    +0.348 C 
ATOM     23  O   UNL     1      -5.657  -2.591  -2.069  0.00  0.00    -0.244 OA
BRANCH  22  29
ATOM     24  C   UNL     1      -3.531  -4.379  -2.336  0.00  0.00    +0.134 A 
ATOM     25  C   UNL     1      -2.449  -5.245  -2.384  0.00  0.00    +0.046 A 
ATOM     26  C   UNL     1      -1.647  -5.413  -1.272  0.00  0.00    +0.004 A 
ATOM     27  C   UNL     1      -1.917  -4.721  -0.102  0.00  0.00    +0.001 A 
ATOM     28  C   UNL     1      -2.987  -3.857  -0.036  0.00  0.00    +0.018 A 
ATOM     29  C   UNL     1      -3.804  -3.673  -1.156  0.00  0.00    +0.101 A 
BRANCH  24  30
ATOM     30  O   UNL     1      -4.319  -4.213  -3.427  0.00  0.00    -0.491 OA
BRANCH  30  32
ATOM     31  C   UNL     1      -4.974  -4.649  -5.712  0.00  0.00    +0.048 C 
ATOM     32  C   UNL     1      -3.980  -4.966  -4.593  0.00  0.00    +0.226 C 
ENDBRANCH  30  32
ENDBRANCH  24  30
ENDBRANCH  22  29
ENDBRANCH  21  22
ENDBRANCH   1  21
TORSDOF 8
