REMARK  Name = ZINC27531781
REMARK  6 active torsions:
REMARK  status: ('A' for Active; 'I' for Inactive)
REMARK    1  A    between atoms: C_1  and  C_2
REMARK    2  A    between atoms: N_6  and  C_20
REMARK    3  A    between atoms: N_9  and  C_16
REMARK    4  A    between atoms: C_12  and  C_13
REMARK    5  A    between atoms: C_16  and  C_17
REMARK    6  A    between atoms: C_17  and  C_19
REMARK                            x       y       z     vdW  Elec       q    Type
REMARK                         _______ _______ _______ _____ _____    ______ ____
ROOT
ATOM      1  C   UNL     1       3.593   3.336  -1.564  0.00  0.00    +0.046 C 
ATOM      2  C   UNL     1       2.332   3.895  -0.956  0.00  0.00    -0.015 A 
ATOM      3  C   UNL     1       2.286   5.212  -0.489  0.00  0.00    +0.075 A 
ATOM      4  C   UNL     1       3.358   6.238  -0.493  0.00  0.00    +0.270 A 
ATOM      5  O   UNL     1       4.457   5.978  -0.945  0.00  0.00    -0.266 OA
ATOM      6  N   UNL     1       3.099   7.458   0.009  0.00  0.00    -0.228 N 
ATOM      7  C   UNL     1       1.898   7.777   0.516  0.00  0.00    +0.338 A 
ATOM      8  O   UNL     1       1.717   8.895   0.959  0.00  0.00    -0.246 OA
ATOM      9  N   UNL     1       0.888   6.886   0.545  0.00  0.00    -0.283 N 
ATOM     10  C   UNL     1       1.060   5.625   0.058  0.00  0.00    +0.098 A 
ATOM     11  S   UNL     1       0.043   4.240  -0.088  0.00  0.00    -0.063 S 
ATOM     12  C   UNL     1       1.209   3.126  -0.848  0.00  0.00    +0.106 A 
ENDROOT
BRANCH   6  13
ATOM     13  C   UNL     1       4.114   8.425   0.004  0.00  0.00    +0.054 A 
ATOM     14  C   UNL     1       4.975   8.535   1.088  0.00  0.00    +0.028 A 
ATOM     15  C   UNL     1       5.977   9.486   1.079  0.00  0.00    +0.022 A 
ATOM     16  C   UNL     1       6.117  10.334  -0.005  0.00  0.00    +0.041 A 
ATOM     17  C   UNL     1       5.258  10.229  -1.085  0.00  0.00    +0.022 A 
ATOM     18  C   UNL     1       4.257   9.277  -1.082  0.00  0.00    +0.028 A 
ATOM     19 CL   UNL     1       7.374  11.532  -0.011  0.00  0.00    -0.084 Cl
ENDBRANCH   6  13
BRANCH  12  20
ATOM     20  C   UNL     1       1.010   1.736  -1.259  0.00  0.00    +0.393 C 
ATOM     21  O   UNL     1       1.922   1.117  -1.773  0.00  0.00    -0.240 OA
ATOM     22  O   UNL     1      -0.185   1.140  -1.067  0.00  0.00    -0.240 OA
ENDBRANCH  12  20
BRANCH   9  23
ATOM     23  C   UNL     1      -0.407   7.276   1.108  0.00  0.00    +0.157 C 
BRANCH  23  24
ATOM     24  C   UNL     1      -0.426   6.972   2.583  0.00  0.00    -0.060 C 
ATOM     25  C   UNL     1      -0.121   7.906   3.449  0.00  0.00    +0.009 C 
ATOM     26  C   UNL     1      -0.797   5.592   3.063  0.00  0.00    +0.040 C 
ENDBRANCH  23  24
ENDBRANCH   9  23
TORSDOF 4
