REMARK  Name = ZINC16435200
REMARK  13 active torsions:
REMARK  status: ('A' for Active; 'I' for Inactive)
REMARK    1  A    between atoms: C_1  and  C_2
REMARK    2  A    between atoms: C_2  and  C_3
REMARK    3  A    between atoms: C_3  and  N_4
REMARK    4  A    between atoms: N_4  and  C_5
REMARK    5  A    between atoms: C_5  and  C_6
REMARK    6  A    between atoms: N_8  and  C_9
REMARK    7  A    between atoms: C_11  and  C_22
REMARK    8  A    between atoms: N_13  and  C_14
REMARK    9  A    between atoms: C_17  and  C_21
REMARK   10  A    between atoms: C_19  and  C_20
REMARK   11  A    between atoms: N_30  and  C_31
REMARK   12  A    between atoms: C_34  and  C_38
REMARK   13  A    between atoms: C_36  and  C_37
REMARK                            x       y       z     vdW  Elec       q    Type
REMARK                         _______ _______ _______ _____ _____    ______ ____
ROOT
ATOM      1  C   UNL     1      -3.397  -1.364   0.450  0.00  0.00    +0.236 C 
ATOM      2  O   UNL     1      -3.127  -2.543   0.541  0.00  0.00    -0.274 OA
ATOM      3  N   UNL     1      -2.414  -0.459   0.270  0.00  0.00    -0.269 N 
ATOM      4  H   UNL     1      -2.631   0.484   0.197  0.00  0.00    +0.156 HD
ENDROOT
BRANCH   3   5
ATOM      5  C   UNL     1      -1.087  -0.878   0.190  0.00  0.00    +0.129 A 
ATOM      6  C   UNL     1      -0.653  -2.166   0.167  0.00  0.00    +0.074 A 
ATOM      7  C   UNL     1       0.753  -2.145   0.087  0.00  0.00    +0.095 A 
ATOM      8  N   UNL     1       1.144  -0.888   0.058  0.00  0.00    -0.165 NA
ATOM      9  N   UNL     1       0.008  -0.071   0.119  0.00  0.00    -0.218 N 
BRANCH   9  10
ATOM     10  C   UNL     1      -0.001   1.329   0.113  0.00  0.00    +0.070 A 
ATOM     11  C   UNL     1      -0.832   2.016  -0.763  0.00  0.00    +0.028 A 
ATOM     12  C   UNL     1      -0.841   3.397  -0.764  0.00  0.00    +0.005 A 
ATOM     13  C   UNL     1      -0.017   4.096   0.100  0.00  0.00    -0.050 A 
ATOM     14  C   UNL     1       0.815   3.415   0.969  0.00  0.00    +0.008 A 
ATOM     15  C   UNL     1       0.825   2.034   0.978  0.00  0.00    -0.025 A 
ATOM     16  C   UNL     1       1.733   1.293   1.925  0.00  0.00    +0.046 C 
ATOM     17  C   UNL     1      -0.026   5.603   0.093  0.00  0.00    +0.044 C 
ENDBRANCH   9  10
BRANCH   7  18
ATOM     18  C   UNL     1       1.639  -3.334   0.042  0.00  0.00    +0.002 A 
ATOM     19  C   UNL     1       1.094  -4.615   0.085  0.00  0.00    +0.010 A 
ATOM     20  C   UNL     1       1.923  -5.717   0.038  0.00  0.00    +0.001 A 
ATOM     21  C   UNL     1       3.294  -5.552  -0.041  0.00  0.00    +0.000 A 
ATOM     22  C   UNL     1       3.841  -4.282  -0.078  0.00  0.00    +0.001 A 
ATOM     23  C   UNL     1       3.021  -3.173  -0.037  0.00  0.00    +0.010 A 
ENDBRANCH   7  18
ENDBRANCH   3   5
BRANCH   1  24
ATOM     24  C   UNL     1      -4.832  -0.911   0.536  0.00  0.00    +0.205 C 
BRANCH  24  25
ATOM     25  N   UNL     1      -5.701  -2.074   0.731  0.00  0.00    -0.277 N 
ATOM     26  C   UNL     1      -5.995  -2.495   1.977  0.00  0.00    +0.307 C 
ATOM     27  O   UNL     1      -5.539  -1.909   2.939  0.00  0.00    -0.252 OA
ATOM     28  N   UNL     1      -6.794  -3.565   2.156  0.00  0.00    -0.269 N 
ATOM     29  H   UNL     1      -7.107  -4.070   1.389  0.00  0.00    +0.156 HD
BRANCH  28  30
ATOM     30  C   UNL     1      -7.171  -3.948   3.447  0.00  0.00    +0.038 A 
ATOM     31  C   UNL     1      -6.288  -3.789   4.507  0.00  0.00    +0.024 A 
ATOM     32  C   UNL     1      -6.664  -4.168   5.781  0.00  0.00    +0.005 A 
ATOM     33  C   UNL     1      -7.919  -4.705   6.002  0.00  0.00    -0.050 A 
ATOM     34  C   UNL     1      -8.801  -4.865   4.949  0.00  0.00    +0.008 A 
ATOM     35  C   UNL     1      -8.433  -4.483   3.674  0.00  0.00    -0.029 A 
ATOM     36  C   UNL     1      -9.397  -4.652   2.528  0.00  0.00    +0.045 C 
ATOM     37  C   UNL     1      -8.326  -5.116   7.393  0.00  0.00    +0.044 C 
ENDBRANCH  28  30
BRANCH  25  38
ATOM     38  C   UNL     1      -6.250  -2.780  -0.430  0.00  0.00    +0.109 C 
BRANCH  38  40
ATOM     39  C   UNL     1      -5.861  -4.629  -2.065  0.00  0.00    +0.005 C 
ATOM     40  C   UNL     1      -5.287  -3.891  -0.854  0.00  0.00    +0.016 C 
ENDBRANCH  38  40
ENDBRANCH  25  38
ENDBRANCH  24  25
ENDBRANCH   1  24
TORSDOF 8
