REMARK  Name = ZINC66203686
REMARK  7 active torsions:
REMARK  status: ('A' for Active; 'I' for Inactive)
REMARK    1  A    between atoms: C_1  and  C_2
REMARK    2  A    between atoms: C_2  and  C_3
REMARK    3  A    between atoms: C_3  and  C_4
REMARK    4  A    between atoms: C_4  and  C_6
REMARK    5  A    between atoms: C_4  and  N_17
REMARK    6  A    between atoms: N_20  and  N_21
REMARK    7  A    between atoms: N_21  and  C_22
REMARK                            x       y       z     vdW  Elec       q    Type
REMARK                         _______ _______ _______ _____ _____    ______ ____
ROOT
ATOM      1  C   UNL     1      -1.411  -2.067   0.004  0.00  0.00    +0.161 C 
ENDROOT
BRANCH   1   2
ATOM      2  C   UNL     1      -2.826  -2.585   0.015  0.00  0.00    +0.236 C 
ATOM      3  O   UNL     1      -3.355  -2.884   1.065  0.00  0.00    -0.274 OA
ATOM      4  N   UNL     1      -3.505  -2.717  -1.142  0.00  0.00    -0.295 N 
ATOM      5  C   UNL     1      -4.921  -3.114  -1.135  0.00  0.00    +0.113 C 
ATOM      6  C   UNL     1      -5.752  -1.947  -1.689  0.00  0.00    +0.061 C 
ATOM      7  C   UNL     1      -5.053  -1.386  -2.885  0.00  0.00    -0.004 A 
ATOM      8  C   UNL     1      -3.760  -1.576  -3.263  0.00  0.00    -0.020 A 
ATOM      9  C   UNL     1      -3.346  -0.929  -4.426  0.00  0.00    +0.013 A 
ATOM     10  C   UNL     1      -4.219  -0.164  -5.121  0.00  0.00    +0.046 A 
ATOM     11  S   UNL     1      -5.706  -0.321  -4.144  0.00  0.00    -0.101 S 
ATOM     12  C   UNL     1      -2.842  -2.459  -2.428  0.00  0.00    +0.143 C 
ENDBRANCH   1   2
BRANCH   1  13
ATOM     13  N   UNL     1      -0.708  -2.541   1.199  0.00  0.00    -0.287 N 
ATOM     14  C   UNL     1       0.635  -2.654   1.190  0.00  0.00    +0.316 C 
ATOM     15  O   UNL     1       1.263  -2.364   0.190  0.00  0.00    -0.251 OA
ATOM     16  N   UNL     1       1.281  -3.091   2.289  0.00  0.00    -0.220 N 
ATOM     17  H   UNL     1      -1.209  -2.773   1.996  0.00  0.00    +0.151 HD
ATOM     18  H   UNL     1       2.248  -3.172   2.283  0.00  0.00    +0.174 HD
BRANCH  16  19
ATOM     19  N   UNL     1       0.558  -3.426   3.441  0.00  0.00    -0.263 N 
ATOM     20  H   UNL     1      -0.409  -3.344   3.447  0.00  0.00    +0.170 HD
BRANCH  19  21
ATOM     21  C   UNL     1       1.229  -3.878   4.581  0.00  0.00    +0.045 A 
ATOM     22  C   UNL     1       2.613  -3.990   4.575  0.00  0.00    +0.027 A 
ATOM     23  C   UNL     1       3.273  -4.437   5.702  0.00  0.00    +0.040 A 
ATOM     24  C   UNL     1       2.557  -4.774   6.838  0.00  0.00    +0.124 A 
ATOM     25  C   UNL     1       1.177  -4.663   6.847  0.00  0.00    +0.040 A 
ATOM     26  C   UNL     1       0.512  -4.210   5.723  0.00  0.00    +0.027 A 
ATOM     27  F   UNL     1       3.205  -5.211   7.940  0.00  0.00    -0.205 F 
ENDBRANCH  19  21
ENDBRANCH  16  19
ENDBRANCH   1  13
BRANCH   1  28
ATOM     28  C   UNL     1      -1.429  -0.537  -0.004  0.00  0.00    +0.031 C 
BRANCH  28  30
ATOM     29  C   UNL     1      -0.018   1.518  -0.171  0.00  0.00    +0.004 C 
ATOM     30  C   UNL     1      -0.000  -0.012  -0.163  0.00  0.00    -0.001 C 
ENDBRANCH  28  30
ENDBRANCH   1  28
TORSDOF 6
