REMARK  Name = ZINC18953837
REMARK  10 active torsions:
REMARK  status: ('A' for Active; 'I' for Inactive)
REMARK    1  A    between atoms: C_1  and  C_2
REMARK    2  A    between atoms: C_2  and  C_3
REMARK    3  A    between atoms: C_3  and  N_4
REMARK    4  A    between atoms: C_13  and  C_15
REMARK    5  A    between atoms: C_15  and  O_17
REMARK    6  A    between atoms: O_17  and  C_18
REMARK    7  A    between atoms: C_18  and  C_19
REMARK    8  A    between atoms: N_21  and  C_22
REMARK    9  A    between atoms: C_22  and  C_24
REMARK   10  A    between atoms: C_22  and  C_25
REMARK                            x       y       z     vdW  Elec       q    Type
REMARK                         _______ _______ _______ _____ _____    ______ ____
ROOT
ATOM      1  O   UNL     1       8.116   3.811   1.818  0.00  0.00    -0.451 OA
ENDROOT
BRANCH   1   2
ATOM      2  C   UNL     1       9.172   4.509   2.280  0.00  0.00    +0.360 C 
ATOM      3  O   UNL     1       9.129   5.723   2.319  0.00  0.00    -0.243 OA
BRANCH   2  13
ATOM      4  N   UNL     1      11.446   1.801   3.079  0.00  0.00    -0.228 N 
ATOM      5  C   UNL     1      12.580   2.346   3.564  0.00  0.00    +0.275 A 
ATOM      6  O   UNL     1      13.511   1.641   3.910  0.00  0.00    -0.266 OA
ATOM      7  C   UNL     1      12.666   3.809   3.667  0.00  0.00    +0.050 A 
ATOM      8  C   UNL     1      13.790   4.468   4.155  0.00  0.00    +0.014 A 
ATOM      9  C   UNL     1      13.791   5.845   4.219  0.00  0.00    +0.001 A 
ATOM     10  C   UNL     1      12.686   6.576   3.804  0.00  0.00    +0.001 A 
ATOM     11  C   UNL     1      11.562   5.942   3.318  0.00  0.00    +0.011 A 
ATOM     12  C   UNL     1      11.543   4.553   3.239  0.00  0.00    +0.021 A 
ATOM     13  C   UNL     1      10.381   3.800   2.739  0.00  0.00    +0.176 A 
ATOM     14  N   UNL     1      10.437   2.490   2.700  0.00  0.00    -0.161 NA
BRANCH   4  15
ATOM     15  C   UNL     1      11.366   0.341   2.978  0.00  0.00    +0.147 C 
BRANCH  15  17
ATOM     16  C   UNL     1      10.711  -1.753   4.173  0.00  0.00    +0.005 C 
ATOM     17  C   UNL     1      10.795  -0.229   4.278  0.00  0.00    +0.020 C 
ENDBRANCH  15  17
ENDBRANCH   4  15
ENDBRANCH   2  13
ENDBRANCH   1   2
BRANCH   1  18
ATOM     18  C   UNL     1       6.960   4.575   1.384  0.00  0.00    +0.328 C 
BRANCH  18  19
ATOM     19  C   UNL     1       5.887   3.633   0.904  0.00  0.00    +0.251 C 
ATOM     20  O   UNL     1       6.077   2.435   0.925  0.00  0.00    -0.272 OA
ATOM     21  N   UNL     1       4.715   4.121   0.450  0.00  0.00    -0.306 N 
ATOM     22  H   UNL     1       4.563   5.079   0.433  0.00  0.00    +0.149 HD
BRANCH  21  23
ATOM     23  C   UNL     1       3.671   3.205  -0.017  0.00  0.00    +0.101 C 
ATOM     24  C   UNL     1       3.898   2.885  -1.496  0.00  0.00    +0.033 C 
BRANCH  23  25
ATOM     25  C   UNL     1       2.321   3.851   0.157  0.00  0.00    -0.020 A 
ATOM     26  C   UNL     1       2.206   5.208   0.152  0.00  0.00    +0.006 A 
ATOM     27  C   UNL     1       0.967   5.823   0.311  0.00  0.00    +0.001 A 
ATOM     28  C   UNL     1      -0.166   5.086   0.475  0.00  0.00    +0.008 A 
ATOM     29  C   UNL     1      -0.087   3.683   0.484  0.00  0.00    -0.018 A 
ATOM     30  C   UNL     1       1.174   3.057   0.323  0.00  0.00    -0.013 A 
ATOM     31  C   UNL     1       1.253   1.654   0.333  0.00  0.00    +0.009 A 
ATOM     32  C   UNL     1       0.120   0.917   0.496  0.00  0.00    +0.001 A 
ATOM     33  C   UNL     1      -1.121   1.533   0.649  0.00  0.00    +0.001 A 
ATOM     34  C   UNL     1      -1.235   2.889   0.651  0.00  0.00    +0.008 A 
ENDBRANCH  23  25
ENDBRANCH  21  23
ENDBRANCH  18  19
ENDBRANCH   1  18
TORSDOF 8
