REMARK  Name = ZINC59432300
REMARK  9 active torsions:
REMARK  status: ('A' for Active; 'I' for Inactive)
REMARK    1  A    between atoms: C_4  and  C_10
REMARK    2  A    between atoms: C_5  and  C_7
REMARK    3  A    between atoms: C_10  and  O_12
REMARK    4  A    between atoms: O_12  and  C_13
REMARK    5  A    between atoms: C_13  and  C_14
REMARK    6  A    between atoms: C_14  and  N_15
REMARK    7  A    between atoms: C_21  and  O_26
REMARK    8  A    between atoms: O_26  and  C_27
REMARK    9  A    between atoms: C_31  and  N_33
REMARK                            x       y       z     vdW  Elec       q    Type
REMARK                         _______ _______ _______ _____ _____    ______ ____
ROOT
ATOM      1  N   UNL     1       7.255   1.035   0.897  0.00  0.00    -0.231 N 
ATOM      2  C   UNL     1       6.711   2.255   1.055  0.00  0.00    +0.254 C 
ATOM      3  O   UNL     1       6.054   2.851   0.225  0.00  0.00    -0.270 OA
ATOM      4  C   UNL     1       7.046   2.750   2.405  0.00  0.00    +0.050 A 
ATOM      5  C   UNL     1       6.766   3.914   3.105  0.00  0.00    +0.017 A 
ATOM      6  C   UNL     1       7.243   4.074   4.393  0.00  0.00    +0.047 A 
ATOM      7  C   UNL     1       8.002   3.075   4.990  0.00  0.00    +0.129 A 
ATOM      8  C   UNL     1       8.291   1.902   4.297  0.00  0.00    +0.060 A 
ATOM      9  C   UNL     1       7.816   1.734   3.008  0.00  0.00    +0.053 A 
ATOM     10  C   UNL     1       7.918   0.653   2.004  0.00  0.00    +0.254 C 
ATOM     11  O   UNL     1       8.503  -0.400   2.152  0.00  0.00    -0.270 OA
ENDROOT
BRANCH   1  12
ATOM     12  C   UNL     1       7.135   0.225  -0.318  0.00  0.00    +0.158 C 
BRANCH  12  13
ATOM     13  C   UNL     1       5.887  -0.654  -0.224  0.00  0.00    +0.252 C 
BRANCH  13  14
ATOM     14  O   UNL     1       4.722   0.173  -0.205  0.00  0.00    -0.460 OA
BRANCH  14  15
ATOM     15  C   UNL     1       3.530  -0.450  -0.124  0.00  0.00    +0.340 C 
ATOM     16  O   UNL     1       3.482  -1.662  -0.071  0.00  0.00    -0.245 OA
BRANCH  15  20
ATOM     17  C   UNL     1      -0.064   1.833  -0.055  0.00  0.00    +0.001 A 
ATOM     18  C   UNL     1       1.165   2.468  -0.013  0.00  0.00    +0.001 A 
ATOM     19  C   UNL     1       2.335   1.731  -0.035  0.00  0.00    +0.016 A 
ATOM     20  C   UNL     1       2.282   0.342  -0.100  0.00  0.00    +0.073 A 
ATOM     21  C   UNL     1       1.032  -0.305  -0.142  0.00  0.00    +0.077 A 
ATOM     22  C   UNL     1      -0.137   0.454  -0.119  0.00  0.00    +0.016 A 
BRANCH  21  23
ATOM     23  C   UNL     1       0.959  -1.778  -0.211  0.00  0.00    +0.387 C 
ATOM     24  O   UNL     1       1.026  -2.344  -1.293  0.00  0.00    -0.241 OA
ATOM     25  O   UNL     1       0.833  -2.433   0.815  0.00  0.00    -0.241 OA
ENDBRANCH  21  23
ENDBRANCH  15  20
ENDBRANCH  14  15
ENDBRANCH  13  14
ENDBRANCH  12  13
ENDBRANCH   1  12
BRANCH   7  26
ATOM     26  O   UNL     1       8.465   3.244   6.255  0.00  0.00    -0.456 OA
BRANCH  26  27
ATOM     27  C   UNL     1       7.594   3.066   7.282  0.00  0.00    +0.131 A 
ATOM     28  C   UNL     1       8.039   3.150   8.594  0.00  0.00    +0.046 A 
ATOM     29  C   UNL     1       7.151   2.969   9.636  0.00  0.00    +0.006 A 
ATOM     30  C   UNL     1       5.820   2.703   9.374  0.00  0.00    +0.033 A 
ATOM     31  C   UNL     1       5.374   2.617   8.068  0.00  0.00    +0.130 A 
ATOM     32  C   UNL     1       6.256   2.804   7.022  0.00  0.00    +0.079 A 
BRANCH  31  33
ATOM     33  N   UNL     1       3.948   2.332   7.791  0.00  0.00    +0.057 N 
ATOM     34  O   UNL     1       3.174   2.173   8.706  0.00  0.00    -0.126 OA
ATOM     35  O   UNL     1       3.557   2.257   6.649  0.00  0.00    -0.126 OA
ENDBRANCH  31  33
ENDBRANCH  26  27
ENDBRANCH   7  26
TORSDOF 9
