REMARK  Name = ZINC09669554
REMARK  7 active torsions:
REMARK  status: ('A' for Active; 'I' for Inactive)
REMARK    1  A    between atoms: C_1  and  C_2
REMARK    2  A    between atoms: C_2  and  C_4
REMARK    3  A    between atoms: C_2  and  N_47
REMARK    4  A    between atoms: C_10  and  C_15
REMARK    5  A    between atoms: C_21  and  C_22
REMARK    6  A    between atoms: C_21  and  N_47
REMARK    7  A    between atoms: C_22  and  C_23
REMARK                            x       y       z     vdW  Elec       q    Type
REMARK                         _______ _______ _______ _____ _____    ______ ____
ROOT
ATOM      1  C   UNL     1      -1.899   0.557  -1.456  0.00  0.00    +0.097 A 
ATOM      2  N   UNL     1      -2.815   0.891  -2.401  0.00  0.00    -0.312 N 
ATOM      3  H   UNL     1      -2.747   1.749  -2.847  0.00  0.00    +0.170 HD
ATOM      4  C   UNL     1      -3.813   0.051  -2.734  0.00  0.00    +0.260 A 
ATOM      5  O   UNL     1      -4.625   0.363  -3.588  0.00  0.00    -0.267 OA
ATOM      6  C   UNL     1      -3.909  -1.212  -2.067  0.00  0.00    +0.080 A 
ATOM      7  C   UNL     1      -4.889  -2.277  -2.245  0.00  0.00    +0.004 A 
ATOM      8  C   UNL     1      -4.778  -3.397  -1.490  0.00  0.00    +0.056 A 
ATOM      9  S   UNL     1      -3.337  -3.079  -0.490  0.00  0.00    -0.076 S 
ATOM     10  C   UNL     1      -2.922  -1.466  -1.102  0.00  0.00    +0.116 A 
ATOM     11  N   UNL     1      -1.961  -0.587  -0.830  0.00  0.00    -0.228 NA
ENDROOT
BRANCH   7  12
ATOM     12  C   UNL     1      -5.986  -2.137  -3.232  0.00  0.00    -0.017 A 
ATOM     13  C   UNL     1      -6.777  -0.989  -3.242  0.00  0.00    +0.008 A 
ATOM     14  C   UNL     1      -7.793  -0.862  -4.167  0.00  0.00    +0.001 A 
ATOM     15  C   UNL     1      -8.035  -1.876  -5.076  0.00  0.00    +0.000 A 
ATOM     16  C   UNL     1      -7.257  -3.020  -5.067  0.00  0.00    +0.001 A 
ATOM     17  C   UNL     1      -6.234  -3.156  -4.151  0.00  0.00    +0.008 A 
ENDBRANCH   7  12
BRANCH   1  19
ATOM     18  C   UNL     1      -1.403   2.878  -0.736  0.00  0.00    -0.006 C 
ATOM     19  C   UNL     1      -0.795   1.527  -1.120  0.00  0.00    -0.007 C 
BRANCH  19  20
ATOM     20  N   UNL     1      -0.015   0.998   0.015  0.00  0.00    +0.386 N 
ATOM     21  H   UNL     1       0.032  -0.025  -0.054  0.00  0.00    -0.085 HD
ATOM     22  H   UNL     1      -0.475   1.261   0.894  0.00  0.00    -0.085 HD
BRANCH  20  23
ATOM     23  C   UNL     1       1.353   1.550  -0.003  0.00  0.00    -0.077 C 
BRANCH  23  24
ATOM     24  C   UNL     1       2.136   0.985   1.184  0.00  0.00    +0.016 C 
BRANCH  24  25
ATOM     25  C   UNL     1       3.536   1.544   1.173  0.00  0.00    -0.049 A 
ATOM     26  C   UNL     1       4.541   0.878   0.496  0.00  0.00    +0.005 A 
ATOM     27  C   UNL     1       5.823   1.394   0.481  0.00  0.00    +0.020 A 
ATOM     28  C   UNL     1       6.103   2.570   1.154  0.00  0.00    +0.041 A 
ATOM     29  C   UNL     1       5.098   3.232   1.837  0.00  0.00    +0.020 A 
ATOM     30  C   UNL     1       3.815   2.719   1.846  0.00  0.00    +0.005 A 
ATOM     31 CL   UNL     1       7.715   3.214   1.142  0.00  0.00    -0.084 Cl
ENDBRANCH  24  25
ENDBRANCH  23  24
ENDBRANCH  20  23
ENDBRANCH  19  20
ENDBRANCH   1  19
TORSDOF 6
