REMARK  Name = ZINC09494813
REMARK  10 active torsions:
REMARK  status: ('A' for Active; 'I' for Inactive)
REMARK    1  A    between atoms: C_1  and  O_2
REMARK    2  A    between atoms: O_2  and  C_3
REMARK    3  A    between atoms: C_6  and  C_9
REMARK    4  A    between atoms: C_9  and  C_11
REMARK    5  A    between atoms: C_9  and  N_67
REMARK    6  A    between atoms: C_11  and  N_12
REMARK    7  A    between atoms: C_13  and  C_15
REMARK    8  A    between atoms: N_18  and  S_21
REMARK    9  A    between atoms: S_21  and  C_24
REMARK   10  A    between atoms: C_27  and  C_30
REMARK                            x       y       z     vdW  Elec       q    Type
REMARK                         _______ _______ _______ _____ _____    ______ ____
ROOT
ATOM      1  N   UNL     1      -2.767   1.447  -2.984  0.00  0.00    -0.316 N 
ATOM      2  C   UNL     1      -3.751   1.838  -3.817  0.00  0.00    +0.216 C 
ATOM      3  O   UNL     1      -3.490   2.155  -4.958  0.00  0.00    -0.276 OA
ATOM      4  H   UNL     1      -2.976   1.194  -2.071  0.00  0.00    +0.149 HD
ENDROOT
BRANCH   2   5
ATOM      5  C   UNL     1      -5.177   1.882  -3.330  0.00  0.00    +0.077 C 
ATOM      6  C   UNL     1      -5.605   0.484  -2.880  0.00  0.00    +0.030 C 
ATOM      7  C   UNL     1      -7.043   0.539  -2.354  0.00  0.00    +0.110 C 
ATOM      8  N   UNL     1      -7.903   1.130  -3.389  0.00  0.00    -0.177 NA
ATOM      9  C   UNL     1      -7.532   2.433  -3.957  0.00  0.00    +0.110 C 
ATOM     10  C   UNL     1      -6.088   2.356  -4.465  0.00  0.00    +0.030 C 
BRANCH   8  11
ATOM     11  S   UNL     1      -9.265   0.342  -3.905  0.00  0.00    +0.061 S 
ATOM     12  O   UNL     1      -9.653  -0.530  -2.852  0.00  0.00    -0.153 OA
ATOM     13  O   UNL     1     -10.134   1.335  -4.430  0.00  0.00    -0.153 OA
BRANCH  11  14
ATOM     14  C   UNL     1      -8.793  -0.682  -5.258  0.00  0.00    +0.106 A 
ATOM     15  C   UNL     1      -8.846  -0.185  -6.549  0.00  0.00    +0.030 A 
ATOM     16  C   UNL     1      -8.473  -0.980  -7.613  0.00  0.00    +0.021 A 
ATOM     17  C   UNL     1      -8.052  -2.292  -7.387  0.00  0.00    +0.052 A 
ATOM     18  C   UNL     1      -8.006  -2.788  -6.082  0.00  0.00    +0.021 A 
ATOM     19  C   UNL     1      -8.376  -1.981  -5.027  0.00  0.00    +0.030 A 
BRANCH  17  20
ATOM     20  C   UNL     1      -7.668  -3.124  -8.487  0.00  0.00    +0.099 C 
ATOM     21  N   UNL     1      -7.364  -3.784  -9.360  0.00  0.00    -0.191 NA
ENDBRANCH  17  20
ENDBRANCH  11  14
ENDBRANCH   8  11
ENDBRANCH   2   5
BRANCH   1  22
ATOM     22  C   UNL     1      -1.381   1.404  -3.457  0.00  0.00    +0.093 C 
BRANCH  22  23
ATOM     23  C   UNL     1      -0.488   0.805  -2.368  0.00  0.00    -0.020 C 
BRANCH  23  27
ATOM     24  C   UNL     1      -1.593  -3.270  -1.705  0.00  0.00    +0.120 A 
ATOM     25  C   UNL     1      -2.040  -2.279  -0.843  0.00  0.00    +0.046 A 
ATOM     26  C   UNL     1      -1.682  -0.963  -1.059  0.00  0.00    +0.005 A 
ATOM     27  C   UNL     1      -0.878  -0.632  -2.134  0.00  0.00    -0.059 A 
ATOM     28  C   UNL     1      -0.435  -1.616  -2.998  0.00  0.00    +0.005 A 
ATOM     29  C   UNL     1      -0.786  -2.935  -2.783  0.00  0.00    +0.046 A 
BRANCH  24  31
ATOM     30  C   UNL     1      -1.448  -5.532  -2.423  0.00  0.00    +0.277 C 
ATOM     31  O   UNL     1      -1.945  -4.565  -1.495  0.00  0.00    -0.495 OA
ENDBRANCH  24  31
ENDBRANCH  23  27
BRANCH  23  36
ATOM     32  C   UNL     1       1.821   0.385  -1.722  0.00  0.00    -0.078 C 
ATOM     33  C   UNL     1       3.198   0.992  -2.068  0.00  0.00    -0.020 C 
ATOM     34  C   UNL     1       2.879   2.237  -2.927  0.00  0.00    -0.020 C 
ATOM     35  C   UNL     1       1.339   2.274  -3.025  0.00  0.00    -0.078 C 
ATOM     36  N   UNL     1       0.946   0.887  -2.787  0.00  0.00    +0.385 N 
ATOM     37  H   UNL     1       1.080   0.333  -3.642  0.00  0.00    -0.081 HD
ENDBRANCH  23  36
ENDBRANCH  22  23
ENDBRANCH   1  22
TORSDOF 9
