REMARK  Name = ZINC36360657
REMARK  6 active torsions:
REMARK  status: ('A' for Active; 'I' for Inactive)
REMARK    1  A    between atoms: C_4  and  C_7
REMARK    2  A    between atoms: C_7  and  N_8
REMARK    3  A    between atoms: C_15  and  C_20
REMARK    4  A    between atoms: C_16  and  C_17
REMARK    5  A    between atoms: C_20  and  C_22
REMARK    6  A    between atoms: C_20  and  N_25
REMARK                            x       y       z     vdW  Elec       q    Type
REMARK                         _______ _______ _______ _____ _____    ______ ____
ROOT
ATOM      1  N   UNL     1       4.749  -0.197   2.289  0.00  0.00    -0.330 N 
ATOM      2  C   UNL     1       4.001  -0.985   1.449  0.00  0.00    +0.050 A 
ATOM      3  C   UNL     1       3.595  -0.847   0.124  0.00  0.00    +0.026 A 
ATOM      4  C   UNL     1       2.831  -1.829  -0.464  0.00  0.00    +0.002 A 
ATOM      5  C   UNL     1       2.458  -2.960   0.252  0.00  0.00    +0.001 A 
ATOM      6  C   UNL     1       2.842  -3.119   1.551  0.00  0.00    +0.010 A 
ATOM      7  C   UNL     1       3.622  -2.133   2.172  0.00  0.00    +0.003 A 
ATOM      8  C   UNL     1       4.168  -2.003   3.471  0.00  0.00    -0.010 A 
ATOM      9  C   UNL     1       4.851  -0.826   3.517  0.00  0.00    +0.135 A 
ENDROOT
BRANCH   9  10
ATOM     10  C   UNL     1       5.575  -0.308   4.681  0.00  0.00    +0.403 C 
ATOM     11  O   UNL     1       6.067   0.813   4.647  0.00  0.00    -0.239 OA
ATOM     12  O   UNL     1       5.687  -0.995   5.688  0.00  0.00    -0.239 OA
ENDBRANCH   9  10
BRANCH   1  13
ATOM     13  C   UNL     1       5.346   1.095   1.941  0.00  0.00    +0.157 C 
BRANCH  13  17
ATOM     14  C   UNL     1       9.267   0.475   0.364  0.00  0.00    +0.000 A 
ATOM     15  C   UNL     1       8.176   0.488  -0.483  0.00  0.00    +0.000 A 
ATOM     16  C   UNL     1       6.907   0.688   0.027  0.00  0.00    +0.005 A 
ATOM     17  C   UNL     1       6.729   0.875   1.385  0.00  0.00    -0.028 A 
ATOM     18  C   UNL     1       7.821   0.861   2.233  0.00  0.00    +0.005 A 
ATOM     19  C   UNL     1       9.090   0.662   1.722  0.00  0.00    +0.000 A 
ENDBRANCH  13  17
ENDBRANCH   1  13
BRANCH   8  20
ATOM     20  C   UNL     1       4.025  -2.992   4.599  0.00  0.00    +0.081 C 
BRANCH  20  21
ATOM     21  N   UNL     1       2.623  -3.417   4.703  0.00  0.00    +0.394 N 
ATOM     22  C   UNL     1       1.762  -2.233   4.822  0.00  0.00    -0.058 C 
ATOM     23  C   UNL     1       0.293  -2.667   4.815  0.00  0.00    +0.088 C 
ATOM     24  N   UNL     1       0.098  -3.668   5.876  0.00  0.00    -0.320 N 
ATOM     25  C   UNL     1       1.025  -4.810   5.930  0.00  0.00    +0.088 C 
ATOM     26  C   UNL     1       2.459  -4.274   5.884  0.00  0.00    -0.058 C 
ATOM     27  C   UNL     1      -0.932  -3.539   6.800  0.00  0.00    +0.099 A 
ATOM     28  C   UNL     1      -1.722  -2.393   6.796  0.00  0.00    +0.042 A 
ATOM     29  C   UNL     1      -2.743  -2.278   7.721  0.00  0.00    +0.005 A 
ATOM     30  C   UNL     1      -2.942  -3.316   8.622  0.00  0.00    +0.018 A 
ATOM     31  C   UNL     1      -2.121  -4.424   8.569  0.00  0.00    +0.084 A 
ATOM     32  N   UNL     1      -1.157  -4.509   7.672  0.00  0.00    -0.350 N 
ATOM     33  H   UNL     1      -0.596  -5.301   7.653  0.00  0.00    +0.166 HD
ATOM     34  H   UNL     1       2.367  -3.934   3.875  0.00  0.00    -0.080 HD
ENDBRANCH  20  21
BRANCH  20  35
ATOM     35  C   UNL     1       4.895  -4.193   4.327  0.00  0.00    +0.347 C 
ATOM     36  O   UNL     1       6.108  -4.093   4.385  0.00  0.00    -0.248 OA
ATOM     37  O   UNL     1       4.384  -5.264   4.049  0.00  0.00    -0.248 OA
ENDBRANCH  20  35
ENDBRANCH   8  20
TORSDOF 6
