REMARK  Name = ZINC62959373
REMARK  2 active torsions:
REMARK  status: ('A' for Active; 'I' for Inactive)
REMARK    1  A    between atoms: C_4  and  C_20
REMARK    2  A    between atoms: C_6  and  N_10
REMARK                            x       y       z     vdW  Elec       q    Type
REMARK                         _______ _______ _______ _____ _____    ______ ____
ROOT
ATOM      1  N   UNL     1       0.498  -0.065   2.089  0.00  0.00    +0.382 N 
ATOM      2  C   UNL     1      -0.912   0.026   1.695  0.00  0.00    -0.078 C 
ATOM      3  C   UNL     1      -1.748  -0.926   2.554  0.00  0.00    -0.012 C 
ATOM      4  C   UNL     1      -1.240  -2.354   2.363  0.00  0.00    -0.033 C 
ATOM      5  C   UNL     1      -2.023  -3.314   3.276  0.00  0.00    +0.007 C 
ATOM      6  C   UNL     1      -3.136  -3.884   2.361  0.00  0.00    +0.001 C 
ATOM      7  C   UNL     1      -2.414  -4.043   1.000  0.00  0.00    +0.001 C 
ATOM      8  C   UNL     1      -1.487  -2.811   0.917  0.00  0.00    +0.007 C 
ATOM      9  C   UNL     1       0.251  -2.428   2.688  0.00  0.00    -0.012 C 
ATOM     10  C   UNL     1       1.006  -1.416   1.823  0.00  0.00    -0.078 C 
ATOM     11  H   UNL     1       0.583   0.137   3.074  0.00  0.00    -0.081 HD
ENDROOT
BRANCH   1  16
ATOM     12  C   UNL     1       2.247   3.653   0.153  0.00  0.00    -0.000 C 
ATOM     13  C   UNL     1       3.247   2.503  -0.085  0.00  0.00    +0.001 C 
ATOM     14  C   UNL     1       3.639   1.928   1.249  0.00  0.00    +0.013 C 
ATOM     15  C   UNL     1       2.777   0.714   1.644  0.00  0.00    +0.089 C 
ATOM     16  C   UNL     1       1.284   0.912   1.322  0.00  0.00    -0.055 C 
ATOM     17  C   UNL     1       0.800   2.296   1.661  0.00  0.00    -0.014 C 
ATOM     18  C   UNL     1       0.894   3.171   0.394  0.00  0.00    -0.002 C 
BRANCH  15  19
ATOM     19  C   UNL     1       2.925   0.474   3.125  0.00  0.00    +0.357 C 
ATOM     20  O   UNL     1       2.496   1.292   3.921  0.00  0.00    -0.246 OA
ATOM     21  O   UNL     1       3.474  -0.538   3.526  0.00  0.00    -0.246 OA
ENDBRANCH  15  19
ENDBRANCH   1  16
TORSDOF 2
