REMARK  Name = ZINC45326720
REMARK  7 active torsions:
REMARK  status: ('A' for Active; 'I' for Inactive)
REMARK    1  A    between atoms: C_1  and  C_2
REMARK    2  A    between atoms: C_3  and  C_20
REMARK    3  A    between atoms: C_4  and  C_10
REMARK    4  A    between atoms: C_13  and  O_19
REMARK    5  A    between atoms: C_14  and  N_16
REMARK    6  A    between atoms: N_22  and  C_23
REMARK    7  A    between atoms: C_28  and  C_29
REMARK                            x       y       z     vdW  Elec       q    Type
REMARK                         _______ _______ _______ _____ _____    ______ ____
ROOT
ATOM      1  C   UNL     1      -0.763   0.648   0.199  0.00  0.00    +0.061 C 
ATOM      2  C   UNL     1      -0.757  -0.816  -0.161  0.00  0.00    +0.017 C 
ATOM      3  C   UNL     1      -1.817  -1.346  -0.806  0.00  0.00    +0.056 C 
ATOM      4  C   UNL     1      -1.769  -2.821  -1.149  0.00  0.00    +0.139 C 
ATOM      5  N   UNL     1      -0.561  -3.561  -0.747  0.00  0.00    -0.315 N 
ATOM      6  C   UNL     1       0.417  -2.891  -0.107  0.00  0.00    +0.135 C 
ATOM      7  S   UNL     1       1.828  -3.737   0.367  0.00  0.00    -0.019 S 
ATOM      8  N   UNL     1       0.325  -1.583   0.167  0.00  0.00    -0.300 N 
ATOM      9  H   UNL     1      -0.472  -4.507  -0.938  0.00  0.00    +0.149 HD
ATOM     10  H   UNL     1       1.065  -1.158   0.627  0.00  0.00    +0.154 HD
ENDROOT
BRANCH   4  11
ATOM     11  C   UNL     1      -1.921  -2.956  -2.642  0.00  0.00    -0.020 A 
ATOM     12  C   UNL     1      -0.844  -2.698  -3.471  0.00  0.00    +0.009 A 
ATOM     13  C   UNL     1      -0.980  -2.821  -4.840  0.00  0.00    +0.048 A 
ATOM     14  C   UNL     1      -2.198  -3.204  -5.383  0.00  0.00    +0.147 A 
ATOM     15  C   UNL     1      -3.276  -3.463  -4.550  0.00  0.00    +0.168 A 
ATOM     16  C   UNL     1      -3.133  -3.343  -3.181  0.00  0.00    +0.042 A 
BRANCH  15  17
ATOM     17  N   UNL     1      -4.576  -3.872  -5.126  0.00  0.00    +0.060 N 
ATOM     18  O   UNL     1      -5.535  -4.028  -4.406  0.00  0.00    -0.126 OA
ATOM     19  O   UNL     1      -4.680  -4.050  -6.318  0.00  0.00    -0.126 OA
ENDBRANCH  15  17
BRANCH  14  20
ATOM     20  O   UNL     1      -2.334  -3.326  -6.730  0.00  0.00    -0.504 OA
ATOM     21  H   UNL     1      -2.130  -4.208  -7.068  0.00  0.00    +0.292 HD
ENDBRANCH  14  20
ENDBRANCH   4  11
BRANCH   3  22
ATOM     22  C   UNL     1      -2.937  -0.550  -1.151  0.00  0.00    +0.248 C 
ATOM     23  O   UNL     1      -3.984  -0.677  -0.543  0.00  0.00    -0.270 OA
ATOM     24  N   UNL     1      -2.843   0.347  -2.152  0.00  0.00    -0.281 N 
ATOM     25  H   UNL     1      -1.988   0.510  -2.579  0.00  0.00    +0.155 HD
BRANCH  24  26
ATOM     26  C   UNL     1      -3.979   1.045  -2.574  0.00  0.00    +0.045 A 
ATOM     27  C   UNL     1      -4.998   1.328  -1.673  0.00  0.00    +0.024 A 
ATOM     28  C   UNL     1      -6.118   2.017  -2.093  0.00  0.00    +0.002 A 
ATOM     29  C   UNL     1      -6.227   2.425  -3.410  0.00  0.00    +0.001 A 
ATOM     30  C   UNL     1      -5.216   2.145  -4.310  0.00  0.00    +0.014 A 
ATOM     31  C   UNL     1      -4.090   1.461  -3.894  0.00  0.00    +0.076 A 
BRANCH  31  32
ATOM     32  C   UNL     1      -2.985   1.161  -4.875  0.00  0.00    +0.419 C 
ATOM     33  F   UNL     1      -3.320   1.683  -6.129  0.00  0.00    -0.166 F 
ATOM     34  F   UNL     1      -1.795   1.747  -4.429  0.00  0.00    -0.166 F 
ATOM     35  F   UNL     1      -2.814  -0.223  -4.976  0.00  0.00    -0.166 F 
ENDBRANCH  31  32
ENDBRANCH  24  26
ENDBRANCH   3  22
TORSDOF 6
