REMARK  Name = ZINC65080190
REMARK  6 active torsions:
REMARK  status: ('A' for Active; 'I' for Inactive)
REMARK    1  A    between atoms: C_1  and  C_2
REMARK    2  A    between atoms: C_4  and  C_8
REMARK    3  A    between atoms: C_11  and  N_14
REMARK    4  A    between atoms: N_14  and  S_15
REMARK    5  A    between atoms: S_15  and  C_18
REMARK    6  A    between atoms: C_21  and  N_23
REMARK                            x       y       z     vdW  Elec       q    Type
REMARK                         _______ _______ _______ _____ _____    ______ ____
ROOT
ATOM      1  C   UNL     1      -3.682   2.628  -3.003  0.00  0.00    +0.021 A 
ATOM      2  C   UNL     1      -4.772   2.547  -2.139  0.00  0.00    +0.013 A 
ATOM      3  C   UNL     1      -6.030   2.895  -2.583  0.00  0.00    +0.027 A 
ATOM      4  C   UNL     1      -6.212   3.324  -3.893  0.00  0.00    +0.074 A 
ATOM      5  C   UNL     1      -5.125   3.405  -4.757  0.00  0.00    +0.027 A 
ATOM      6  C   UNL     1      -3.865   3.064  -4.314  0.00  0.00    +0.013 A 
ENDROOT
BRANCH   1  10
ATOM      7  C   UNL     1      -0.013   1.086   0.008  0.00  0.00    +0.087 C 
ATOM      8  C   UNL     1      -0.742   1.585  -1.213  0.00  0.00    +0.122 A 
ATOM      9  N   UNL     1      -2.024   1.824  -1.294  0.00  0.00    -0.212 NA
ATOM     10  C   UNL     1      -2.327   2.255  -2.526  0.00  0.00    +0.181 A 
ATOM     11  N   UNL     1      -1.225   2.294  -3.243  0.00  0.00    -0.152 NA
ATOM     12  H   UNL     1       0.755   1.788  -2.637  0.00  0.00    +0.190 HD
ATOM     13  N   UNL     1      -0.183   1.867  -2.404  0.00  0.00    -0.262 N 
ENDBRANCH   1  10
BRANCH   4  14
ATOM     14  N   UNL     1      -7.486   3.675  -4.341  0.00  0.00    -0.097 NA
BRANCH  14  15
ATOM     15  S   UNL     1      -7.703   4.186  -5.901  0.00  0.00    +0.098 S 
ATOM     16  O   UNL     1      -7.020   5.426  -6.021  0.00  0.00    -0.148 OA
ATOM     17  O   UNL     1      -7.415   3.074  -6.737  0.00  0.00    -0.148 OA
BRANCH  15  18
ATOM     18  C   UNL     1      -9.419   4.535  -6.101  0.00  0.00    +0.150 A 
ATOM     19  C   UNL     1     -10.082   5.700  -5.900  0.00  0.00    +0.039 A 
ATOM     20  C   UNL     1     -11.446   5.742  -6.122  0.00  0.00    +0.042 A 
ATOM     21  C   UNL     1     -12.079   4.617  -6.535  0.00  0.00    +0.165 A 
ATOM     22  S   UNL     1     -10.733   3.448  -6.628  0.00  0.00    -0.044 S 
BRANCH  21  23
ATOM     23  N   UNL     1     -13.514   4.412  -6.836  0.00  0.00    +0.063 N 
ATOM     24  O   UNL     1     -14.293   5.329  -6.721  0.00  0.00    -0.126 OA
ATOM     25  O   UNL     1     -13.908   3.327  -7.196  0.00  0.00    -0.126 OA
ENDBRANCH  21  23
ENDBRANCH  15  18
ENDBRANCH  14  15
ENDBRANCH   4  14
TORSDOF 5
