REMARK  Name = ZINC09482124
REMARK  9 active torsions:
REMARK  status: ('A' for Active; 'I' for Inactive)
REMARK    1  A    between atoms: C_3  and  C_11
REMARK    2  A    between atoms: C_5  and  C_7
REMARK    3  A    between atoms: C_11  and  O_30
REMARK    4  A    between atoms: C_16  and  C_17
REMARK    5  A    between atoms: C_16  and  N_55
REMARK    6  A    between atoms: N_19  and  C_20
REMARK    7  A    between atoms: C_20  and  C_21
REMARK    8  A    between atoms: C_21  and  S_22
REMARK    9  A    between atoms: S_22  and  C_23
REMARK                            x       y       z     vdW  Elec       q    Type
REMARK                         _______ _______ _______ _____ _____    ______ ____
ROOT
ATOM      1  C   UNL     1      -0.070   5.347   0.031  0.00  0.00    +0.088 C 
ATOM      2  C   UNL     1      -0.087   5.867  -1.410  0.00  0.00    +0.021 C 
ATOM      3  C   UNL     1      -0.045   7.396  -1.395  0.00  0.00    -0.075 C 
ATOM      4  C   UNL     1       1.184   7.401   0.693  0.00  0.00    -0.075 C 
ATOM      5  C   UNL     1       1.180   5.872   0.741  0.00  0.00    +0.021 C 
ATOM      6  N   UNL     1       1.194   7.837  -0.720  0.00  0.00    +0.386 N 
ATOM      7  H   UNL     1       2.001   7.413  -1.193  0.00  0.00    -0.081 HD
ENDROOT
BRANCH   1  10
ATOM      8  C   UNL     1       1.175   1.783   0.000  0.00  0.00    +0.001 A 
ATOM      9  C   UNL     1       1.156   3.166   0.008  0.00  0.00    +0.006 A 
ATOM     10  C   UNL     1      -0.050   3.840   0.022  0.00  0.00    -0.016 A 
ATOM     11  C   UNL     1      -1.238   3.133   0.029  0.00  0.00    +0.018 A 
ATOM     12  C   UNL     1      -1.219   1.751   0.017  0.00  0.00    +0.055 A 
ATOM     13  C   UNL     1      -0.013   1.076   0.008  0.00  0.00    +0.012 A 
BRANCH  12  14
ATOM     14  C   UNL     1      -2.514   0.980   0.019  0.00  0.00    +0.417 C 
ATOM     15  F   UNL     1      -2.240  -0.392   0.010  0.00  0.00    -0.166 F 
ATOM     16  F   UNL     1      -3.247   1.301   1.167  0.00  0.00    -0.166 F 
ATOM     17  F   UNL     1      -3.257   1.314  -1.118  0.00  0.00    -0.166 F 
ENDBRANCH  12  14
ENDBRANCH   1  10
BRANCH   1  18
ATOM     18  O   UNL     1      -1.237   5.805   0.717  0.00  0.00    -0.384 OA
ATOM     19  H   UNL     1      -2.068   5.511   0.319  0.00  0.00    +0.211 HD
ENDBRANCH   1  18
BRANCH   6  20
ATOM     20  C   UNL     1       1.313   9.308  -0.793  0.00  0.00    +0.019 C 
BRANCH  20  21
ATOM     21  C   UNL     1       1.541   9.705  -2.229  0.00  0.00    +0.196 C 
ATOM     22  O   UNL     1       1.580   8.856  -3.094  0.00  0.00    -0.278 OA
ATOM     23  N   UNL     1       1.701  11.004  -2.552  0.00  0.00    -0.316 N 
ATOM     24  H   UNL     1       1.670  11.683  -1.860  0.00  0.00    +0.149 HD
BRANCH  23  25
ATOM     25  C   UNL     1       1.922  11.390  -3.948  0.00  0.00    +0.115 C 
BRANCH  25  26
ATOM     26  C   UNL     1       2.071  12.910  -4.039  0.00  0.00    +0.093 C 
BRANCH  26  27
ATOM     27  S   UNL     1       2.345  13.387  -5.767  0.00  0.00    -0.124 S 
BRANCH  27  28
ATOM     28  C   UNL     1       2.495  15.142  -5.706  0.00  0.00    +0.008 A 
ATOM     29  C   UNL     1       2.387  15.808  -4.491  0.00  0.00    +0.016 A 
ATOM     30  C   UNL     1       2.510  17.183  -4.445  0.00  0.00    +0.021 A 
ATOM     31  C   UNL     1       2.730  17.898  -5.609  0.00  0.00    +0.041 A 
ATOM     32  C   UNL     1       2.832  17.238  -6.821  0.00  0.00    +0.021 A 
ATOM     33  C   UNL     1       2.716  15.863  -6.873  0.00  0.00    +0.016 A 
ATOM     34 CL   UNL     1       2.878  19.627  -5.548  0.00  0.00    -0.084 Cl
ENDBRANCH  27  28
ENDBRANCH  26  27
ENDBRANCH  25  26
ENDBRANCH  23  25
ENDBRANCH  20  21
ENDBRANCH   6  20
TORSDOF 9
