REMARK  Name = ZINC58644082
REMARK  6 active torsions:
REMARK  status: ('A' for Active; 'I' for Inactive)
REMARK    1  A    between atoms: C_1  and  C_2
REMARK    2  A    between atoms: C_2  and  C_3
REMARK    3  A    between atoms: C_6  and  C_9
REMARK    4  A    between atoms: C_11  and  C_14
REMARK    5  A    between atoms: C_14  and  N_15
REMARK    6  A    between atoms: N_15  and  C_16
REMARK                            x       y       z     vdW  Elec       q    Type
REMARK                         _______ _______ _______ _____ _____    ______ ____
ROOT
ATOM      1  C   UNL     1       5.664  -2.901  -6.552  0.00  0.00    +0.200 C 
ENDROOT
BRANCH   1   4
ATOM      2  C   UNL     1       2.698  -1.862  -4.737  0.00  0.00    +0.202 A 
ATOM      3  N   UNL     1       4.015  -2.115  -4.842  0.00  0.00    -0.190 NA
ATOM      4  C   UNL     1       4.296  -2.521  -6.047  0.00  0.00    +0.245 A 
ATOM      5  O   UNL     1       3.164  -2.543  -6.763  0.00  0.00    -0.336 OA
ATOM      6  N   UNL     1       2.130  -2.114  -5.890  0.00  0.00    -0.056 NA
BRANCH   2  10
ATOM      7  C   UNL     1       0.707  -0.490  -1.238  0.00  0.00    -0.048 A 
ATOM      8  C   UNL     1      -0.013  -0.718  -2.396  0.00  0.00    +0.004 A 
ATOM      9  C   UNL     1       0.628  -1.163  -3.535  0.00  0.00    +0.012 A 
ATOM     10  C   UNL     1       2.003  -1.383  -3.516  0.00  0.00    +0.022 A 
ATOM     11  C   UNL     1       2.724  -1.152  -2.346  0.00  0.00    +0.012 A 
ATOM     12  C   UNL     1       2.074  -0.701  -1.215  0.00  0.00    +0.004 A 
BRANCH   7  14
ATOM     13  C   UNL     1      -0.019   1.526   0.010  0.00  0.00    +0.009 C 
ATOM     14  C   UNL     1       0.002  -0.004   0.002  0.00  0.00    +0.032 C 
ENDBRANCH   7  14
ENDBRANCH   2  10
ENDBRANCH   1   4
BRANCH   1  15
ATOM     15  N   UNL     1       5.888  -4.331  -6.326  0.00  0.00    -0.334 N 
ATOM     16  H   UNL     1       5.199  -4.870  -5.908  0.00  0.00    +0.147 HD
BRANCH  15  17
ATOM     17  C   UNL     1       7.097  -4.920  -6.715  0.00  0.00    +0.050 A 
ATOM     18  C   UNL     1       8.087  -4.146  -7.309  0.00  0.00    +0.073 A 
ATOM     19  C   UNL     1       9.280  -4.734  -7.691  0.00  0.00    +0.164 A 
ATOM     20  C   UNL     1       9.487  -6.091  -7.482  0.00  0.00    +0.163 A 
ATOM     21  C   UNL     1       8.501  -6.862  -6.890  0.00  0.00    +0.071 A 
ATOM     22  C   UNL     1       7.309  -6.276  -6.502  0.00  0.00    +0.065 A 
ATOM     23 CL   UNL     1       6.074  -7.238  -5.752  0.00  0.00    -0.082 Cl
ATOM     24  O   UNL     1      10.669  -6.659  -7.862  0.00  0.00    -0.488 OA
ATOM     25  C   UNL     1      10.902  -6.733  -9.270  0.00  0.00    +0.232 C 
ATOM     26  C   UNL     1      11.490  -5.430  -9.789  0.00  0.00    +0.082 C 
ATOM     27  C   UNL     1      10.524  -4.264  -9.651  0.00  0.00    +0.232 C 
ATOM     28  O   UNL     1      10.260  -3.985  -8.274  0.00  0.00    -0.488 OA
ENDBRANCH  15  17
ENDBRANCH   1  15
TORSDOF 5
