REMARK  Name = ZINC63513883
REMARK  11 active torsions:
REMARK  status: ('A' for Active; 'I' for Inactive)
REMARK    1  A    between atoms: C_1  and  C_2
REMARK    2  A    between atoms: C_4  and  C_12
REMARK    3  A    between atoms: C_12  and  C_13
REMARK    4  A    between atoms: C_13  and  N_14
REMARK    5  A    between atoms: C_15  and  C_17
REMARK    6  A    between atoms: C_17  and  N_28
REMARK    7  A    between atoms: C_18  and  C_19
REMARK    8  A    between atoms: C_23  and  N_25
REMARK    9  A    between atoms: C_29  and  C_31
REMARK   10  A    between atoms: C_34  and  O_37
REMARK   11  A    between atoms: O_37  and  C_38
REMARK                            x       y       z     vdW  Elec       q    Type
REMARK                         _______ _______ _______ _____ _____    ______ ____
ROOT
ATOM      1  C   UNL     1      -7.118  -0.867  -2.264  0.00  0.00    +0.097 C 
ATOM      2  C   UNL     1      -6.814  -0.522  -3.537  0.00  0.00    +0.036 C 
ENDROOT
BRANCH   2   3
ATOM      3  C   UNL     1      -7.874  -0.457  -4.555  0.00  0.00    -0.021 A 
ATOM      4  C   UNL     1      -9.216  -0.368  -4.168  0.00  0.00    +0.008 A 
ATOM      5  C   UNL     1     -10.203  -0.308  -5.128  0.00  0.00    +0.003 A 
ATOM      6  C   UNL     1      -9.870  -0.336  -6.471  0.00  0.00    +0.033 A 
ATOM      7  C   UNL     1      -8.546  -0.425  -6.862  0.00  0.00    +0.127 A 
ATOM      8  C   UNL     1      -7.546  -0.479  -5.914  0.00  0.00    +0.040 A 
BRANCH   7   9
ATOM      9  N   UNL     1      -8.201  -0.455  -8.301  0.00  0.00    +0.056 N 
ATOM     10  O   UNL     1      -9.076  -0.402  -9.134  0.00  0.00    -0.126 OA
ATOM     11  O   UNL     1      -7.044  -0.533  -8.644  0.00  0.00    -0.126 OA
ENDBRANCH   7   9
ENDBRANCH   2   3
BRANCH   1  13
ATOM     12  N   UNL     1      -4.848  -0.362  -1.520  0.00  0.00    -0.310 N 
ATOM     13  C   UNL     1      -6.092  -0.783  -1.215  0.00  0.00    +0.258 C 
ATOM     14  O   UNL     1      -6.365  -1.093  -0.071  0.00  0.00    -0.269 OA
ATOM     15  H   UNL     1      -4.630  -0.115  -2.432  0.00  0.00    +0.149 HD
BRANCH  12  16
ATOM     16  C   UNL     1      -3.826  -0.279  -0.474  0.00  0.00    +0.109 C 
BRANCH  16  17
ATOM     17  C   UNL     1      -2.515   0.223  -1.082  0.00  0.00    +0.052 C 
BRANCH  17  20
ATOM     18  C   UNL     1       0.020   2.202  -0.671  0.00  0.00    +0.035 C 
ATOM     19  C   UNL     1      -0.028   0.757  -0.171  0.00  0.00    +0.103 C 
ATOM     20  C   UNL     1      -1.463   0.309  -0.006  0.00  0.00    -0.037 C 
ATOM     21  C   UNL     1      -1.611   0.002   1.303  0.00  0.00    -0.001 A 
ATOM     22  C   UNL     1      -2.753  -0.486   2.086  0.00  0.00    +0.010 A 
ATOM     23  C   UNL     1      -2.593  -0.707   3.411  0.00  0.00    +0.001 A 
ATOM     24  C   UNL     1      -1.367  -0.483   4.053  0.00  0.00    +0.002 A 
ATOM     25  C   UNL     1      -0.273  -0.036   3.400  0.00  0.00    +0.026 A 
ATOM     26  C   UNL     1      -0.328   0.230   2.004  0.00  0.00    +0.043 A 
ATOM     27  N   UNL     1       0.581   0.662   1.161  0.00  0.00    -0.378 N 
ATOM     28  H   UNL     1       1.499   0.882   1.380  0.00  0.00    +0.160 HD
ENDBRANCH  17  20
ENDBRANCH  16  17
ENDBRANCH  12  16
ENDBRANCH   1  13
BRANCH   1  29
ATOM     29  N   UNL     1      -8.408  -1.304  -1.948  0.00  0.00    -0.277 N 
ATOM     30  C   UNL     1      -9.124  -0.660  -1.005  0.00  0.00    +0.248 C 
ATOM     31  O   UNL     1      -8.612   0.229  -0.353  0.00  0.00    -0.270 OA
ATOM     32  H   UNL     1      -8.787  -2.069  -2.407  0.00  0.00    +0.155 HD
BRANCH  30  33
ATOM     33  C   UNL     1     -10.531  -1.035  -0.764  0.00  0.00    +0.037 A 
ATOM     34  C   UNL     1     -11.087  -2.132  -1.427  0.00  0.00    +0.016 A 
ATOM     35  C   UNL     1     -12.400  -2.479  -1.198  0.00  0.00    +0.046 A 
ATOM     36  C   UNL     1     -13.172  -1.740  -0.310  0.00  0.00    +0.120 A 
ATOM     37  C   UNL     1     -12.623  -0.647   0.351  0.00  0.00    +0.046 A 
ATOM     38  C   UNL     1     -11.309  -0.297   0.133  0.00  0.00    +0.016 A 
BRANCH  36  39
ATOM     39  O   UNL     1     -14.466  -2.085  -0.087  0.00  0.00    -0.495 OA
ATOM     40  C   UNL     1     -15.201  -1.282   0.838  0.00  0.00    +0.277 C 
ENDBRANCH  36  39
ENDBRANCH  30  33
ENDBRANCH   1  29
TORSDOF 9
