REMARK  Name = ZINC00917937
REMARK  9 active torsions:
REMARK  status: ('A' for Active; 'I' for Inactive)
REMARK    1  A    between atoms: C_1  and  C_2
REMARK    2  A    between atoms: C_5  and  S_8
REMARK    3  A    between atoms: S_8  and  N_11
REMARK    4  A    between atoms: N_11  and  C_12
REMARK    5  A    between atoms: N_11  and  C_27
REMARK    6  A    between atoms: C_12  and  C_13
REMARK    7  A    between atoms: C_18  and  O_25
REMARK    8  A    between atoms: O_25  and  C_26
REMARK    9  A    between atoms: C_27  and  C_28
REMARK                            x       y       z     vdW  Elec       q    Type
REMARK                         _______ _______ _______ _____ _____    ______ ____
ROOT
ATOM      1  N   UNL     1      -0.018   1.461   0.010  0.00  0.00    -0.170 NA
ENDROOT
BRANCH   1   2
ATOM      2  S   UNL     1      -1.463   2.269   0.021  0.00  0.00    +0.061 S 
ATOM      3  O   UNL     1      -1.212   3.557  -0.524  0.00  0.00    -0.153 OA
ATOM      4  O   UNL     1      -2.428   1.384  -0.530  0.00  0.00    -0.153 OA
BRANCH   2   9
ATOM      5  C   UNL     1      -2.992   3.109   5.797  0.00  0.00    +0.044 C 
ATOM      6  C   UNL     1      -2.611   2.899   4.354  0.00  0.00    -0.050 A 
ATOM      7  C   UNL     1      -1.851   3.848   3.696  0.00  0.00    +0.005 A 
ATOM      8  C   UNL     1      -1.500   3.655   2.373  0.00  0.00    +0.029 A 
ATOM      9  C   UNL     1      -1.910   2.514   1.708  0.00  0.00    +0.106 A 
ATOM     10  C   UNL     1      -2.674   1.568   2.365  0.00  0.00    +0.029 A 
ATOM     11  C   UNL     1      -3.020   1.758   3.690  0.00  0.00    +0.005 A 
ENDBRANCH   2   9
ENDBRANCH   1   2
BRANCH   1  12
ATOM     12  C   UNL     1       1.241   2.211   0.002  0.00  0.00    +0.150 C 
BRANCH  12  13
ATOM     13  C   UNL     1       1.722   2.369  -1.417  0.00  0.00    +0.033 A 
ATOM     14  C   UNL     1       1.417   3.493  -2.113  0.00  0.00    +0.020 A 
ATOM     15  C   UNL     1       1.903   3.619  -3.487  0.00  0.00    -0.001 A 
ATOM     16  C   UNL     1       1.624   4.758  -4.251  0.00  0.00    +0.013 A 
ATOM     17  C   UNL     1       2.086   4.846  -5.531  0.00  0.00    +0.046 A 
ATOM     18  C   UNL     1       2.835   3.808  -6.086  0.00  0.00    +0.122 A 
ATOM     19  C   UNL     1       3.122   2.674  -5.347  0.00  0.00    +0.072 A 
ATOM     20  C   UNL     1       2.660   2.568  -4.041  0.00  0.00    +0.053 A 
ATOM     21  N   UNL     1       2.931   1.449  -3.282  0.00  0.00    -0.322 N 
ATOM     22  H   UNL     1       3.452   0.726  -3.665  0.00  0.00    +0.169 HD
ATOM     23  C   UNL     1       2.483   1.346  -2.019  0.00  0.00    +0.254 A 
ATOM     24  O   UNL     1       2.742   0.342  -1.377  0.00  0.00    -0.268 OA
BRANCH  18  25
ATOM     25  O   UNL     1       3.287   3.912  -7.362  0.00  0.00    -0.495 OA
ATOM     26  C   UNL     1       2.957   5.108  -8.072  0.00  0.00    +0.277 C 
ENDBRANCH  18  25
ENDBRANCH  12  13
ENDBRANCH   1  12
BRANCH   1  27
ATOM     27  C   UNL     1       0.002  -0.004   0.002  0.00  0.00    +0.141 C 
BRANCH  27  28
ATOM     28  C   UNL     1       0.148  -0.520   1.435  0.00  0.00    +0.134 C 
ATOM     29  C   UNL     1       0.259  -2.061   1.443  0.00  0.00    +0.035 C 
ATOM     30  C   UNL     1      -0.526  -2.487   2.705  0.00  0.00    +0.031 C 
ATOM     31  C   UNL     1      -1.017  -1.153   3.309  0.00  0.00    +0.160 C 
ATOM     32  O   UNL     1      -1.042  -0.229   2.198  0.00  0.00    -0.375 OA
ENDBRANCH  27  28
ENDBRANCH   1  27
TORSDOF 7
