REMARK  Name = ZINC64839592
REMARK  10 active torsions:
REMARK  status: ('A' for Active; 'I' for Inactive)
REMARK    1  A    between atoms: C_1  and  C_2
REMARK    2  A    between atoms: C_2  and  C_4
REMARK    3  A    between atoms: C_2  and  N_18
REMARK    4  A    between atoms: N_6  and  C_7
REMARK    5  A    between atoms: C_7  and  C_8
REMARK    6  A    between atoms: C_8  and  N_9
REMARK    7  A    between atoms: N_9  and  C_10
REMARK    8  A    between atoms: N_9  and  C_11
REMARK    9  A    between atoms: C_11  and  C_12
REMARK   10  A    between atoms: N_29  and  C_32
REMARK                            x       y       z     vdW  Elec       q    Type
REMARK                         _______ _______ _______ _____ _____    ______ ____
ROOT
ATOM      1  C   UNL     1      -0.019   1.526   0.010  0.00  0.00    +0.041 C 
ATOM      2  C   UNL     1       0.002  -0.004   0.002  0.00  0.00    +0.170 C 
ENDROOT
BRANCH   2   3
ATOM      3  N   UNL     1       0.711  -0.489   1.189  0.00  0.00    -0.324 N 
ATOM      4  C   UNL     1       0.334  -0.236   2.490  0.00  0.00    +0.051 A 
ATOM      5  C   UNL     1      -0.724   0.483   3.043  0.00  0.00    +0.026 A 
ATOM      6  C   UNL     1      -0.856   0.568   4.411  0.00  0.00    +0.002 A 
ATOM      7  C   UNL     1       0.058  -0.055   5.249  0.00  0.00    +0.001 A 
ATOM      8  C   UNL     1       1.103  -0.765   4.728  0.00  0.00    +0.010 A 
ATOM      9  C   UNL     1       1.255  -0.865   3.345  0.00  0.00    +0.009 A 
ATOM     10  C   UNL     1       2.236  -1.531   2.477  0.00  0.00    +0.033 A 
ATOM     11  C   UNL     1       1.846  -1.269   1.164  0.00  0.00    +0.119 A 
ATOM     12  C   UNL     1       2.623  -1.805   0.109  0.00  0.00    +0.291 A 
ATOM     13  O   UNL     1       2.314  -1.593  -1.052  0.00  0.00    -0.264 OA
ATOM     14  N   UNL     1       3.708  -2.550   0.400  0.00  0.00    -0.231 N 
ATOM     15  N   UNL     1       4.073  -2.799   1.727  0.00  0.00    -0.176 NA
ATOM     16  C   UNL     1       3.384  -2.314   2.722  0.00  0.00    +0.143 A 
ATOM     17  C   UNL     1       4.515  -3.107  -0.688  0.00  0.00    +0.176 C 
ENDBRANCH   2   3
BRANCH   2  18
ATOM     18  C   UNL     1      -1.412  -0.526   0.013  0.00  0.00    +0.236 C 
ATOM     19  O   UNL     1      -1.790  -1.233   0.922  0.00  0.00    -0.274 OA
ATOM     20  N   UNL     1      -2.256  -0.206  -0.988  0.00  0.00    -0.315 N 
ATOM     21  H   UNL     1      -1.953   0.360  -1.716  0.00  0.00    +0.149 HD
BRANCH  20  22
ATOM     22  C   UNL     1      -3.630  -0.713  -0.978  0.00  0.00    +0.086 C 
BRANCH  22  23
ATOM     23  C   UNL     1      -4.370  -0.206  -2.217  0.00  0.00    -0.060 C 
BRANCH  23  24
ATOM     24  N   UNL     1      -5.748  -0.715  -2.207  0.00  0.00    +0.382 N 
ATOM     25  C   UNL     1      -6.472  -0.145  -1.062  0.00  0.00    -0.096 C 
ATOM     26  H   UNL     1      -5.735  -1.721  -2.130  0.00  0.00    -0.082 HD
BRANCH  24  27
ATOM     27  C   UNL     1      -6.422  -0.328  -3.454  0.00  0.00    -0.043 C 
BRANCH  27  28
ATOM     28  C   UNL     1      -7.793  -0.953  -3.498  0.00  0.00    -0.064 A 
ATOM     29  C   UNL     1      -7.965  -2.204  -4.058  0.00  0.00    +0.002 A 
ATOM     30  C   UNL     1      -9.222  -2.777  -4.099  0.00  0.00    +0.000 A 
ATOM     31  C   UNL     1     -10.308  -2.098  -3.579  0.00  0.00    +0.000 A 
ATOM     32  C   UNL     1     -10.136  -0.846  -3.018  0.00  0.00    +0.000 A 
ATOM     33  C   UNL     1      -8.878  -0.275  -2.973  0.00  0.00    +0.002 A 
ENDBRANCH  27  28
ENDBRANCH  24  27
ENDBRANCH  23  24
ENDBRANCH  22  23
ENDBRANCH  20  22
ENDBRANCH   2  18
TORSDOF 7
