REMARK  Name = ZINC32944220
REMARK  10 active torsions:
REMARK  status: ('A' for Active; 'I' for Inactive)
REMARK    1  A    between atoms: C_1  and  C_2
REMARK    2  A    between atoms: C_4  and  C_37
REMARK    3  A    between atoms: C_5  and  C_9
REMARK    4  A    between atoms: C_6  and  C_8
REMARK    5  A    between atoms: C_10  and  C_11
REMARK    6  A    between atoms: C_12  and  S_17
REMARK    7  A    between atoms: C_13  and  C_16
REMARK    8  A    between atoms: S_17  and  N_20
REMARK    9  A    between atoms: C_24  and  C_27
REMARK   10  A    between atoms: N_29  and  C_30
REMARK                            x       y       z     vdW  Elec       q    Type
REMARK                         _______ _______ _______ _____ _____    ______ ____
ROOT
ATOM      1  S   UNL     1      -4.084   7.575  -0.356  0.00  0.00    +0.066 S 
ATOM      2  O   UNL     1      -3.423   7.407  -1.602  0.00  0.00    -0.153 OA
ATOM      3  O   UNL     1      -5.499   7.638  -0.246  0.00  0.00    -0.153 OA
ENDROOT
BRANCH   1   5
ATOM      4  C   UNL     1      -2.255   9.679   0.100  0.00  0.00    +0.187 A 
ATOM      5  C   UNL     1      -3.458   9.063   0.350  0.00  0.00    +0.174 A 
ATOM      6  C   UNL     1      -4.076   9.903   1.296  0.00  0.00    +0.107 A 
ATOM      7  N   UNL     1      -3.246  10.880   1.528  0.00  0.00    -0.081 NA
ATOM      8  O   UNL     1      -2.233  10.780   0.875  0.00  0.00    -0.353 OA
ATOM      9  C   UNL     1      -5.433   9.707   1.923  0.00  0.00    +0.071 C 
BRANCH   4  11
ATOM     10  C   UNL     1      -0.077   9.945  -0.958  0.00  0.00    +0.012 C 
ATOM     11  C   UNL     1      -1.208   9.228  -0.822  0.00  0.00    +0.051 C 
BRANCH  10  16
ATOM     12  C   UNL     1       4.028   8.177  -4.574  0.00  0.00    +0.044 C 
ATOM     13  C   UNL     1       2.953   8.640  -3.626  0.00  0.00    -0.050 A 
ATOM     14  C   UNL     1       2.503   9.948  -3.681  0.00  0.00    +0.007 A 
ATOM     15  C   UNL     1       1.519  10.380  -2.817  0.00  0.00    -0.043 A 
ATOM     16  C   UNL     1       0.975   9.492  -1.884  0.00  0.00    -0.019 A 
ATOM     17  C   UNL     1       1.438   8.174  -1.831  0.00  0.00    -0.043 A 
ATOM     18  C   UNL     1       2.419   7.756  -2.705  0.00  0.00    +0.007 A 
ATOM     19  C   UNL     1       0.863   7.211  -0.824  0.00  0.00    +0.044 C 
ATOM     20  C   UNL     1       1.031  11.804  -2.879  0.00  0.00    +0.044 C 
ENDBRANCH  10  16
ENDBRANCH   4  11
ENDBRANCH   1   5
BRANCH   1  21
ATOM     21  N   UNL     1      -3.589   6.327   0.615  0.00  0.00    -0.176 NA
ATOM     22  C   UNL     1      -4.420   5.880   1.741  0.00  0.00    +0.109 C 
ATOM     23  C   UNL     1      -4.654   4.372   1.613  0.00  0.00    +0.018 C 
ATOM     24  C   UNL     1      -3.305   3.658   1.504  0.00  0.00    +0.015 C 
ATOM     25  C   UNL     1      -2.570   4.140   0.252  0.00  0.00    +0.091 C 
ATOM     26  C   UNL     1      -2.312   5.646   0.365  0.00  0.00    +0.122 C 
BRANCH  25  27
ATOM     27  C   UNL     1      -1.256   3.412   0.128  0.00  0.00    +0.222 C 
ATOM     28  O   UNL     1      -0.216   4.035   0.127  0.00  0.00    -0.275 OA
ATOM     29  N   UNL     1      -1.238   2.069   0.019  0.00  0.00    -0.285 N 
ATOM     30  H   UNL     1      -2.182   1.511  -0.067  0.00  0.00    +0.155 HD
BRANCH  29  31
ATOM     31  C   UNL     1      -0.017   1.384   0.016  0.00  0.00    +0.033 A 
ATOM     32  C   UNL     1       0.126   0.222  -0.732  0.00  0.00    +0.025 A 
ATOM     33  C   UNL     1       1.330  -0.455  -0.729  0.00  0.00    +0.022 A 
ATOM     34  C   UNL     1       2.393   0.023   0.018  0.00  0.00    +0.041 A 
ATOM     35  C   UNL     1       2.252   1.181   0.763  0.00  0.00    +0.022 A 
ATOM     36  C   UNL     1       1.051   1.862   0.764  0.00  0.00    +0.025 A 
ATOM     37 CL   UNL     1       3.904  -0.831   0.019  0.00  0.00    -0.084 Cl
ENDBRANCH  29  31
ENDBRANCH  25  27
ENDBRANCH   1  21
TORSDOF 6
