REMARK  Name = ZINC00617612
REMARK  4 active torsions:
REMARK  status: ('A' for Active; 'I' for Inactive)
REMARK    1  A    between atoms: C_1  and  C_2
REMARK    2  A    between atoms: C_2  and  C_3
REMARK    3  A    between atoms: C_6  and  C_9
REMARK    4  A    between atoms: C_12  and  C_20
REMARK                            x       y       z     vdW  Elec       q    Type
REMARK                         _______ _______ _______ _____ _____    ______ ____
ROOT
ATOM      1  C   UNL     1      -5.419  -2.005   0.043  0.00  0.00    +0.143 C 
ATOM      2  C   UNL     1      -6.340  -1.011  -0.676  0.00  0.00    +0.059 C 
ATOM      3  C   UNL     1      -7.712  -1.654  -0.911  0.00  0.00    +0.107 C 
ATOM      4  N   UNL     1      -7.538  -2.825  -1.792  0.00  0.00    -0.307 N 
ATOM      5  C   UNL     1      -6.462  -3.654  -1.506  0.00  0.00    +0.215 A 
ATOM      6  N   UNL     1      -5.472  -3.290  -0.653  0.00  0.00    -0.226 N 
ATOM      7  N   UNL     1      -4.575  -4.358  -0.603  0.00  0.00    -0.156 NA
ATOM      8  C   UNL     1      -5.046  -5.285  -1.399  0.00  0.00    +0.247 A 
ATOM      9  N   UNL     1      -6.192  -4.852  -1.950  0.00  0.00    -0.202 NA
ATOM     10  H   UNL     1      -8.143  -3.006  -2.529  0.00  0.00    +0.149 HD
ENDROOT
BRANCH   3  11
ATOM     11  C   UNL     1      -8.299  -2.090   0.406  0.00  0.00    -0.009 A 
ATOM     12  C   UNL     1      -8.128  -3.390   0.843  0.00  0.00    +0.007 A 
ATOM     13  C   UNL     1      -8.666  -3.790   2.051  0.00  0.00    +0.000 A 
ATOM     14  C   UNL     1      -9.376  -2.890   2.824  0.00  0.00    +0.001 A 
ATOM     15  C   UNL     1      -9.548  -1.589   2.389  0.00  0.00    +0.020 A 
ATOM     16  C   UNL     1      -9.004  -1.187   1.182  0.00  0.00    +0.046 A 
ATOM     17 CL   UNL     1      -9.213   0.448   0.637  0.00  0.00    -0.083 Cl
ENDBRANCH   3  11
BRANCH   1  21
ATOM     18  C   UNL     1      -1.412  -0.526   0.013  0.00  0.00    -0.048 A 
ATOM     19  C   UNL     1      -2.051  -0.766   1.215  0.00  0.00    +0.004 A 
ATOM     20  C   UNL     1      -3.348  -1.244   1.225  0.00  0.00    +0.006 A 
ATOM     21  C   UNL     1      -4.006  -1.482   0.032  0.00  0.00    -0.023 A 
ATOM     22  C   UNL     1      -3.367  -1.241  -1.170  0.00  0.00    +0.006 A 
ATOM     23  C   UNL     1      -2.072  -0.758  -1.179  0.00  0.00    +0.004 A 
BRANCH  18  25
ATOM     24  C   UNL     1      -0.019   1.526   0.010  0.00  0.00    +0.009 C 
ATOM     25  C   UNL     1       0.002  -0.004   0.002  0.00  0.00    +0.032 C 
ENDBRANCH  18  25
ENDBRANCH   1  21
TORSDOF 3
