REMARK  Name = ZINC07884043
REMARK  7 active torsions:
REMARK  status: ('A' for Active; 'I' for Inactive)
REMARK    1  A    between atoms: C_1  and  C_2
REMARK    2  A    between atoms: C_2  and  O_3
REMARK    3  A    between atoms: O_3  and  C_4
REMARK    4  A    between atoms: C_7  and  N_10
REMARK    5  A    between atoms: C_11  and  C_22
REMARK    6  A    between atoms: C_25  and  O_29
REMARK    7  A    between atoms: C_26  and  O_28
REMARK                            x       y       z     vdW  Elec       q    Type
REMARK                         _______ _______ _______ _____ _____    ______ ____
ROOT
ATOM      1  N   UNL     1      -1.180  -2.126  -0.192  0.00  0.00    -0.244 N 
ATOM      2  C   UNL     1       0.053  -2.763  -0.656  0.00  0.00    +0.198 C 
ATOM      3  N   UNL     1       1.221  -2.099  -0.064  0.00  0.00    -0.321 N 
ATOM      4  C   UNL     1       1.247  -0.710  -0.014  0.00  0.00    +0.041 A 
ATOM      5  C   UNL     1       2.437  -0.003  -0.030  0.00  0.00    +0.024 A 
ATOM      6  C   UNL     1       2.414   1.377   0.037  0.00  0.00    +0.002 A 
ATOM      7  C   UNL     1       1.210   2.058   0.120  0.00  0.00    +0.001 A 
ATOM      8  C   UNL     1       0.015   1.369   0.132  0.00  0.00    +0.015 A 
ATOM      9  C   UNL     1       0.023  -0.022   0.061  0.00  0.00    +0.058 A 
ATOM     10  C   UNL     1      -1.225  -0.805   0.073  0.00  0.00    +0.254 C 
ATOM     11  O   UNL     1      -2.286  -0.265   0.318  0.00  0.00    -0.270 OA
ATOM     12  H   UNL     1       1.961  -2.620   0.285  0.00  0.00    +0.148 HD
ENDROOT
BRANCH   1  16
ATOM     13  C   UNL     1      -4.612  -4.437   0.321  0.00  0.00    +0.121 A 
ATOM     14  C   UNL     1      -3.454  -4.752   1.016  0.00  0.00    +0.047 A 
ATOM     15  C   UNL     1      -2.317  -3.988   0.846  0.00  0.00    +0.027 A 
ATOM     16  C   UNL     1      -2.333  -2.903  -0.020  0.00  0.00    +0.039 A 
ATOM     17  C   UNL     1      -3.494  -2.584  -0.711  0.00  0.00    +0.027 A 
ATOM     18  C   UNL     1      -4.629  -3.353  -0.545  0.00  0.00    +0.047 A 
BRANCH  13  19
ATOM     19  O   UNL     1      -5.731  -5.191   0.488  0.00  0.00    -0.492 OA
BRANCH  19  21
ATOM     20  C   UNL     1      -8.039  -5.767   0.057  0.00  0.00    +0.048 C 
ATOM     21  C   UNL     1      -6.888  -4.809  -0.260  0.00  0.00    +0.225 C 
ENDBRANCH  19  21
ENDBRANCH  13  19
ENDBRANCH   1  16
BRANCH   2  22
ATOM     22  C   UNL     1       0.131  -2.665  -2.158  0.00  0.00    -0.005 A 
ATOM     23  C   UNL     1      -1.030  -2.625  -2.907  0.00  0.00    +0.011 A 
ATOM     24  C   UNL     1      -0.964  -2.534  -4.285  0.00  0.00    +0.049 A 
ATOM     25  C   UNL     1       0.268  -2.485  -4.918  0.00  0.00    +0.158 A 
ATOM     26  C   UNL     1       1.437  -2.526  -4.163  0.00  0.00    +0.159 A 
ATOM     27  C   UNL     1       1.363  -2.611  -2.782  0.00  0.00    +0.056 A 
BRANCH  26  28
ATOM     28  O   UNL     1       2.648  -2.477  -4.780  0.00  0.00    -0.503 OA
ATOM     29  H   UNL     1       2.992  -1.582  -4.900  0.00  0.00    +0.292 HD
ENDBRANCH  26  28
BRANCH  25  30
ATOM     30  O   UNL     1       0.335  -2.396  -6.273  0.00  0.00    -0.503 OA
ATOM     31  H   UNL     1       0.348  -1.489  -6.608  0.00  0.00    +0.292 HD
ENDBRANCH  25  30
ENDBRANCH   2  22
TORSDOF 6
