REMARK  Name = ZINC20355158
REMARK  12 active torsions:
REMARK  status: ('A' for Active; 'I' for Inactive)
REMARK    1  A    between atoms: C_1  and  C_2
REMARK    2  A    between atoms: C_5  and  C_36
REMARK    3  A    between atoms: C_6  and  C_8
REMARK    4  A    between atoms: C_8  and  N_9
REMARK    5  A    between atoms: C_18  and  C_19
REMARK    6  A    between atoms: C_22  and  C_25
REMARK    7  A    between atoms: N_27  and  C_28
REMARK    8  A    between atoms: C_28  and  C_29
REMARK    9  A    between atoms: C_29  and  O_30
REMARK   10  A    between atoms: C_29  and  O_32
REMARK   11  A    between atoms: O_30  and  C_31
REMARK   12  A    between atoms: O_32  and  C_33
REMARK                            x       y       z     vdW  Elec       q    Type
REMARK                         _______ _______ _______ _____ _____    ______ ____
ROOT
ATOM      1  N   UNL     1      -3.638  -0.392  -1.702  0.00  0.00    -0.262 N 
ATOM      2  C   UNL     1      -3.281  -1.386  -2.602  0.00  0.00    +0.051 A 
ATOM      3  C   UNL     1      -2.850  -2.614  -2.100  0.00  0.00    +0.024 A 
ATOM      4  C   UNL     1      -2.486  -3.631  -2.957  0.00  0.00    +0.002 A 
ATOM      5  C   UNL     1      -2.544  -3.449  -4.328  0.00  0.00    +0.001 A 
ATOM      6  C   UNL     1      -2.968  -2.239  -4.843  0.00  0.00    +0.017 A 
ATOM      7  C   UNL     1      -3.333  -1.212  -3.986  0.00  0.00    +0.034 A 
ATOM      8  S   UNL     1      -3.870   0.337  -4.645  0.00  0.00    -0.082 S 
ATOM      9  C   UNL     1      -4.888   0.945  -3.326  0.00  0.00    +0.076 C 
ATOM     10  C   UNL     1      -6.041   1.621  -3.562  0.00  0.00    +0.028 C 
ATOM     11  C   UNL     1      -4.410   0.669  -1.950  0.00  0.00    +0.258 C 
ATOM     12  O   UNL     1      -4.720   1.416  -1.042  0.00  0.00    -0.269 OA
ENDROOT
BRANCH  10  13
ATOM     13  C   UNL     1      -6.400   2.005  -4.932  0.00  0.00    -0.024 A 
ATOM     14  C   UNL     1      -5.396   2.304  -5.862  0.00  0.00    +0.009 A 
ATOM     15  C   UNL     1      -5.730   2.655  -7.138  0.00  0.00    +0.013 A 
ATOM     16  C   UNL     1      -7.076   2.727  -7.514  0.00  0.00    +0.037 A 
ATOM     17  C   UNL     1      -8.079   2.434  -6.585  0.00  0.00    +0.013 A 
ATOM     18  C   UNL     1      -7.747   2.077  -5.310  0.00  0.00    +0.009 A 
BRANCH  16  19
ATOM     19  C   UNL     1      -7.436   3.112  -8.892  0.00  0.00    +0.244 C 
ATOM     20  O   UNL     1      -8.606   3.175  -9.220  0.00  0.00    -0.270 OA
ATOM     21  N   UNL     1      -6.470   3.395  -9.788  0.00  0.00    -0.307 N 
ATOM     22  H   UNL     1      -5.412   3.338  -9.492  0.00  0.00    +0.149 HD
BRANCH  21  23
ATOM     23  C   UNL     1      -6.828   3.777 -11.156  0.00  0.00    +0.165 C 
BRANCH  23  24
ATOM     24  C   UNL     1      -5.554   4.042 -11.961  0.00  0.00    +0.266 C 
BRANCH  24  25
ATOM     25  O   UNL     1      -4.815   5.101 -11.349  0.00  0.00    -0.353 OA
ATOM     26  C   UNL     1      -3.958   5.807 -12.248  0.00  0.00    +0.197 C 
ENDBRANCH  24  25
BRANCH  24  27
ATOM     27  O   UNL     1      -4.755   2.858 -11.992  0.00  0.00    -0.353 OA
ATOM     28  C   UNL     1      -3.619   2.946 -12.855  0.00  0.00    +0.197 C 
ENDBRANCH  24  27
ENDBRANCH  23  24
ENDBRANCH  21  23
ENDBRANCH  16  19
ENDBRANCH  10  13
BRANCH   1  29
ATOM     29  C   UNL     1      -3.120  -0.523  -0.337  0.00  0.00    +0.149 C 
BRANCH  29  35
ATOM     30  C   UNL     1      -7.468  -2.963   0.099  0.00  0.00    +0.044 C 
ATOM     31  C   UNL     1      -6.199  -2.436   0.719  0.00  0.00    -0.050 A 
ATOM     32  C   UNL     1      -5.950  -2.639   2.063  0.00  0.00    +0.003 A 
ATOM     33  C   UNL     1      -4.787  -2.155   2.631  0.00  0.00    +0.004 A 
ATOM     34  C   UNL     1      -3.872  -1.468   1.855  0.00  0.00    -0.046 A 
ATOM     35  C   UNL     1      -4.119  -1.268   0.510  0.00  0.00    -0.027 A 
ATOM     36  C   UNL     1      -5.285  -1.748  -0.057  0.00  0.00    +0.008 A 
ATOM     37  C   UNL     1      -2.604  -0.940   2.474  0.00  0.00    +0.044 C 
ENDBRANCH  29  35
ENDBRANCH   1  29
TORSDOF 8
