REMARK  Name = ZINC59507494
REMARK  9 active torsions:
REMARK  status: ('A' for Active; 'I' for Inactive)
REMARK    1  A    between atoms: C_4  and  C_7
REMARK    2  A    between atoms: C_7  and  C_26
REMARK    3  A    between atoms: N_8  and  N_9
REMARK    4  A    between atoms: C_10  and  C_12
REMARK    5  A    between atoms: C_12  and  N_13
REMARK    6  A    between atoms: N_13  and  C_14
REMARK    7  A    between atoms: C_18  and  N_20
REMARK    8  A    between atoms: C_27  and  C_28
REMARK    9  A    between atoms: C_31  and  N_34
REMARK                            x       y       z     vdW  Elec       q    Type
REMARK                         _______ _______ _______ _____ _____    ______ ____
ROOT
ATOM      1  C   UNL     1       3.115  -1.087  -0.083  0.00  0.00    +0.089 C 
ATOM      2  N   UNL     1       4.191  -0.259  -0.152  0.00  0.00    -0.180 NA
ENDROOT
BRANCH   1   6
ATOM      3  C   UNL     1      -0.795   0.464  -0.644  0.00  0.00    +0.000 A 
ATOM      4  C   UNL     1       0.299   1.312  -0.714  0.00  0.00    +0.001 A 
ATOM      5  C   UNL     1       1.571   0.817  -0.533  0.00  0.00    +0.010 A 
ATOM      6  C   UNL     1       1.758  -0.548  -0.278  0.00  0.00    +0.002 A 
ATOM      7  C   UNL     1       0.646  -1.399  -0.208  0.00  0.00    +0.010 A 
ATOM      8  C   UNL     1      -0.620  -0.887  -0.392  0.00  0.00    +0.001 A 
ENDBRANCH   1   6
BRANCH   2   9
ATOM      9  N   UNL     1       5.384  -0.750  -0.146  0.00  0.00    -0.205 N 
ATOM     10  C   UNL     1       6.451   0.071  -0.205  0.00  0.00    +0.249 C 
ATOM     11  O   UNL     1       6.290   1.268  -0.262  0.00  0.00    -0.272 OA
ATOM     12  H   UNL     1       5.513  -1.710  -0.100  0.00  0.00    +0.177 HD
BRANCH  10  13
ATOM     13  C   UNL     1       7.845  -0.502  -0.198  0.00  0.00    +0.199 C 
BRANCH  13  14
ATOM     14  N   UNL     1       8.821   0.588  -0.269  0.00  0.00    -0.335 N 
ATOM     15  H   UNL     1       8.519   1.508  -0.310  0.00  0.00    +0.147 HD
BRANCH  14  16
ATOM     16  C   UNL     1      10.188   0.301  -0.276  0.00  0.00    +0.029 A 
ATOM     17  C   UNL     1      10.623  -1.018  -0.223  0.00  0.00    +0.023 A 
ATOM     18  C   UNL     1      11.975  -1.302  -0.230  0.00  0.00    +0.004 A 
ATOM     19  C   UNL     1      12.899  -0.277  -0.290  0.00  0.00    +0.023 A 
ATOM     20  C   UNL     1      12.471   1.043  -0.344  0.00  0.00    +0.038 A 
ATOM     21  C   UNL     1      11.114   1.332  -0.343  0.00  0.00    +0.046 A 
BRANCH  20  22
ATOM     22  N   UNL     1      13.408   2.081  -0.404  0.00  0.00    -0.271 N 
ATOM     23  C   UNL     1      14.860   1.893  -0.297  0.00  0.00    +0.114 C 
ATOM     24  C   UNL     1      15.485   3.195  -0.845  0.00  0.00    +0.029 C 
ATOM     25  C   UNL     1      14.352   4.218  -0.598  0.00  0.00    +0.098 C 
ATOM     26  C   UNL     1      13.095   3.377  -0.574  0.00  0.00    +0.220 C 
ATOM     27  O   UNL     1      11.967   3.810  -0.689  0.00  0.00    -0.275 OA
ENDBRANCH  20  22
ENDBRANCH  14  16
ENDBRANCH  13  14
ENDBRANCH  10  13
ENDBRANCH   2   9
BRANCH   1  28
ATOM     28  C   UNL     1       3.296  -2.444   0.171  0.00  0.00    +0.030 C 
ATOM     29  C   UNL     1       4.258  -2.861   1.101  0.00  0.00    +0.010 C 
BRANCH  29  30
ATOM     30  C   UNL     1       4.535  -4.234   1.261  0.00  0.00    -0.025 A 
ATOM     31  C   UNL     1       3.853  -5.193   0.482  0.00  0.00    +0.010 A 
ATOM     32  C   UNL     1       4.131  -6.519   0.646  0.00  0.00    +0.033 A 
ATOM     33  C   UNL     1       5.080  -6.926   1.574  0.00  0.00    +0.126 A 
ATOM     34  C   UNL     1       5.758  -5.992   2.346  0.00  0.00    +0.033 A 
ATOM     35  C   UNL     1       5.503  -4.660   2.196  0.00  0.00    +0.010 A 
BRANCH  33  36
ATOM     36  N   UNL     1       5.373  -8.374   1.742  0.00  0.00    +0.056 N 
ATOM     37  O   UNL     1       4.733  -9.265   1.014  0.00  0.00    -0.126 OA
ATOM     38  O   UNL     1       6.273  -8.766   2.621  0.00  0.00    -0.126 OA
ENDBRANCH  33  36
ENDBRANCH  29  30
ENDBRANCH   1  28
TORSDOF 9
