REMARK  Name = ZINC09169228
REMARK  9 active torsions:
REMARK  status: ('A' for Active; 'I' for Inactive)
REMARK    1  A    between atoms: C_1  and  C_2
REMARK    2  A    between atoms: C_2  and  C_28
REMARK    3  A    between atoms: C_7  and  N_14
REMARK    4  A    between atoms: N_14  and  S_15
REMARK    5  A    between atoms: S_15  and  C_18
REMARK    6  A    between atoms: C_18  and  C_19
REMARK    7  A    between atoms: C_19  and  C_20
REMARK    8  A    between atoms: C_23  and  O_26
REMARK    9  A    between atoms: O_26  and  C_27
REMARK                            x       y       z     vdW  Elec       q    Type
REMARK                         _______ _______ _______ _____ _____    ______ ____
ROOT
ATOM      1  C   UNL     1      -0.019   1.526   0.010  0.00  0.00    +0.024 C 
ATOM      2  C   UNL     1       0.002  -0.004   0.002  0.00  0.00    +0.076 C 
ATOM      3  C   UNL     1       0.611  -0.495  -1.310  0.00  0.00    +0.244 C 
ATOM      4  O   UNL     1      -0.323  -0.367  -2.374  0.00  0.00    -0.489 OA
ATOM      5  C   UNL     1      -1.036   0.788  -2.440  0.00  0.00    +0.143 A 
ATOM      6  C   UNL     1      -0.722   1.752  -3.383  0.00  0.00    +0.072 A 
ATOM      7  C   UNL     1      -1.450   2.934  -3.432  0.00  0.00    +0.051 A 
ATOM      8  C   UNL     1      -2.491   3.149  -2.539  0.00  0.00    +0.026 A 
ATOM      9  C   UNL     1      -2.808   2.186  -1.599  0.00  0.00    +0.029 A 
ATOM     10  C   UNL     1      -2.084   1.006  -1.548  0.00  0.00    +0.076 A 
ATOM     11  N   UNL     1      -2.396   0.018  -0.601  0.00  0.00    -0.282 N 
ATOM     12  C   UNL     1      -1.405  -0.524   0.143  0.00  0.00    +0.226 C 
ATOM     13  O   UNL     1      -1.648  -1.423   0.919  0.00  0.00    -0.275 OA
ATOM     14  C   UNL     1       0.848  -0.506   1.174  0.00  0.00    +0.024 C 
ATOM     15  H   UNL     1      -3.314  -0.274  -0.481  0.00  0.00    +0.155 HD
ENDROOT
BRANCH   7  16
ATOM     16  N   UNL     1      -1.133   3.909  -4.383  0.00  0.00    -0.221 N 
ATOM     17  H   UNL     1      -0.967   3.653  -5.304  0.00  0.00    +0.173 HD
BRANCH  16  18
ATOM     18  S   UNL     1      -1.044   5.502  -3.938  0.00  0.00    +0.043 S 
ATOM     19  O   UNL     1      -0.732   6.197  -5.138  0.00  0.00    -0.155 OA
ATOM     20  O   UNL     1      -2.261   5.755  -3.249  0.00  0.00    -0.155 OA
BRANCH  18  21
ATOM     21  C   UNL     1       0.355   5.586  -2.786  0.00  0.00    +0.193 C 
BRANCH  21  22
ATOM     22  C   UNL     1       0.533   7.027  -2.304  0.00  0.00    +0.059 C 
BRANCH  22  23
ATOM     23  C   UNL     1       1.695   7.097  -1.347  0.00  0.00    -0.046 A 
ATOM     24  C   UNL     1       1.485   6.920   0.008  0.00  0.00    +0.007 A 
ATOM     25  C   UNL     1       2.550   6.978   0.886  0.00  0.00    +0.046 A 
ATOM     26  C   UNL     1       3.829   7.225   0.409  0.00  0.00    +0.120 A 
ATOM     27  C   UNL     1       4.036   7.408  -0.950  0.00  0.00    +0.046 A 
ATOM     28  C   UNL     1       2.969   7.343  -1.825  0.00  0.00    +0.007 A 
BRANCH  26  29
ATOM     29  O   UNL     1       4.877   7.287   1.272  0.00  0.00    -0.495 OA
ATOM     30  C   UNL     1       4.589   7.089   2.658  0.00  0.00    +0.277 C 
ENDBRANCH  26  29
ENDBRANCH  22  23
ENDBRANCH  21  22
ENDBRANCH  18  21
ENDBRANCH  16  18
ENDBRANCH   7  16
TORSDOF 6
