REMARK  Name = ZINC40270313
REMARK  5 active torsions:
REMARK  status: ('A' for Active; 'I' for Inactive)
REMARK    1  A    between atoms: C_1  and  C_2
REMARK    2  A    between atoms: C_2  and  C_3
REMARK    3  A    between atoms: C_3  and  C_5
REMARK    4  A    between atoms: C_3  and  C_11
REMARK    5  A    between atoms: C_11  and  C_13
REMARK                            x       y       z     vdW  Elec       q    Type
REMARK                         _______ _______ _______ _____ _____    ______ ____
ROOT
ATOM      1  C   UNL     1      -3.836  -0.258  -0.537  0.00  0.00    -0.027 A 
ATOM      2  C   UNL     1      -4.291  -1.556  -0.384  0.00  0.00    +0.007 A 
ATOM      3  C   UNL     1      -5.576  -1.796   0.059  0.00  0.00    +0.028 A 
ATOM      4  C   UNL     1      -6.415  -0.732   0.352  0.00  0.00    +0.067 A 
ATOM      5  C   UNL     1      -5.956   0.578   0.198  0.00  0.00    +0.067 A 
ATOM      6  C   UNL     1      -4.662   0.809  -0.242  0.00  0.00    +0.033 A 
ATOM      7  N   UNL     1      -7.005   1.418   0.564  0.00  0.00    -0.306 N 
ATOM      8  H   UNL     1      -6.984   2.388   0.560  0.00  0.00    +0.170 HD
ATOM      9  C   UNL     1      -8.054   0.654   0.924  0.00  0.00    +0.325 A 
ATOM     10  O   UNL     1      -9.133   1.076   1.298  0.00  0.00    -0.247 OA
ATOM     11  N   UNL     1      -7.729  -0.647   0.807  0.00  0.00    -0.306 N 
ATOM     12  H   UNL     1      -8.310  -1.397   1.006  0.00  0.00    +0.170 HD
ENDROOT
BRANCH   1  13
ATOM     13  C   UNL     1      -2.431  -0.007  -1.021  0.00  0.00    +0.118 C 
ATOM     14 CL   UNL     1      -2.175  -0.858  -2.590  0.00  0.00    -0.116 Cl
BRANCH  13  15
ATOM     15  C   UNL     1      -1.433  -0.534   0.013  0.00  0.00    +0.041 C 
BRANCH  15  16
ATOM     16  C   UNL     1      -1.554  -2.033   0.110  0.00  0.00    -0.043 A 
ATOM     17  C   UNL     1      -1.101  -2.831  -0.923  0.00  0.00    +0.004 A 
ATOM     18  C   UNL     1      -1.212  -4.206  -0.834  0.00  0.00    +0.000 A 
ATOM     19  C   UNL     1      -1.776  -4.783   0.288  0.00  0.00    +0.000 A 
ATOM     20  C   UNL     1      -2.229  -3.984   1.322  0.00  0.00    +0.000 A 
ATOM     21  C   UNL     1      -2.114  -2.609   1.235  0.00  0.00    +0.004 A 
ENDBRANCH  15  16
BRANCH  15  23
ATOM     22  C   UNL     1       0.148   1.358  -0.393  0.00  0.00    +0.004 C 
ATOM     23  C   UNL     1      -0.012  -0.164  -0.415  0.00  0.00    +0.006 C 
ENDBRANCH  15  23
ENDBRANCH  13  15
ENDBRANCH   1  13
TORSDOF 4
