REMARK  Name = ZINC45166073
REMARK  4 active torsions:
REMARK  status: ('A' for Active; 'I' for Inactive)
REMARK    1  A    between atoms: C_1  and  C_2
REMARK    2  A    between atoms: N_8  and  S_9
REMARK    3  A    between atoms: S_9  and  C_12
REMARK    4  A    between atoms: C_13  and  N_19
REMARK                            x       y       z     vdW  Elec       q    Type
REMARK                         _______ _______ _______ _____ _____    ______ ____
ROOT
ATOM      1  S   UNL     1       0.058  -4.831   2.124  0.00  0.00    +0.104 S 
ATOM      2  O   UNL     1      -1.249  -5.147   1.664  0.00  0.00    -0.146 OA
ATOM      3  O   UNL     1       1.225  -5.427   1.574  0.00  0.00    -0.146 OA
ENDROOT
BRANCH   1  11
ATOM      4  C   UNL     1       0.581   0.766  -0.834  0.00  0.00    +0.044 C 
ATOM      5  C   UNL     1       0.421  -0.721  -0.649  0.00  0.00    -0.046 A 
ATOM      6  C   UNL     1       0.286  -1.561  -1.768  0.00  0.00    +0.021 A 
ATOM      7  C   UNL     1       0.142  -2.894  -1.608  0.00  0.00    +0.084 A 
ATOM      8  N   UNL     1       0.124  -3.448  -0.363  0.00  0.00    -0.345 N 
ATOM      9  C   UNL     1       0.254  -2.655   0.751  0.00  0.00    +0.153 A 
ATOM     10  C   UNL     1       0.411  -1.257   0.599  0.00  0.00    +0.051 A 
ATOM     11  N   UNL     1       0.237  -3.193   1.953  0.00  0.00    -0.111 NA
ATOM     12  H   UNL     1       0.020  -4.407  -0.264  0.00  0.00    +0.167 HD
ENDBRANCH   1  11
BRANCH   1  13
ATOM     13  C   UNL     1       0.081  -5.179   3.852  0.00  0.00    +0.151 A 
ATOM     14  C   UNL     1       1.292  -5.311   4.518  0.00  0.00    +0.053 A 
ATOM     15  C   UNL     1       1.306  -5.586   5.880  0.00  0.00    +0.025 A 
ATOM     16  C   UNL     1       0.116  -5.727   6.567  0.00  0.00    +0.003 A 
ATOM     17  C   UNL     1      -1.089  -5.596   5.901  0.00  0.00    +0.022 A 
ATOM     18  C   UNL     1      -1.106  -5.316   4.546  0.00  0.00    +0.070 A 
ATOM     19 CL   UNL     1      -2.621  -5.143   3.715  0.00  0.00    -0.081 Cl
BRANCH  14  20
ATOM     20  N   UNL     1       2.494  -5.169   3.821  0.00  0.00    -0.356 N 
ATOM     21  H   UNL     1       2.494  -4.792   2.927  0.00  0.00    +0.142 HD
ATOM     22  H   UNL     1       3.328  -5.447   4.231  0.00  0.00    +0.142 HD
ENDBRANCH  14  20
ENDBRANCH   1  13
TORSDOF 3
