REMARK  Name = ZINC30150817
REMARK  8 active torsions:
REMARK  status: ('A' for Active; 'I' for Inactive)
REMARK    1  A    between atoms: C_1  and  C_2
REMARK    2  A    between atoms: C_5  and  C_7
REMARK    3  A    between atoms: C_10  and  C_12
REMARK    4  A    between atoms: C_12  and  N_13
REMARK    5  A    between atoms: N_13  and  C_14
REMARK    6  A    between atoms: N_13  and  C_23
REMARK    7  A    between atoms: C_14  and  C_15
REMARK    8  A    between atoms: C_18  and  C_21
REMARK                            x       y       z     vdW  Elec       q    Type
REMARK                         _______ _______ _______ _____ _____    ______ ____
ROOT
ATOM      1  N   UNL     1       1.263  -6.247   0.854  0.00  0.00    +0.389 N 
ATOM      2  H   UNL     1       0.441  -5.854   1.287  0.00  0.00    -0.080 HD
ENDROOT
BRANCH   1   3
ATOM      3  C   UNL     1       2.371  -6.247   1.819  0.00  0.00    -0.068 C 
ATOM      4  C   UNL     1       2.028  -5.997   3.289  0.00  0.00    -0.017 C 
ATOM      5  C   UNL     1       2.737  -4.913   2.474  0.00  0.00    -0.017 C 
ENDBRANCH   1   3
BRANCH   1   6
ATOM      6  C   UNL     1       1.633  -5.442  -0.317  0.00  0.00    -0.002 C 
BRANCH   6  10
ATOM      7  C   UNL     1      -0.942  -5.712  -2.892  0.00  0.00    +0.108 A 
ATOM      8  C   UNL     1      -1.436  -4.667  -2.204  0.00  0.00    +0.045 A 
ATOM      9  C   UNL     1      -0.541  -4.418  -1.139  0.00  0.00    +0.043 A 
ATOM     10  C   UNL     1       0.448  -5.324  -1.240  0.00  0.00    +0.089 A 
ATOM     11  O   UNL     1       0.197  -6.109  -2.301  0.00  0.00    -0.466 OA
BRANCH   7  15
ATOM     12  C   UNL     1      -1.484  -6.169  -6.726  0.00  0.00    +0.008 C 
ATOM     13  C   UNL     1      -0.735  -6.340  -5.403  0.00  0.00    -0.003 C 
ATOM     14  C   UNL     1      -0.955  -7.642  -4.630  0.00  0.00    +0.015 C 
ATOM     15  C   UNL     1      -1.563  -6.334  -4.116  0.00  0.00    +0.058 C 
ENDBRANCH   7  15
ENDBRANCH   6  10
ENDBRANCH   1   6
BRANCH   1  16
ATOM     16  C   UNL     1       0.982  -7.626   0.432  0.00  0.00    -0.042 C 
BRANCH  16  17
ATOM     17  C   UNL     1       0.484  -8.421   1.612  0.00  0.00    -0.064 A 
ATOM     18  C   UNL     1       1.386  -9.091   2.420  0.00  0.00    +0.003 A 
ATOM     19  C   UNL     1       0.937  -9.821   3.501  0.00  0.00    +0.019 A 
ATOM     20  C   UNL     1      -0.430  -9.882   3.780  0.00  0.00    +0.052 A 
ATOM     21  C   UNL     1      -1.334  -9.203   2.960  0.00  0.00    +0.019 A 
ATOM     22  C   UNL     1      -0.871  -8.473   1.885  0.00  0.00    +0.003 A 
BRANCH  20  23
ATOM     23  C   UNL     1      -0.903 -10.637   4.900  0.00  0.00    +0.099 C 
ATOM     24  N   UNL     1      -1.278 -11.237   5.789  0.00  0.00    -0.191 NA
ENDBRANCH  20  23
ENDBRANCH  16  17
ENDBRANCH   1  16
TORSDOF 7
