REMARK  Name = ZINC13240307
REMARK  6 active torsions:
REMARK  status: ('A' for Active; 'I' for Inactive)
REMARK    1  A    between atoms: C_1  and  C_2
REMARK    2  A    between atoms: C_4  and  C_25
REMARK    3  A    between atoms: C_6  and  S_9
REMARK    4  A    between atoms: C_7  and  C_8
REMARK    5  A    between atoms: S_9  and  N_12
REMARK    6  A    between atoms: N_12  and  C_13
REMARK                            x       y       z     vdW  Elec       q    Type
REMARK                         _______ _______ _______ _____ _____    ______ ____
ROOT
ATOM      1  S   UNL     1       3.607   6.038  -0.025  0.00  0.00    +0.059 S 
ATOM      2  O   UNL     1       3.806   6.907   1.082  0.00  0.00    -0.153 OA
ATOM      3  O   UNL     1       4.219   4.759  -0.108  0.00  0.00    -0.153 OA
ENDROOT
BRANCH   1   9
ATOM      4  C   UNL     1      -1.298   7.836  -0.188  0.00  0.00    +0.044 C 
ATOM      5  C   UNL     1      -0.362   6.655  -0.222  0.00  0.00    -0.045 A 
ATOM      6  C   UNL     1      -0.870   5.378  -0.352  0.00  0.00    +0.018 A 
ATOM      7  C   UNL     1      -0.001   4.285  -0.382  0.00  0.00    +0.065 A 
ATOM      8  C   UNL     1       1.376   4.492  -0.275  0.00  0.00    +0.044 A 
ATOM      9  C   UNL     1       1.869   5.774  -0.152  0.00  0.00    +0.109 A 
ATOM     10  C   UNL     1       1.003   6.853  -0.122  0.00  0.00    -0.021 A 
ATOM     11  C   UNL     1       1.550   8.250   0.019  0.00  0.00    +0.046 C 
BRANCH   7  12
ATOM     12  C   UNL     1      -0.537   2.916  -0.521  0.00  0.00    +0.387 C 
ATOM     13  O   UNL     1       0.221   1.967  -0.548  0.00  0.00    -0.241 OA
ATOM     14  O   UNL     1      -1.866   2.719  -0.619  0.00  0.00    -0.241 OA
ENDBRANCH   7  12
ENDBRANCH   1   9
BRANCH   1  15
ATOM     15  N   UNL     1       4.075   6.876  -1.374  0.00  0.00    -0.182 NA
ATOM     16  H   UNL     1       4.434   7.773  -1.288  0.00  0.00    +0.149 HD
BRANCH  15  17
ATOM     17  C   UNL     1       3.946   6.263  -2.699  0.00  0.00    +0.108 C 
ATOM     18  C   UNL     1       2.991   7.100  -3.530  0.00  0.00    +0.036 C 
ATOM     19  C   UNL     1       2.802   6.434  -4.901  0.00  0.00    +0.076 C 
ATOM     20  S   UNL     1       4.348   6.669  -5.828  0.00  0.00    -0.122 S 
ATOM     21  C   UNL     1       5.596   6.266  -4.647  0.00  0.00    +0.048 A 
ATOM     22  C   UNL     1       5.314   6.130  -3.301  0.00  0.00    -0.013 A 
ATOM     23  C   UNL     1       6.357   5.848  -2.422  0.00  0.00    +0.006 A 
ATOM     24  C   UNL     1       7.648   5.693  -2.877  0.00  0.00    +0.003 A 
ATOM     25  C   UNL     1       7.927   5.814  -4.227  0.00  0.00    +0.039 A 
ATOM     26  C   UNL     1       6.904   6.099  -5.108  0.00  0.00    +0.137 A 
ATOM     27  F   UNL     1       7.169   6.218  -6.427  0.00  0.00    -0.204 F 
ENDBRANCH  15  17
ENDBRANCH   1  15
TORSDOF 4
