REMARK  Name = ZINC01479382
REMARK  8 active torsions:
REMARK  status: ('A' for Active; 'I' for Inactive)
REMARK    1  A    between atoms: C_1  and  C_2
REMARK    2  A    between atoms: C_5  and  N_8
REMARK    3  A    between atoms: C_9  and  C_27
REMARK    4  A    between atoms: C_12  and  S_13
REMARK    5  A    between atoms: S_13  and  C_14
REMARK    6  A    between atoms: C_14  and  C_15
REMARK    7  A    between atoms: N_17  and  N_18
REMARK    8  A    between atoms: C_19  and  C_20
REMARK                            x       y       z     vdW  Elec       q    Type
REMARK                         _______ _______ _______ _____ _____    ______ ____
ROOT
ATOM      1  N   UNL     1       6.491  11.820   0.000  0.00  0.00    -0.270 N 
ATOM      2  C   UNL     1       7.870  11.838  -0.007  0.00  0.00    +0.169 A 
ATOM      3  N   UNL     1       8.271  10.588  -0.018  0.00  0.00    -0.128 NA
ATOM      4  N   UNL     1       7.255   9.800  -0.013  0.00  0.00    -0.122 NA
ATOM      5  C   UNL     1       6.141  10.499   0.002  0.00  0.00    +0.197 A 
ENDROOT
BRANCH   1  10
ATOM      6  C   UNL     1       3.001  16.296   0.029  0.00  0.00    +0.044 C 
ATOM      7  C   UNL     1       3.928  15.107   0.021  0.00  0.00    -0.050 A 
ATOM      8  C   UNL     1       3.962  14.252   1.107  0.00  0.00    +0.005 A 
ATOM      9  C   UNL     1       4.810  13.162   1.103  0.00  0.00    +0.026 A 
ATOM     10  C   UNL     1       5.630  12.926   0.007  0.00  0.00    +0.051 A 
ATOM     11  C   UNL     1       5.598  13.790  -1.079  0.00  0.00    +0.026 A 
ATOM     12  C   UNL     1       4.744  14.875  -1.071  0.00  0.00    +0.005 A 
ENDBRANCH   1  10
BRANCH   2  13
ATOM     13  C   UNL     1       8.732  13.037  -0.008  0.00  0.00    +0.022 A 
ATOM     14  C   UNL     1       8.212  14.299   0.309  0.00  0.00    +0.031 A 
ATOM     15  C   UNL     1       9.055  15.390   0.301  0.00  0.00    +0.111 A 
ATOM     16  N   UNL     1      10.331  15.259  -0.010  0.00  0.00    -0.263 NA
ATOM     17  C   UNL     1      10.860  14.091  -0.320  0.00  0.00    +0.111 A 
ATOM     18  C   UNL     1      10.092  12.946  -0.331  0.00  0.00    +0.031 A 
ENDBRANCH   2  13
BRANCH   5  19
ATOM     19  S   UNL     1       4.502   9.852   0.013  0.00  0.00    -0.076 S 
BRANCH  19  20
ATOM     20  C   UNL     1       4.863   8.079   0.001  0.00  0.00    +0.174 C 
BRANCH  20  21
ATOM     21  C   UNL     1       3.572   7.303   0.008  0.00  0.00    +0.242 C 
ATOM     22  O   UNL     1       2.511   7.891   0.021  0.00  0.00    -0.273 OA
ATOM     23  N   UNL     1       3.595   5.955   0.001  0.00  0.00    -0.206 N 
ATOM     24  H   UNL     1       4.444   5.485  -0.010  0.00  0.00    +0.177 HD
BRANCH  23  25
ATOM     25  N   UNL     1       2.394   5.234   0.008  0.00  0.00    -0.188 NA
ATOM     26  C   UNL     1       2.417   3.936   0.001  0.00  0.00    +0.139 C 
BRANCH  26  27
ATOM     27  C   UNL     1       1.153   3.176   0.008  0.00  0.00    +0.008 A 
ATOM     28  C   UNL     1       1.173   1.780   0.000  0.00  0.00    +0.010 A 
ATOM     29  C   UNL     1      -0.013   1.076   0.008  0.00  0.00    +0.001 A 
ATOM     30  C   UNL     1      -1.222   1.750   0.017  0.00  0.00    +0.001 A 
ATOM     31  C   UNL     1      -1.250   3.132   0.031  0.00  0.00    +0.016 A 
ATOM     32  C   UNL     1      -0.071   3.851   0.023  0.00  0.00    +0.027 A 
ATOM     33 BR   UNL     1      -0.113   5.741   0.033  0.00  0.00    -0.050 Br
ENDBRANCH  26  27
ENDBRANCH  23  25
ENDBRANCH  20  21
ENDBRANCH  19  20
ENDBRANCH   5  19
TORSDOF 7
