REMARK  Name = ZINC17303258
REMARK  10 active torsions:
REMARK  status: ('A' for Active; 'I' for Inactive)
REMARK    1  A    between atoms: C_1  and  C_2
REMARK    2  A    between atoms: C_3  and  N_15
REMARK    3  A    between atoms: N_6  and  C_9
REMARK    4  A    between atoms: N_7  and  C_8
REMARK    5  A    between atoms: C_16  and  C_18
REMARK    6  A    between atoms: C_18  and  C_20
REMARK    7  A    between atoms: C_18  and  N_24
REMARK    8  A    between atoms: C_20  and  C_21
REMARK    9  A    between atoms: C_21  and  C_22
REMARK   10  A    between atoms: C_21  and  C_23
REMARK                            x       y       z     vdW  Elec       q    Type
REMARK                         _______ _______ _______ _____ _____    ______ ____
ROOT
ATOM      1  N   UNL     1      -2.729  -5.185   1.459  0.00  0.00    -0.278 N 
ATOM      2  C   UNL     1      -1.792  -4.266   1.151  0.00  0.00    +0.238 C 
ATOM      3  O   UNL     1      -1.641  -3.293   1.861  0.00  0.00    -0.273 OA
ATOM      4  H   UNL     1      -2.901  -5.924   0.855  0.00  0.00    +0.155 HD
ENDROOT
BRANCH   1   7
ATOM      5  C   UNL     1      -5.788  -5.029   1.635  0.00  0.00    +0.067 C 
ATOM      6  C   UNL     1      -4.804  -5.001   2.776  0.00  0.00    +0.059 A 
ATOM      7  C   UNL     1      -3.459  -5.072   2.659  0.00  0.00    +0.121 A 
ATOM      8  C   UNL     1      -2.903  -5.018   4.012  0.00  0.00    +0.293 A 
ATOM      9  O   UNL     1      -1.723  -5.060   4.313  0.00  0.00    -0.264 OA
ATOM     10  N   UNL     1      -3.945  -4.907   4.861  0.00  0.00    -0.216 N 
ATOM     11  N   UNL     1      -5.123  -4.900   4.104  0.00  0.00    -0.282 N 
ATOM     12  C   UNL     1      -6.480  -4.801   4.647  0.00  0.00    +0.171 C 
BRANCH  10  13
ATOM     13  C   UNL     1      -3.864  -4.821   6.254  0.00  0.00    +0.067 A 
ATOM     14  C   UNL     1      -4.579  -3.844   6.934  0.00  0.00    +0.028 A 
ATOM     15  C   UNL     1      -4.501  -3.765   8.311  0.00  0.00    +0.002 A 
ATOM     16  C   UNL     1      -3.703  -4.651   9.011  0.00  0.00    +0.000 A 
ATOM     17  C   UNL     1      -2.985  -5.622   8.337  0.00  0.00    +0.002 A 
ATOM     18  C   UNL     1      -3.063  -5.709   6.961  0.00  0.00    +0.028 A 
ENDBRANCH  10  13
ENDBRANCH   1   7
BRANCH   2  19
ATOM     19  C   UNL     1      -0.934  -4.446  -0.074  0.00  0.00    +0.171 C 
BRANCH  19  20
ATOM     20  N   UNL     1      -0.002  -3.322  -0.187  0.00  0.00    -0.222 N 
ATOM     21  C   UNL     1      -0.373  -2.034  -0.306  0.00  0.00    +0.254 C 
ATOM     22  O   UNL     1      -1.517  -1.626  -0.336  0.00  0.00    -0.270 OA
ATOM     23  C   UNL     1       0.844  -1.199  -0.393  0.00  0.00    +0.049 A 
ATOM     24  C   UNL     1       1.077   0.160  -0.523  0.00  0.00    +0.014 A 
ATOM     25  C   UNL     1       2.379   0.632  -0.577  0.00  0.00    +0.001 A 
ATOM     26  C   UNL     1       3.445  -0.244  -0.502  0.00  0.00    +0.001 A 
ATOM     27  C   UNL     1       3.227  -1.607  -0.372  0.00  0.00    +0.014 A 
ATOM     28  C   UNL     1       1.931  -2.093  -0.317  0.00  0.00    +0.049 A 
ATOM     29  C   UNL     1       1.338  -3.441  -0.185  0.00  0.00    +0.254 C 
ATOM     30  O   UNL     1       1.958  -4.481  -0.091  0.00  0.00    -0.270 OA
ENDBRANCH  19  20
BRANCH  19  31
ATOM     31  C   UNL     1      -1.824  -4.498  -1.317  0.00  0.00    +0.035 C 
BRANCH  31  32
ATOM     32  C   UNL     1      -0.966  -4.806  -2.546  0.00  0.00    -0.015 C 
ATOM     33  C   UNL     1      -0.371  -6.209  -2.415  0.00  0.00    +0.007 C 
ATOM     34  C   UNL     1      -1.833  -4.734  -3.804  0.00  0.00    +0.007 C 
ENDBRANCH  31  32
ENDBRANCH  19  31
ENDBRANCH   2  19
TORSDOF 6
