REMARK  Name = ZINC09665874
REMARK  8 active torsions:
REMARK  status: ('A' for Active; 'I' for Inactive)
REMARK    1  A    between atoms: C_2  and  C_3
REMARK    2  A    between atoms: C_3  and  N_4
REMARK    3  A    between atoms: N_4  and  C_5
REMARK    4  A    between atoms: N_4  and  S_11
REMARK    5  A    between atoms: S_11  and  C_14
REMARK    6  A    between atoms: C_18  and  C_20
REMARK    7  A    between atoms: N_22  and  C_23
REMARK    8  A    between atoms: C_23  and  C_24
REMARK                            x       y       z     vdW  Elec       q    Type
REMARK                         _______ _______ _______ _____ _____    ______ ____
ROOT
ATOM      1  C   UNL     1      -4.702   2.496  -0.508  0.00  0.00    +0.110 A 
ATOM      2  C   UNL     1      -4.401   3.802  -0.857  0.00  0.00    +0.030 A 
ATOM      3  C   UNL     1      -5.125   4.445  -1.844  0.00  0.00    +0.022 A 
ATOM      4  C   UNL     1      -6.161   3.791  -2.482  0.00  0.00    +0.053 A 
ATOM      5  C   UNL     1      -6.473   2.475  -2.130  0.00  0.00    +0.057 A 
ATOM      6  C   UNL     1      -5.734   1.831  -1.136  0.00  0.00    +0.043 A 
ATOM      7 CL   UNL     1      -7.074   4.602  -3.716  0.00  0.00    -0.083 Cl
ENDROOT
BRANCH   5   8
ATOM      8  C   UNL     1      -7.580   1.768  -2.808  0.00  0.00    +0.246 C 
ATOM      9  O   UNL     1      -8.222   2.332  -3.673  0.00  0.00    -0.270 OA
ATOM     10  N   UNL     1      -7.878   0.499  -2.467  0.00  0.00    -0.308 N 
ATOM     11  H   UNL     1      -7.366   0.049  -1.777  0.00  0.00    +0.149 HD
BRANCH  10  12
ATOM     12  C   UNL     1      -8.975  -0.202  -3.138  0.00  0.00    +0.152 C 
BRANCH  12  13
ATOM     13  C   UNL     1      -9.101  -1.616  -2.569  0.00  0.00    +0.228 C 
ATOM     14  C   UNL     1     -10.186  -2.387  -3.333  0.00  0.00    +0.275 C 
ATOM     15  O   UNL     1     -10.287  -3.698  -2.768  0.00  0.00    -0.485 OA
ATOM     16  C   UNL     1     -10.329  -3.776  -1.409  0.00  0.00    +0.162 A 
ATOM     17  C   UNL     1     -10.780  -4.943  -0.808  0.00  0.00    +0.049 A 
ATOM     18  C   UNL     1     -10.825  -5.039   0.569  0.00  0.00    +0.004 A 
ATOM     19  C   UNL     1     -10.422  -3.973   1.353  0.00  0.00    +0.004 A 
ATOM     20  C   UNL     1      -9.973  -2.808   0.760  0.00  0.00    +0.049 A 
ATOM     21  C   UNL     1      -9.926  -2.704  -0.622  0.00  0.00    +0.163 A 
ATOM     22  O   UNL     1      -9.485  -1.549  -1.191  0.00  0.00    -0.480 OA
ENDBRANCH  12  13
ENDBRANCH  10  12
ENDBRANCH   5   8
BRANCH   1  23
ATOM     23  S   UNL     1      -3.768   1.684   0.746  0.00  0.00    +0.075 S 
ATOM     24  O   UNL     1      -4.648   0.762   1.374  0.00  0.00    -0.150 OA
ATOM     25  O   UNL     1      -3.088   2.702   1.469  0.00  0.00    -0.150 OA
BRANCH  23  26
ATOM     26  N   UNL     1      -2.604   0.786  -0.015  0.00  0.00    -0.199 N 
BRANCH  26  27
ATOM     27  C   UNL     1      -1.347   1.341  -0.267  0.00  0.00    +0.052 A 
ATOM     28  C   UNL     1      -0.234   0.518  -0.387  0.00  0.00    +0.025 A 
ATOM     29  C   UNL     1       1.006   1.070  -0.642  0.00  0.00    +0.002 A 
ATOM     30  C   UNL     1       1.141   2.440  -0.773  0.00  0.00    +0.000 A 
ATOM     31  C   UNL     1       0.036   3.262  -0.649  0.00  0.00    +0.002 A 
ATOM     32  C   UNL     1      -1.207   2.717  -0.394  0.00  0.00    +0.025 A 
ENDBRANCH  26  27
BRANCH  26  33
ATOM     33  C   UNL     1      -2.892  -0.592  -0.422  0.00  0.00    +0.158 C 
BRANCH  33  35
ATOM     34  C   UNL     1      -3.249  -2.408   1.170  0.00  0.00    +0.005 C 
ATOM     35  C   UNL     1      -2.417  -1.542   0.646  0.00  0.00    -0.014 C 
ENDBRANCH  33  35
ENDBRANCH  26  33
ENDBRANCH  23  26
ENDBRANCH   1  23
TORSDOF 8
