REMARK  Name = ZINC09475638
REMARK  9 active torsions:
REMARK  status: ('A' for Active; 'I' for Inactive)
REMARK    1  A    between atoms: C_1  and  C_2
REMARK    2  A    between atoms: N_10  and  C_11
REMARK    3  A    between atoms: C_11  and  C_13
REMARK    4  A    between atoms: C_13  and  C_14
REMARK    5  A    between atoms: C_14  and  C_15
REMARK    6  A    between atoms: C_15  and  S_16
REMARK    7  A    between atoms: S_16  and  C_19
REMARK    8  A    between atoms: N_25  and  C_26
REMARK    9  A    between atoms: C_26  and  C_27
REMARK                            x       y       z     vdW  Elec       q    Type
REMARK                         _______ _______ _______ _____ _____    ______ ____
ROOT
ATOM      1  C   UNL     1       6.762  -1.919   1.592  0.00  0.00    +0.044 C 
ATOM      2  C   UNL     1       5.553  -1.436   0.833  0.00  0.00    -0.049 A 
ATOM      3  C   UNL     1       4.415  -2.222   0.755  0.00  0.00    +0.005 A 
ATOM      4  C   UNL     1       3.303  -1.798   0.067  0.00  0.00    +0.027 A 
ATOM      5  C   UNL     1       3.287  -0.549  -0.574  0.00  0.00    +0.058 A 
ATOM      6  C   UNL     1       4.455   0.222  -0.482  0.00  0.00    +0.039 A 
ATOM      7  C   UNL     1       5.567  -0.203   0.206  0.00  0.00    +0.020 A 
ATOM      8  S   UNL     1       4.051   1.684  -1.403  0.00  0.00    -0.052 S 
ATOM      9  C   UNL     1       2.436   1.254  -1.865  0.00  0.00    +0.167 A 
ATOM     10  N   UNL     1       1.570   1.957  -2.593  0.00  0.00    -0.156 NA
ATOM     11  N   UNL     1       2.266   0.026  -1.307  0.00  0.00    -0.310 N 
ENDROOT
BRANCH  10  12
ATOM     12  C   UNL     1       0.311   1.546  -2.707  0.00  0.00    +0.238 C 
ATOM     13  O   UNL     1      -0.415   1.534  -1.732  0.00  0.00    -0.274 OA
BRANCH  12  14
ATOM     14  C   UNL     1      -0.215   1.096  -4.046  0.00  0.00    +0.099 C 
BRANCH  14  15
ATOM     15  C   UNL     1      -1.680   0.678  -3.903  0.00  0.00    +0.032 C 
BRANCH  15  16
ATOM     16  C   UNL     1      -2.215   0.220  -5.261  0.00  0.00    +0.172 C 
BRANCH  16  17
ATOM     17  S   UNL     1      -3.952  -0.275  -5.092  0.00  0.00    -0.003 S 
ATOM     18  O   UNL     1      -4.050  -1.454  -4.304  0.00  0.00    -0.169 OA
ATOM     19  O   UNL     1      -4.758   0.859  -4.803  0.00  0.00    -0.169 OA
BRANCH  17  20
ATOM     20  C   UNL     1      -4.440  -0.774  -6.710  0.00  0.00    +0.088 A 
ATOM     21  C   UNL     1      -4.980   0.150  -7.584  0.00  0.00    +0.027 A 
ATOM     22  C   UNL     1      -5.359  -0.241  -8.855  0.00  0.00    +0.002 A 
ATOM     23  C   UNL     1      -5.206  -1.558  -9.248  0.00  0.00    +0.000 A 
ATOM     24  C   UNL     1      -4.671  -2.483  -8.371  0.00  0.00    +0.002 A 
ATOM     25  C   UNL     1      -4.288  -2.091  -7.102  0.00  0.00    +0.027 A 
ENDBRANCH  17  20
ENDBRANCH  16  17
ENDBRANCH  15  16
ENDBRANCH  14  15
ENDBRANCH  12  14
ENDBRANCH  10  12
BRANCH  11  26
ATOM     26  C   UNL     1       0.998  -0.686  -1.478  0.00  0.00    +0.212 C 
BRANCH  26  27
ATOM     27  C   UNL     1       0.123  -0.415  -0.326  0.00  0.00    -0.084 C 
ATOM     28  C   UNL     1      -0.574  -0.199   0.594  0.00  0.00    +0.005 C 
ENDBRANCH  26  27
ENDBRANCH  11  26
TORSDOF 8
