REMARK  Name = ZINC13498854
REMARK  16 active torsions:
REMARK  status: ('A' for Active; 'I' for Inactive)
REMARK    1  A    between atoms: C_1  and  C_2
REMARK    2  A    between atoms: C_2  and  C_3
REMARK    3  A    between atoms: C_3  and  C_4
REMARK    4  A    between atoms: C_3  and  C_5
REMARK    5  A    between atoms: C_3  and  N_6
REMARK    6  A    between atoms: C_7  and  C_11
REMARK    7  A    between atoms: C_11  and  C_13
REMARK    8  A    between atoms: C_11  and  N_16
REMARK    9  A    between atoms: C_13  and  C_14
REMARK   10  A    between atoms: C_13  and  C_15
REMARK   11  A    between atoms: N_16  and  C_17
REMARK   12  A    between atoms: N_16  and  C_24
REMARK   13  A    between atoms: C_17  and  C_18
REMARK   14  A    between atoms: C_24  and  C_25
REMARK   15  A    between atoms: C_29  and  C_38
REMARK   16  A    between atoms: C_30  and  C_37
REMARK                            x       y       z     vdW  Elec       q    Type
REMARK                         _______ _______ _______ _____ _____    ______ ____
ROOT
ATOM      1  N   UNL     1       1.035  -0.469   5.626  0.00  0.00    +0.392 N 
ATOM      2  H   UNL     1       1.457  -0.161   6.594  0.00  0.00    -0.080 HD
ENDROOT
BRANCH   1   3
ATOM      3  C   UNL     1      -0.036   0.474   5.280  0.00  0.00    +0.006 C 
BRANCH   3   5
ATOM      4  N   UNL     1      -2.469  -0.264   5.484  0.00  0.00    -0.225 N 
ATOM      5  C   UNL     1      -1.293   0.102   6.025  0.00  0.00    +0.139 A 
ATOM      6  N   UNL     1      -1.452   0.075   7.326  0.00  0.00    -0.115 NA
ATOM      7  N   UNL     1      -2.662  -0.296   7.570  0.00  0.00    -0.023 NA
ATOM      8  N   UNL     1      -3.279  -0.502   6.459  0.00  0.00    -0.043 NA
BRANCH   4   9
ATOM      9  C   UNL     1      -2.772  -0.377   4.054  0.00  0.00    +0.061 C 
ATOM     10  C   UNL     1      -1.725  -1.266   3.380  0.00  0.00    +0.036 C 
ATOM     11  C   UNL     1      -2.748   1.013   3.417  0.00  0.00    +0.036 C 
BRANCH   9  13
ATOM     12  C   UNL     1      -4.475  -1.115   2.382  0.00  0.00    +0.006 C 
ATOM     13  C   UNL     1      -4.159  -0.997   3.874  0.00  0.00    +0.026 C 
ENDBRANCH   9  13
ENDBRANCH   4   9
ENDBRANCH   3   5
BRANCH   3  14
ATOM     14  C   UNL     1       0.387   1.891   5.670  0.00  0.00    -0.024 C 
ATOM     15  C   UNL     1      -0.723   2.876   5.295  0.00  0.00    +0.006 C 
ATOM     16  C   UNL     1       0.635   1.954   7.178  0.00  0.00    +0.006 C 
ENDBRANCH   3  14
ENDBRANCH   1   3
BRANCH   1  17
ATOM     17  C   UNL     1       0.509  -1.833   5.777  0.00  0.00    -0.042 C 
BRANCH  17  18
ATOM     18  C   UNL     1       1.555  -2.708   6.417  0.00  0.00    -0.064 A 
ATOM     19  C   UNL     1       2.475  -3.374   5.629  0.00  0.00    +0.002 A 
ATOM     20  C   UNL     1       3.439  -4.172   6.217  0.00  0.00    +0.000 A 
ATOM     21  C   UNL     1       3.475  -4.314   7.592  0.00  0.00    +0.000 A 
ATOM     22  C   UNL     1       2.551  -3.652   8.379  0.00  0.00    +0.000 A 
ATOM     23  C   UNL     1       1.591  -2.849   7.792  0.00  0.00    +0.002 A 
ENDBRANCH  17  18
ENDBRANCH   1  17
BRANCH   1  24
ATOM     24  C   UNL     1       2.115  -0.429   4.630  0.00  0.00    -0.036 C 
BRANCH  24  25
ATOM     25  C   UNL     1       2.942   0.813   4.837  0.00  0.00    +0.001 A 
ATOM     26  C   UNL     1       3.182   1.264   6.093  0.00  0.00    +0.017 A 
ATOM     27  C   UNL     1       3.994   2.471   6.260  0.00  0.00    -0.001 A 
ATOM     28  C   UNL     1       4.280   2.980   7.531  0.00  0.00    +0.013 A 
ATOM     29  C   UNL     1       5.036   4.112   7.652  0.00  0.00    -0.047 A 
ATOM     30  C   UNL     1       5.523   4.760   6.525  0.00  0.00    -0.046 A 
ATOM     31  C   UNL     1       5.254   4.276   5.264  0.00  0.00    +0.030 A 
ATOM     32  C   UNL     1       4.486   3.126   5.115  0.00  0.00    +0.049 A 
ATOM     33  N   UNL     1       4.201   2.619   3.865  0.00  0.00    -0.322 N 
ATOM     34  H   UNL     1       4.583   3.126   2.966  0.00  0.00    +0.169 HD
ATOM     35  C   UNL     1       3.460   1.507   3.722  0.00  0.00    +0.251 A 
ATOM     36  O   UNL     1       3.228   1.087   2.601  0.00  0.00    -0.268 OA
ATOM     37  C   UNL     1       6.355   6.007   6.684  0.00  0.00    +0.044 C 
ATOM     38  C   UNL     1       5.344   4.661   9.021  0.00  0.00    +0.044 C 
ENDBRANCH  24  25
ENDBRANCH   1  24
TORSDOF 9
