REMARK  Name = ZINC27551391
REMARK  16 active torsions:
REMARK  status: ('A' for Active; 'I' for Inactive)
REMARK    1  A    between atoms: C_1  and  C_2
REMARK    2  A    between atoms: C_2  and  O_3
REMARK    3  A    between atoms: O_3  and  C_4
REMARK    4  A    between atoms: C_4  and  C_6
REMARK    5  A    between atoms: C_7  and  C_38
REMARK    6  A    between atoms: C_12  and  C_14
REMARK    7  A    between atoms: C_17  and  O_22
REMARK    8  A    between atoms: C_18  and  O_20
REMARK    9  A    between atoms: O_20  and  C_21
REMARK   10  A    between atoms: O_22  and  C_23
REMARK   11  A    between atoms: C_23  and  C_24
REMARK   12  A    between atoms: N_26  and  N_27
REMARK   13  A    between atoms: C_28  and  C_29
REMARK   14  A    between atoms: C_32  and  N_35
REMARK   15  A    between atoms: N_35  and  C_36
REMARK   16  A    between atoms: N_35  and  C_37
REMARK                            x       y       z     vdW  Elec       q    Type
REMARK                         _______ _______ _______ _____ _____    ______ ____
ROOT
ATOM      1  C   UNL     1       2.103   1.046   0.032  0.00  0.00    -0.019 A 
ATOM      2  C   UNL     1       1.929   2.416   0.101  0.00  0.00    +0.009 A 
ATOM      3  C   UNL     1       0.671   2.946   0.318  0.00  0.00    +0.050 A 
ATOM      4  C   UNL     1      -0.419   2.105   0.466  0.00  0.00    +0.163 A 
ATOM      5  C   UNL     1      -0.246   0.726   0.390  0.00  0.00    +0.162 A 
ATOM      6  C   UNL     1       1.019   0.201   0.179  0.00  0.00    +0.055 A 
ENDROOT
BRANCH   1  13
ATOM      7  C   UNL     1       4.263   0.601   1.085  0.00  0.00    +0.078 C 
ATOM      8  C   UNL     1       5.420   1.298   1.050  0.00  0.00    +0.021 C 
ATOM      9  N   UNL     1       5.863   1.868  -0.110  0.00  0.00    -0.273 N 
ATOM     10  C   UNL     1       5.209   1.786  -1.275  0.00  0.00    +0.304 C 
ATOM     11  O   UNL     1       5.683   2.328  -2.255  0.00  0.00    -0.252 OA
ATOM     12  N   UNL     1       4.042   1.124  -1.397  0.00  0.00    -0.288 N 
ATOM     13  C   UNL     1       3.477   0.473  -0.203  0.00  0.00    +0.144 C 
ATOM     14  C   UNL     1       6.233   1.450   2.309  0.00  0.00    +0.061 C 
ATOM     15  H   UNL     1       6.808   2.432  -0.119  0.00  0.00    +0.156 HD
ATOM     16  H   UNL     1       3.512   1.063  -2.359  0.00  0.00    +0.151 HD
BRANCH   7  17
ATOM     17  C   UNL     1       3.803   0.010   2.285  0.00  0.00    +0.339 C 
ATOM     18  O   UNL     1       4.033  -1.163   2.513  0.00  0.00    -0.245 OA
BRANCH  17  19
ATOM     19  O   UNL     1       3.108   0.747   3.177  0.00  0.00    -0.462 OA
BRANCH  19  21
ATOM     20  C   UNL     1       2.100   1.137   5.339  0.00  0.00    +0.048 C 
ATOM     21  C   UNL     1       2.771   0.118   4.415  0.00  0.00    +0.229 C 
ENDBRANCH  19  21
ENDBRANCH  17  19
ENDBRANCH   7  17
ENDBRANCH   1  13
BRANCH   5  22
ATOM     22  O   UNL     1      -1.314  -0.104   0.530  0.00  0.00    -0.491 OA
ATOM     23  C   UNL     1      -1.046  -1.508   0.557  0.00  0.00    +0.277 C 
ENDBRANCH   5  22
BRANCH   4  24
ATOM     24  O   UNL     1      -1.658   2.625   0.679  0.00  0.00    -0.479 OA
BRANCH  24  25
ATOM     25  C   UNL     1      -1.762   4.049   0.738  0.00  0.00    +0.326 C 
BRANCH  25  26
ATOM     26  C   UNL     1      -3.198   4.438   0.979  0.00  0.00    +0.270 C 
ATOM     27  O   UNL     1      -4.048   3.580   1.088  0.00  0.00    -0.270 OA
ATOM     28  N   UNL     1      -3.537   5.739   1.072  0.00  0.00    -0.204 N 
ATOM     29  H   UNL     1      -2.765   6.517   0.973  0.00  0.00    +0.177 HD
BRANCH  28  30
ATOM     30  N   UNL     1      -4.872   6.101   1.296  0.00  0.00    -0.188 NA
ATOM     31  C   UNL     1      -5.198   7.354   1.386  0.00  0.00    +0.138 C 
BRANCH  31  32
ATOM     32  C   UNL     1      -6.603   7.734   1.621  0.00  0.00    -0.005 A 
ATOM     33  C   UNL     1      -7.585   6.748   1.742  0.00  0.00    +0.011 A 
ATOM     34  C   UNL     1      -8.896   7.107   1.966  0.00  0.00    +0.024 A 
ATOM     35  C   UNL     1      -9.243   8.450   2.063  0.00  0.00    +0.029 A 
ATOM     36  C   UNL     1      -8.269   9.435   1.938  0.00  0.00    +0.024 A 
ATOM     37  C   UNL     1      -6.956   9.083   1.718  0.00  0.00    +0.011 A 
BRANCH  35  38
ATOM     38  N   UNL     1     -10.572   8.810   2.285  0.00  0.00    -0.336 N 
ATOM     39  C   UNL     1     -10.962  10.222   2.262  0.00  0.00    +0.129 C 
ATOM     40  C   UNL     1     -11.579   7.777   2.541  0.00  0.00    +0.129 C 
ENDBRANCH  35  38
ENDBRANCH  31  32
ENDBRANCH  28  30
ENDBRANCH  25  26
ENDBRANCH  24  25
ENDBRANCH   4  24
TORSDOF 11
