REMARK  Name = ZINC01401446
REMARK  7 active torsions:
REMARK  status: ('A' for Active; 'I' for Inactive)
REMARK    1  A    between atoms: C_1  and  C_2
REMARK    2  A    between atoms: C_6  and  C_27
REMARK    3  A    between atoms: C_7  and  N_8
REMARK    4  A    between atoms: C_9  and  C_11
REMARK    5  A    between atoms: C_12  and  O_16
REMARK    6  A    between atoms: O_16  and  C_17
REMARK    7  A    between atoms: C_22  and  N_23
REMARK                            x       y       z     vdW  Elec       q    Type
REMARK                         _______ _______ _______ _____ _____    ______ ____
ROOT
ATOM      1  C   UNL     1      -1.058   2.182  -0.714  0.00  0.00    +0.116 A 
ATOM      2  C   UNL     1      -2.255   1.825  -1.331  0.00  0.00    +0.148 A 
ATOM      3  C   UNL     1      -3.373   2.554  -0.987  0.00  0.00    +0.054 A 
ATOM      4  C   UNL     1      -3.253   3.569  -0.095  0.00  0.00    +0.049 A 
ATOM      5  S   UNL     1      -1.569   3.546   0.316  0.00  0.00    -0.088 S 
ENDROOT
BRANCH   1   7
ATOM      6  N   UNL     1       1.276   2.117  -0.181  0.00  0.00    -0.281 N 
ATOM      7  C   UNL     1       0.231   1.614  -0.868  0.00  0.00    +0.258 C 
ATOM      8  O   UNL     1       0.395   0.675  -1.626  0.00  0.00    -0.269 OA
ATOM      9  H   UNL     1       1.159   2.909   0.367  0.00  0.00    +0.155 HD
BRANCH   6  16
ATOM     10  C   UNL     1       1.425  -0.680   0.317  0.00  0.00    +0.045 C 
ATOM     11  C   UNL     1       2.645   0.135  -0.025  0.00  0.00    -0.029 A 
ATOM     12  C   UNL     1       3.882  -0.474  -0.108  0.00  0.00    +0.005 A 
ATOM     13  C   UNL     1       5.004   0.274  -0.416  0.00  0.00    +0.001 A 
ATOM     14  C   UNL     1       4.890   1.633  -0.646  0.00  0.00    +0.005 A 
ATOM     15  C   UNL     1       3.656   2.247  -0.569  0.00  0.00    -0.029 A 
ATOM     16  C   UNL     1       2.527   1.498  -0.260  0.00  0.00    +0.040 A 
ATOM     17  C   UNL     1       3.533   3.728  -0.819  0.00  0.00    +0.045 C 
ENDBRANCH   6  16
ENDBRANCH   1   7
BRANCH   2  18
ATOM     18  O   UNL     1      -2.317   0.805  -2.224  0.00  0.00    -0.452 OA
BRANCH  18  19
ATOM     19  C   UNL     1      -2.476  -0.456  -1.742  0.00  0.00    +0.159 A 
ATOM     20  C   UNL     1      -2.694  -0.660  -0.387  0.00  0.00    +0.051 A 
ATOM     21  C   UNL     1      -2.860  -1.942   0.100  0.00  0.00    +0.042 A 
ATOM     22  C   UNL     1      -2.799  -3.024  -0.762  0.00  0.00    +0.126 A 
ATOM     23  C   UNL     1      -2.577  -2.823  -2.114  0.00  0.00    +0.074 A 
ATOM     24  C   UNL     1      -2.416  -1.541  -2.605  0.00  0.00    +0.171 A 
ATOM     25  F   UNL     1      -2.956  -4.278  -0.283  0.00  0.00    -0.205 F 
BRANCH  24  26
ATOM     26  N   UNL     1      -2.179  -1.327  -4.050  0.00  0.00    +0.060 N 
ATOM     27  O   UNL     1      -2.126  -2.280  -4.806  0.00  0.00    -0.126 OA
ATOM     28  O   UNL     1      -2.037  -0.197  -4.482  0.00  0.00    -0.126 OA
ENDBRANCH  24  26
ENDBRANCH  18  19
ENDBRANCH   2  18
TORSDOF 5
