REMARK  Name = ZINC16676325
REMARK  10 active torsions:
REMARK  status: ('A' for Active; 'I' for Inactive)
REMARK    1  A    between atoms: C_1  and  C_2
REMARK    2  A    between atoms: C_3  and  C_31
REMARK    3  A    between atoms: C_4  and  C_22
REMARK    4  A    between atoms: C_6  and  C_20
REMARK    5  A    between atoms: C_7  and  S_9
REMARK    6  A    between atoms: S_9  and  C_10
REMARK    7  A    between atoms: C_10  and  C_11
REMARK    8  A    between atoms: C_11  and  C_13
REMARK    9  A    between atoms: C_26  and  N_28
REMARK   10  A    between atoms: C_31  and  C_33
REMARK                            x       y       z     vdW  Elec       q    Type
REMARK                         _______ _______ _______ _____ _____    ______ ____
ROOT
ATOM      1  C   UNL     1      -2.921   6.878  -2.230  0.00  0.00    +0.061 C 
ATOM      2  C   UNL     1      -2.141   6.361  -1.049  0.00  0.00    +0.013 C 
ATOM      3  C   UNL     1      -0.903   5.859  -1.239  0.00  0.00    +0.024 C 
ATOM      4  C   UNL     1      -0.087   5.322  -0.098  0.00  0.00    +0.097 C 
ATOM      5  C   UNL     1      -0.645   5.780   1.220  0.00  0.00    +0.069 C 
ATOM      6  C   UNL     1      -1.901   6.291   1.315  0.00  0.00    +0.080 C 
ATOM      7  N   UNL     1      -2.696   6.408   0.196  0.00  0.00    -0.312 N 
ATOM      8  H   UNL     1      -3.783   6.539   0.309  0.00  0.00    +0.152 HD
ENDROOT
BRANCH   4   9
ATOM      9  C   UNL     1      -0.100   3.815  -0.145  0.00  0.00    -0.033 A 
ATOM     10  C   UNL     1      -1.297   3.131  -0.056  0.00  0.00    +0.005 A 
ATOM     11  C   UNL     1      -1.309   1.750  -0.104  0.00  0.00    +0.003 A 
ATOM     12  C   UNL     1      -0.123   1.052  -0.232  0.00  0.00    +0.033 A 
ATOM     13  C   UNL     1       1.075   1.736  -0.322  0.00  0.00    +0.126 A 
ATOM     14  C   UNL     1       1.087   3.118  -0.278  0.00  0.00    +0.037 A 
BRANCH  13  15
ATOM     15  N   UNL     1       2.345   0.990  -0.465  0.00  0.00    +0.056 N 
ATOM     16  O   UNL     1       2.335  -0.228  -0.504  0.00  0.00    -0.126 OA
ATOM     17  O   UNL     1       3.400   1.593  -0.544  0.00  0.00    -0.126 OA
ENDBRANCH  13  15
ENDBRANCH   4   9
BRANCH   3  18
ATOM     18  C   UNL     1      -0.365   5.837  -2.535  0.00  0.00    +0.159 C 
ATOM     19  O   UNL     1      -0.863   5.129  -3.388  0.00  0.00    -0.293 OA
ATOM     20  C   UNL     1       0.830   6.692  -2.869  0.00  0.00    +0.091 C 
ENDBRANCH   3  18
BRANCH   5  21
ATOM     21  C   UNL     1       0.162   5.677   2.398  0.00  0.00    +0.098 C 
ATOM     22  N   UNL     1       0.802   5.596   3.333  0.00  0.00    -0.191 NA
ENDBRANCH   5  21
BRANCH   6  23
ATOM     23  S   UNL     1      -2.519   6.806   2.883  0.00  0.00    -0.101 S 
BRANCH  23  24
ATOM     24  C   UNL     1      -4.170   7.370   2.401  0.00  0.00    +0.155 C 
BRANCH  24  25
ATOM     25  C   UNL     1      -4.905   7.871   3.617  0.00  0.00    +0.173 C 
ATOM     26  O   UNL     1      -4.365   7.849   4.703  0.00  0.00    -0.291 OA
BRANCH  25  27
ATOM     27  C   UNL     1      -6.276   8.386   3.487  0.00  0.00    +0.018 A 
ATOM     28  C   UNL     1      -6.899   8.419   2.235  0.00  0.00    +0.013 A 
ATOM     29  C   UNL     1      -8.186   8.899   2.122  0.00  0.00    +0.020 A 
ATOM     30  C   UNL     1      -8.859   9.358   3.243  0.00  0.00    +0.041 A 
ATOM     31  C   UNL     1      -8.246   9.334   4.486  0.00  0.00    +0.020 A 
ATOM     32  C   UNL     1      -6.961   8.852   4.615  0.00  0.00    +0.013 A 
ATOM     33 CL   UNL     1     -10.478   9.966   3.090  0.00  0.00    -0.084 Cl
ENDBRANCH  25  27
ENDBRANCH  24  25
ENDBRANCH  23  24
ENDBRANCH   6  23
TORSDOF 8
