REMARK  Name = ZINC05306507
REMARK  10 active torsions:
REMARK  status: ('A' for Active; 'I' for Inactive)
REMARK    1  A    between atoms: C_1  and  C_2
REMARK    2  A    between atoms: C_2  and  C_3
REMARK    3  A    between atoms: C_3  and  C_4
REMARK    4  A    between atoms: C_4  and  C_5
REMARK    5  A    between atoms: C_5  and  C_24
REMARK    6  A    between atoms: N_8  and  C_12
REMARK    7  A    between atoms: C_12  and  C_13
REMARK    8  A    between atoms: N_15  and  C_16
REMARK    9  A    between atoms: C_18  and  C_23
REMARK   10  A    between atoms: C_21  and  C_22
REMARK                            x       y       z     vdW  Elec       q    Type
REMARK                         _______ _______ _______ _____ _____    ______ ____
ROOT
ATOM      1  C   UNL     1       1.137   3.603  -0.001  0.00  0.00    +0.138 C 
ATOM      2  C   UNL     1       1.019   4.129   1.416  0.00  0.00    +0.251 C 
ATOM      3  O   UNL     1       1.805   3.968   2.325  0.00  0.00    -0.272 OA
ATOM      4  N   UNL     1      -0.141   4.814   1.455  0.00  0.00    -0.215 N 
ATOM      5  C   UNL     1      -0.766   4.793   0.272  0.00  0.00    +0.310 C 
ATOM      6  O   UNL     1      -1.831   5.340   0.061  0.00  0.00    -0.252 OA
ATOM      7  N   UNL     1      -0.085   4.098  -0.657  0.00  0.00    -0.281 N 
ATOM      8  H   UNL     1      -0.348   3.952  -1.579  0.00  0.00    +0.152 HD
ENDROOT
BRANCH   1   9
ATOM      9  C   UNL     1       1.169   2.097  -0.006  0.00  0.00    -0.015 A 
ATOM     10  C   UNL     1      -0.014   1.381   0.008  0.00  0.00    +0.009 A 
ATOM     11  C   UNL     1       0.013  -0.001   0.003  0.00  0.00    +0.039 A 
ATOM     12  C   UNL     1       1.226  -0.668  -0.016  0.00  0.00    +0.123 A 
ATOM     13  C   UNL     1       2.410   0.049  -0.030  0.00  0.00    +0.039 A 
ATOM     14  C   UNL     1       2.380   1.431  -0.025  0.00  0.00    +0.009 A 
ATOM     15  F   UNL     1       1.254  -2.019  -0.020  0.00  0.00    -0.205 F 
ENDBRANCH   1   9
BRANCH   1  16
ATOM     16  C   UNL     1       2.383   4.168  -0.687  0.00  0.00    +0.040 C 
BRANCH  16  17
ATOM     17  C   UNL     1       2.326   5.697  -0.668  0.00  0.00    +0.003 C 
BRANCH  17  19
ATOM     18  C   UNL     1       3.515   7.791  -1.335  0.00  0.00    +0.004 C 
ATOM     19  C   UNL     1       3.572   6.262  -1.353  0.00  0.00    -0.003 C 
ENDBRANCH  17  19
ENDBRANCH  16  17
ENDBRANCH   1  16
BRANCH   4  20
ATOM     20  C   UNL     1      -0.655   5.495   2.645  0.00  0.00    +0.214 C 
BRANCH  20  21
ATOM     21  C   UNL     1      -1.517   4.544   3.436  0.00  0.00    +0.235 C 
ATOM     22  O   UNL     1      -1.685   3.409   3.043  0.00  0.00    -0.274 OA
ATOM     23  N   UNL     1      -2.100   4.955   4.579  0.00  0.00    -0.284 N 
ATOM     24  H   UNL     1      -1.903   5.835   4.935  0.00  0.00    +0.155 HD
BRANCH  23  25
ATOM     25  C   UNL     1      -2.991   4.112   5.252  0.00  0.00    +0.037 A 
ATOM     26  C   UNL     1      -3.674   3.122   4.556  0.00  0.00    +0.027 A 
ATOM     27  C   UNL     1      -4.552   2.292   5.223  0.00  0.00    -0.049 A 
ATOM     28  C   UNL     1      -4.753   2.444   6.583  0.00  0.00    +0.004 A 
ATOM     29  C   UNL     1      -4.076   3.428   7.279  0.00  0.00    +0.005 A 
ATOM     30  C   UNL     1      -3.191   4.258   6.618  0.00  0.00    -0.029 A 
ATOM     31  C   UNL     1      -2.448   5.327   7.379  0.00  0.00    +0.045 C 
ATOM     32  C   UNL     1      -5.293   1.218   4.468  0.00  0.00    +0.044 C 
ENDBRANCH  23  25
ENDBRANCH  20  21
ENDBRANCH   4  20
TORSDOF 7
