REMARK  Name = ZINC09123942
REMARK  14 active torsions:
REMARK  status: ('A' for Active; 'I' for Inactive)
REMARK    1  A    between atoms: C_1  and  C_2
REMARK    2  A    between atoms: C_2  and  C_3
REMARK    3  A    between atoms: C_6  and  C_9
REMARK    4  A    between atoms: C_12  and  C_32
REMARK    5  A    between atoms: N_19  and  C_20
REMARK    6  A    between atoms: C_20  and  C_21
REMARK    7  A    between atoms: C_21  and  C_22
REMARK    8  A    between atoms: C_25  and  O_30
REMARK    9  A    between atoms: C_26  and  O_28
REMARK   10  A    between atoms: O_28  and  C_29
REMARK   11  A    between atoms: O_30  and  C_31
REMARK   12  A    between atoms: C_34  and  C_40
REMARK   13  A    between atoms: C_36  and  C_39
REMARK   14  A    between atoms: C_37  and  O_38
REMARK                            x       y       z     vdW  Elec       q    Type
REMARK                         _______ _______ _______ _____ _____    ______ ____
ROOT
ATOM      1  C   UNL     1      -5.381  -1.998   0.017  0.00  0.00    +0.141 C 
ATOM      2  C   UNL     1      -5.424  -3.445  -0.392  0.00  0.00    +0.035 A 
ATOM      3  C   UNL     1      -5.020  -4.758  -0.126  0.00  0.00    +0.102 A 
ATOM      4  N   UNL     1      -5.543  -5.528  -1.060  0.00  0.00    -0.173 NA
ATOM      5  N   UNL     1      -6.237  -4.832  -1.888  0.00  0.00    -0.272 N 
ATOM      6  H   UNL     1      -6.713  -5.189  -2.654  0.00  0.00    +0.189 HD
ATOM      7  C   UNL     1      -6.206  -3.514  -1.529  0.00  0.00    +0.126 A 
ATOM      8  C   UNL     1      -6.665  -2.161  -1.863  0.00  0.00    +0.265 C 
ATOM      9  O   UNL     1      -7.373  -1.883  -2.811  0.00  0.00    -0.268 OA
ATOM     10  N   UNL     1      -6.191  -1.271  -0.970  0.00  0.00    -0.285 N 
ENDROOT
BRANCH   3  11
ATOM     11  C   UNL     1      -4.161  -5.202   0.999  0.00  0.00    +0.044 A 
ATOM     12  C   UNL     1      -3.783  -4.299   1.989  0.00  0.00    +0.017 A 
ATOM     13  C   UNL     1      -2.983  -4.716   3.034  0.00  0.00    -0.049 A 
ATOM     14  C   UNL     1      -2.555  -6.031   3.102  0.00  0.00    +0.010 A 
ATOM     15  C   UNL     1      -2.924  -6.935   2.124  0.00  0.00    -0.008 A 
ATOM     16  C   UNL     1      -3.732  -6.530   1.073  0.00  0.00    +0.129 A 
ATOM     17  C   UNL     1      -2.454  -8.364   2.204  0.00  0.00    +0.047 C 
ATOM     18  C   UNL     1      -2.574  -3.738   4.105  0.00  0.00    +0.044 C 
BRANCH  16  19
ATOM     19  O   UNL     1      -4.101  -7.420   0.115  0.00  0.00    -0.506 OA
ATOM     20  H   UNL     1      -3.488  -7.471  -0.631  0.00  0.00    +0.292 HD
ENDBRANCH  16  19
ENDBRANCH   3  11
BRANCH   1  24
ATOM     21  C   UNL     1      -1.355  -0.570  -0.051  0.00  0.00    -0.048 A 
ATOM     22  C   UNL     1      -1.984  -0.921  -1.231  0.00  0.00    +0.004 A 
ATOM     23  C   UNL     1      -3.287  -1.383  -1.209  0.00  0.00    +0.006 A 
ATOM     24  C   UNL     1      -3.961  -1.495  -0.007  0.00  0.00    -0.022 A 
ATOM     25  C   UNL     1      -3.332  -1.144   1.173  0.00  0.00    +0.006 A 
ATOM     26  C   UNL     1      -2.028  -0.686   1.152  0.00  0.00    +0.004 A 
BRANCH  21  28
ATOM     27  C   UNL     1       1.027  -1.247   0.057  0.00  0.00    +0.009 C 
ATOM     28  C   UNL     1       0.065  -0.066  -0.074  0.00  0.00    +0.032 C 
ENDBRANCH  21  28
ENDBRANCH   1  24
BRANCH  10  29
ATOM     29  C   UNL     1      -6.440   0.172  -0.980  0.00  0.00    +0.114 C 
BRANCH  29  30
ATOM     30  C   UNL     1      -5.354   0.871  -1.801  0.00  0.00    +0.054 C 
BRANCH  30  31
ATOM     31  C   UNL     1      -5.611   2.356  -1.812  0.00  0.00    -0.042 A 
ATOM     32  C   UNL     1      -6.401   2.913  -2.800  0.00  0.00    +0.007 A 
ATOM     33  C   UNL     1      -6.638   4.275  -2.814  0.00  0.00    +0.049 A 
ATOM     34  C   UNL     1      -6.085   5.085  -1.835  0.00  0.00    +0.161 A 
ATOM     35  C   UNL     1      -5.290   4.524  -0.840  0.00  0.00    +0.162 A 
ATOM     36  C   UNL     1      -5.059   3.158  -0.830  0.00  0.00    +0.053 A 
BRANCH  35  37
ATOM     37  O   UNL     1      -4.744   5.315   0.122  0.00  0.00    -0.491 OA
ATOM     38  C   UNL     1      -3.939   4.671   1.111  0.00  0.00    +0.277 C 
ENDBRANCH  35  37
BRANCH  34  39
ATOM     39  O   UNL     1      -6.317   6.425  -1.848  0.00  0.00    -0.491 OA
ATOM     40  C   UNL     1      -7.142   6.930  -2.900  0.00  0.00    +0.277 C 
ENDBRANCH  34  39
ENDBRANCH  30  31
ENDBRANCH  29  30
ENDBRANCH  10  29
TORSDOF 9
