REMARK  Name = ZINC43288808
REMARK  7 active torsions:
REMARK  status: ('A' for Active; 'I' for Inactive)
REMARK    1  A    between atoms: C_1  and  C_2
REMARK    2  A    between atoms: C_7  and  O_8
REMARK    3  A    between atoms: O_8  and  C_9
REMARK    4  A    between atoms: C_9  and  C_11
REMARK    5  A    between atoms: C_9  and  C_17
REMARK    6  A    between atoms: C_17  and  C_19
REMARK    7  A    between atoms: C_17  and  N_20
REMARK                            x       y       z     vdW  Elec       q    Type
REMARK                         _______ _______ _______ _____ _____    ______ ____
ROOT
ATOM      1  C   UNL     1      -0.064  -0.816   3.572  0.00  0.00    +0.196 C 
ENDROOT
BRANCH   1   2
ATOM      2  C   UNL     1      -0.868  -0.069   4.605  0.00  0.00    +0.029 A 
ATOM      3  C   UNL     1      -1.719  -0.558   5.540  0.00  0.00    +0.030 A 
ATOM      4  C   UNL     1      -2.356   0.325   6.393  0.00  0.00    +0.025 A 
ATOM      5  C   UNL     1      -2.110   1.653   6.269  0.00  0.00    +0.060 A 
ATOM      6  S   UNL     1      -0.942   1.687   4.919  0.00  0.00    -0.097 S 
ATOM      7 BR   UNL     1      -3.552  -0.310   7.713  0.00  0.00    -0.050 Br
ENDBRANCH   1   2
BRANCH   1   8
ATOM      8  C   UNL     1       1.342  -1.080   4.115  0.00  0.00    -0.032 C 
ATOM      9  C   UNL     1       1.247  -1.919   5.391  0.00  0.00    -0.010 C 
BRANCH   8  10
ATOM     10  N   UNL     1       2.127  -1.808   3.109  0.00  0.00    +0.382 N 
ATOM     11  H   UNL     1       2.190  -1.255   2.267  0.00  0.00    -0.089 HD
ATOM     12  H   UNL     1       3.054  -1.982   3.466  0.00  0.00    -0.089 HD
ATOM     13  H   UNL     1       1.676  -2.686   2.901  0.00  0.00    -0.089 HD
ENDBRANCH   8  10
ENDBRANCH   1   8
BRANCH   1  14
ATOM     14  O   UNL     1       0.025  -0.033   2.381  0.00  0.00    -0.485 OA
BRANCH  14  21
ATOM     15  C   UNL     1      -0.057   1.511   0.017  0.00  0.00    +0.047 C 
ATOM     16  C   UNL     1      -0.071   0.004   0.004  0.00  0.00    -0.007 A 
ATOM     17  C   UNL     1      -0.121  -0.676  -1.197  0.00  0.00    +0.027 A 
ATOM     18  C   UNL     1      -0.134  -2.059  -1.210  0.00  0.00    +0.041 A 
ATOM     19  C   UNL     1      -0.098  -2.764  -0.019  0.00  0.00    +0.023 A 
ATOM     20  C   UNL     1      -0.049  -2.087   1.184  0.00  0.00    +0.047 A 
ATOM     21  C   UNL     1      -0.029  -0.700   1.198  0.00  0.00    +0.124 A 
ATOM     22 CL   UNL     1      -0.197  -2.912  -2.721  0.00  0.00    -0.084 Cl
ENDBRANCH  14  21
ENDBRANCH   1  14
TORSDOF 5
