REMARK  Name = ZINC42520796
REMARK  5 active torsions:
REMARK  status: ('A' for Active; 'I' for Inactive)
REMARK    1  A    between atoms: C_3  and  N_18
REMARK    2  A    between atoms: C_6  and  N_7
REMARK    3  A    between atoms: N_7  and  S_8
REMARK    4  A    between atoms: S_8  and  C_11
REMARK    5  A    between atoms: C_11  and  C_12
REMARK                            x       y       z     vdW  Elec       q    Type
REMARK                         _______ _______ _______ _____ _____    ______ ____
ROOT
ATOM      1  N   UNL     1      -1.196  -0.729   0.010  0.00  0.00    -0.101 NA
ENDROOT
BRANCH   1   7
ATOM      2  C   UNL     1      -0.017   1.389   0.010  0.00  0.00    +0.031 A 
ATOM      3  C   UNL     1       1.190   2.065   0.002  0.00  0.00    +0.043 A 
ATOM      4  C   UNL     1       2.374   1.336  -0.013  0.00  0.00    +0.094 A 
ATOM      5  N   UNL     1       2.355   0.013  -0.020  0.00  0.00    -0.348 N 
ATOM      6  C   UNL     1       1.222  -0.664  -0.014  0.00  0.00    +0.110 A 
ATOM      7  C   UNL     1       0.002  -0.004   0.002  0.00  0.00    +0.090 A 
ATOM      8  H   UNL     1       3.195  -0.472  -0.031  0.00  0.00    +0.167 HD
BRANCH   4   9
ATOM      9  N   UNL     1       3.596   2.007  -0.022  0.00  0.00    -0.345 N 
ATOM     10  H   UNL     1       3.616   2.977  -0.017  0.00  0.00    +0.144 HD
ATOM     11  H   UNL     1       4.425   1.504  -0.033  0.00  0.00    +0.144 HD
ENDBRANCH   4   9
ENDBRANCH   1   7
BRANCH   1  12
ATOM     12  S   UNL     1      -1.162  -2.385   0.001  0.00  0.00    +0.063 S 
ATOM     13  O   UNL     1      -0.564  -2.728  -1.242  0.00  0.00    -0.154 OA
ATOM     14  O   UNL     1      -0.539  -2.741   1.227  0.00  0.00    -0.154 OA
BRANCH  12  15
ATOM     15  C   UNL     1      -2.905  -2.887   0.015  0.00  0.00    +0.194 C 
BRANCH  15  16
ATOM     16  C   UNL     1      -2.995  -4.415   0.008  0.00  0.00    +0.012 C 
ATOM     17  C   UNL     1      -2.430  -4.953  -1.308  0.00  0.00    +0.005 C 
ATOM     18  C   UNL     1      -2.520  -6.480  -1.315  0.00  0.00    +0.000 C 
ATOM     19  C   UNL     1      -3.984  -6.905  -1.177  0.00  0.00    +0.000 C 
ATOM     20  C   UNL     1      -4.549  -6.367   0.139  0.00  0.00    +0.000 C 
ATOM     21  C   UNL     1      -4.459  -4.839   0.146  0.00  0.00    +0.005 C 
ENDBRANCH  15  16
ENDBRANCH  12  15
ENDBRANCH   1  12
TORSDOF 5
