REMARK  Name = ZINC45793491
REMARK  10 active torsions:
REMARK  status: ('A' for Active; 'I' for Inactive)
REMARK    1  A    between atoms: C_1  and  C_2
REMARK    2  A    between atoms: C_7  and  C_9
REMARK    3  A    between atoms: C_7  and  C_10
REMARK    4  A    between atoms: N_13  and  C_17
REMARK    5  A    between atoms: C_17  and  C_18
REMARK    6  A    between atoms: N_20  and  C_21
REMARK    7  A    between atoms: C_23  and  C_32
REMARK    8  A    between atoms: C_26  and  N_27
REMARK    9  A    between atoms: C_32  and  O_34
REMARK   10  A    between atoms: O_34  and  C_35
REMARK                            x       y       z     vdW  Elec       q    Type
REMARK                         _______ _______ _______ _____ _____    ______ ____
ROOT
ATOM      1  C   UNL     1      -4.269  -3.720  -3.135  0.00  0.00    +0.235 C 
ATOM      2  O   UNL     1      -3.844  -2.640  -3.490  0.00  0.00    -0.274 OA
ATOM      3  N   UNL     1      -5.354  -4.247  -3.736  0.00  0.00    -0.283 N 
ATOM      4  H   UNL     1      -5.731  -5.080  -3.412  0.00  0.00    +0.155 HD
ENDROOT
BRANCH   3   5
ATOM      5  C   UNL     1      -5.936  -3.593  -4.830  0.00  0.00    +0.055 A 
ATOM      6  C   UNL     1      -5.802  -2.225  -4.970  0.00  0.00    +0.040 A 
ATOM      7  C   UNL     1      -6.385  -1.576  -6.062  0.00  0.00    +0.061 A 
ATOM      8  C   UNL     1      -7.102  -2.313  -7.010  0.00  0.00    +0.017 A 
ATOM      9  C   UNL     1      -7.233  -3.676  -6.867  0.00  0.00    +0.026 A 
ATOM     10  C   UNL     1      -6.650  -4.324  -5.784  0.00  0.00    +0.051 A 
BRANCH  10  11
ATOM     11  N   UNL     1      -6.781  -5.703  -5.647  0.00  0.00    -0.328 N 
ATOM     12  C   UNL     1      -7.868  -6.394  -4.939  0.00  0.00    +0.105 C 
ATOM     13  C   UNL     1      -7.582  -7.909  -5.026  0.00  0.00    +0.020 C 
ATOM     14  C   UNL     1      -6.054  -7.959  -5.290  0.00  0.00    +0.020 C 
ATOM     15  C   UNL     1      -5.856  -6.713  -6.193  0.00  0.00    +0.105 C 
ENDBRANCH  10  11
BRANCH   7  16
ATOM     16  C   UNL     1      -6.244  -0.117  -6.215  0.00  0.00    +0.339 C 
ATOM     17  O   UNL     1      -5.621   0.523  -5.391  0.00  0.00    -0.245 OA
BRANCH  16  18
ATOM     18  O   UNL     1      -6.806   0.508  -7.269  0.00  0.00    -0.464 OA
ATOM     19  C   UNL     1      -6.630   1.923  -7.354  0.00  0.00    +0.280 C 
ENDBRANCH  16  18
ENDBRANCH   7  16
ENDBRANCH   3   5
BRANCH   1  20
ATOM     20  C   UNL     1      -3.584  -4.471  -2.023  0.00  0.00    +0.214 C 
BRANCH  20  32
ATOM     21  C   UNL     1       0.376   1.282  -0.810  0.00  0.00    +0.007 C 
ATOM     22  C   UNL     1       0.355  -0.226  -0.551  0.00  0.00    -0.011 C 
ATOM     23  C   UNL     1      -1.080  -0.745  -0.673  0.00  0.00    +0.038 C 
ATOM     24  C   UNL     1      -1.105  -2.244  -0.394  0.00  0.00    +0.113 C 
ATOM     25  C   UNL     1      -0.564  -2.543   0.999  0.00  0.00    +0.041 C 
ATOM     26  C   UNL     1       0.870  -2.017   1.115  0.00  0.00    -0.032 C 
ATOM     27  C   UNL     1       0.881  -0.509   0.858  0.00  0.00    +0.009 C 
ATOM     28  C   UNL     1       1.755  -2.717   0.082  0.00  0.00    +0.011 C 
ATOM     29  C   UNL     1       1.405  -2.299   2.520  0.00  0.00    +0.011 C 
ATOM     30  C   UNL     1      -2.508  -2.785  -0.543  0.00  0.00    +0.247 C 
ATOM     31  O   UNL     1      -3.488  -2.470   0.098  0.00  0.00    -0.273 OA
ATOM     32  N   UNL     1      -2.441  -3.692  -1.539  0.00  0.00    -0.215 N 
ATOM     33  C   UNL     1      -1.200  -3.793  -2.031  0.00  0.00    +0.310 C 
ATOM     34  O   UNL     1      -0.890  -4.544  -2.935  0.00  0.00    -0.252 OA
ATOM     35  N   UNL     1      -0.334  -2.969  -1.412  0.00  0.00    -0.285 N 
ATOM     36  H   UNL     1       0.613  -2.873  -1.601  0.00  0.00    +0.151 HD
ENDBRANCH  20  32
ENDBRANCH   1  20
TORSDOF 6
