REMARK  Name = ZINC39685041
REMARK  6 active torsions:
REMARK  status: ('A' for Active; 'I' for Inactive)
REMARK    1  A    between atoms: C_6  and  C_11
REMARK    2  A    between atoms: C_15  and  C_24
REMARK    3  A    between atoms: N_26  and  C_27
REMARK    4  A    between atoms: C_27  and  C_28
REMARK    5  A    between atoms: C_28  and  O_29
REMARK    6  A    between atoms: O_29  and  C_30
REMARK                            x       y       z     vdW  Elec       q    Type
REMARK                         _______ _______ _______ _____ _____    ______ ____
ROOT
ATOM      1  C   UNL     1       4.975  -2.712  -0.060  0.00  0.00    +0.247 C 
ATOM      2  O   UNL     1       6.013  -2.090  -0.174  0.00  0.00    -0.270 OA
ATOM      3  N   UNL     1       5.002  -4.056   0.036  0.00  0.00    -0.296 N 
ATOM      4  C   UNL     1       3.850  -4.989   0.052  0.00  0.00    +0.121 C 
ATOM      5  C   UNL     1       4.312  -6.196  -0.794  0.00  0.00    +0.100 C 
ATOM      6  C   UNL     1       5.848  -6.157  -0.726  0.00  0.00    -0.004 C 
ATOM      7  C   UNL     1       6.190  -4.936   0.141  0.00  0.00    +0.115 C 
ATOM      8  C   UNL     1       6.434  -5.984  -2.124  0.00  0.00    -0.010 C 
ATOM      9  C   UNL     1       7.963  -6.005  -2.038  0.00  0.00    -0.082 C 
ATOM     10  N   UNL     1       8.404  -7.278  -1.454  0.00  0.00    +0.379 N 
ATOM     11  C   UNL     1       7.913  -7.394  -0.076  0.00  0.00    -0.082 C 
ATOM     12  C   UNL     1       6.382  -7.431  -0.080  0.00  0.00    -0.010 C 
ATOM     13  H   UNL     1       8.042  -8.042  -2.005  0.00  0.00    -0.086 HD
ATOM     14  H   UNL     1       9.413  -7.315  -1.455  0.00  0.00    -0.086 HD
ENDROOT
BRANCH   1  20
ATOM     15  C   UNL     1      -1.032  -0.498   0.662  0.00  0.00    +0.001 A 
ATOM     16  C   UNL     1      -0.936  -1.755   1.257  0.00  0.00    +0.001 A 
ATOM     17  C   UNL     1       0.235  -2.447   1.245  0.00  0.00    +0.008 A 
ATOM     18  C   UNL     1       1.368  -1.889   0.626  0.00  0.00    -0.017 A 
ATOM     19  C   UNL     1       2.591  -2.576   0.596  0.00  0.00    +0.021 A 
ATOM     20  C   UNL     1       3.683  -1.994  -0.025  0.00  0.00    +0.037 A 
ATOM     21  C   UNL     1       3.574  -0.725  -0.621  0.00  0.00    +0.013 A 
ATOM     22  C   UNL     1       2.399  -0.046  -0.601  0.00  0.00    +0.009 A 
ATOM     23  C   UNL     1       1.270  -0.611   0.021  0.00  0.00    -0.018 A 
ATOM     24  C   UNL     1       0.043   0.073   0.053  0.00  0.00    +0.008 A 
ENDBRANCH   1  20
BRANCH   5  25
ATOM     25  C   UNL     1       3.791  -7.481  -0.204  0.00  0.00    +0.218 C 
ATOM     26  O   UNL     1       3.523  -7.541   0.977  0.00  0.00    -0.275 OA
ATOM     27  N   UNL     1       3.624  -8.564  -0.989  0.00  0.00    -0.312 N 
ATOM     28  H   UNL     1       3.839  -8.516  -1.933  0.00  0.00    +0.149 HD
BRANCH  27  29
ATOM     29  C   UNL     1       3.118  -9.813  -0.415  0.00  0.00    +0.145 C 
BRANCH  29  30
ATOM     30  C   UNL     1       3.023 -10.876  -1.511  0.00  0.00    +0.248 C 
BRANCH  30  31
ATOM     31  O   UNL     1       4.333 -11.184  -1.991  0.00  0.00    -0.488 OA
BRANCH  31  32
ATOM     32  C   UNL     1       4.427 -12.118  -2.975  0.00  0.00    +0.156 A 
ATOM     33  C   UNL     1       3.281 -12.720  -3.472  0.00  0.00    +0.048 A 
ATOM     34  C   UNL     1       3.378 -13.668  -4.472  0.00  0.00    +0.004 A 
ATOM     35  C   UNL     1       4.616 -14.018  -4.978  0.00  0.00    +0.003 A 
ATOM     36  C   UNL     1       5.761 -13.421  -4.484  0.00  0.00    +0.042 A 
ATOM     37  C   UNL     1       5.670 -12.466  -3.488  0.00  0.00    +0.165 A 
ATOM     38  F   UNL     1       6.788 -11.877  -3.010  0.00  0.00    -0.202 F 
ENDBRANCH  31  32
ENDBRANCH  30  31
ENDBRANCH  29  30
ENDBRANCH  27  29
ENDBRANCH   5  25
TORSDOF 6
