REMARK  Name = ZINC05658973
REMARK  3 active torsions:
REMARK  status: ('A' for Active; 'I' for Inactive)
REMARK    1  A    between atoms: N_7  and  C_8
REMARK    2  A    between atoms: C_8  and  N_10
REMARK    3  A    between atoms: C_11  and  C_13
REMARK                            x       y       z     vdW  Elec       q    Type
REMARK                         _______ _______ _______ _____ _____    ______ ____
ROOT
ATOM      1  N   UNL     1       0.833   7.265   0.233  0.00  0.00    -0.267 N 
ATOM      2  C   UNL     1       1.957   8.003   0.328  0.00  0.00    +0.225 C 
ATOM      3  O   UNL     1       3.041   7.460   0.315  0.00  0.00    -0.275 OA
ATOM      4  H   UNL     1      -0.035   7.699   0.243  0.00  0.00    +0.157 HD
ENDROOT
BRANCH   2   5
ATOM      5  C   UNL     1       1.866   9.502   0.449  0.00  0.00    +0.048 C 
ATOM      6  C   UNL     1       1.153  10.071  -0.779  0.00  0.00    +0.019 C 
ATOM      7  C   UNL     1       1.060  11.593  -0.656  0.00  0.00    -0.009 C 
ATOM      8  C   UNL     1       2.469  12.184  -0.565  0.00  0.00    +0.007 C 
ATOM      9  C   UNL     1       3.182  11.615   0.663  0.00  0.00    -0.009 C 
ATOM     10  C   UNL     1       3.274  10.093   0.540  0.00  0.00    +0.019 C 
ATOM     11  C   UNL     1       2.395  11.978   1.924  0.00  0.00    +0.007 C 
ATOM     12  C   UNL     1       0.986  11.387   1.833  0.00  0.00    -0.009 C 
ATOM     13  C   UNL     1       0.273  11.956   0.605  0.00  0.00    +0.007 C 
ATOM     14  C   UNL     1       1.079   9.865   1.710  0.00  0.00    +0.019 C 
ENDBRANCH   2   5
BRANCH   1  15
ATOM     15  C   UNL     1       0.914   5.924   0.124  0.00  0.00    +0.142 C 
ATOM     16  S   UNL     1       2.445   5.158   0.107  0.00  0.00    -0.018 S 
BRANCH  15  23
ATOM     17  C   UNL     1      -1.208   1.659   0.036  0.00  0.00    +0.005 A 
ATOM     18  C   UNL     1       0.053   1.079   0.023  0.00  0.00    +0.020 A 
ATOM     19  C   UNL     1       1.171   1.891   0.018  0.00  0.00    +0.113 A 
ATOM     20  N   UNL     1       1.052   3.205   0.015  0.00  0.00    -0.240 NA
ATOM     21  C   UNL     1      -0.132   3.795   0.027  0.00  0.00    +0.124 A 
ATOM     22  C   UNL     1      -1.300   3.040   0.038  0.00  0.00    +0.044 A 
ATOM     23  N   UNL     1      -0.210   5.186   0.030  0.00  0.00    -0.282 N 
ATOM     24  H   UNL     1      -1.073   5.624  -0.036  0.00  0.00    +0.155 HD
ENDBRANCH  15  23
ENDBRANCH   1  15
TORSDOF 3
