REMARK  Name = ZINC62778665
REMARK  4 active torsions:
REMARK  status: ('A' for Active; 'I' for Inactive)
REMARK    1  A    between atoms: C_1  and  C_2
REMARK    2  A    between atoms: C_7  and  C_12
REMARK    3  A    between atoms: C_12  and  C_14
REMARK    4  A    between atoms: C_12  and  O_20
REMARK                            x       y       z     vdW  Elec       q    Type
REMARK                         _______ _______ _______ _____ _____    ______ ____
ROOT
ATOM      1  C   UNL     1      -0.019   1.526   0.010  0.00  0.00    +0.052 C 
ATOM      2  C   UNL     1       0.002  -0.004   0.002  0.00  0.00    +0.175 C 
ATOM      3  C   UNL     1       0.775  -0.535  -1.228  0.00  0.00    +0.083 C 
ATOM      4  C   UNL     1       2.175  -0.704  -0.670  0.00  0.00    -0.002 A 
ATOM      5  C   UNL     1       3.399  -0.875  -1.278  0.00  0.00    +0.014 A 
ATOM      6  C   UNL     1       4.542  -0.999  -0.508  0.00  0.00    -0.013 A 
ATOM      7  C   UNL     1       4.450  -0.950   0.871  0.00  0.00    +0.010 A 
ATOM      8  C   UNL     1       3.225  -0.783   1.482  0.00  0.00    +0.046 A 
ATOM      9  C   UNL     1       2.069  -0.661   0.714  0.00  0.00    +0.124 A 
ATOM     10  O   UNL     1       0.770  -0.509   1.108  0.00  0.00    -0.488 OA
ENDROOT
BRANCH   6  11
ATOM     11  C   UNL     1       5.883  -1.186  -1.171  0.00  0.00    +0.192 C 
BRANCH  11  12
ATOM     12  C   UNL     1       6.614   0.131  -1.207  0.00  0.00    +0.069 A 
ATOM     13  C   UNL     1       6.476   1.094  -2.148  0.00  0.00    +0.047 A 
ATOM     14  C   UNL     1       7.330   2.150  -1.812  0.00  0.00    +0.134 A 
ATOM     15  N   UNL     1       7.957   1.832  -0.708  0.00  0.00    -0.182 NA
ATOM     16  N   UNL     1       7.518   0.564  -0.304  0.00  0.00    -0.279 N 
ATOM     17  H   UNL     1       7.814   0.082   0.484  0.00  0.00    +0.189 HD
ENDBRANCH  11  12
BRANCH  11  18
ATOM     18  O   UNL     1       6.651  -2.137  -0.430  0.00  0.00    -0.381 OA
ATOM     19  H   UNL     1       6.819  -1.878   0.487  0.00  0.00    +0.211 HD
ENDBRANCH  11  18
ENDBRANCH   6  11
TORSDOF 3
