REMARK  Name = ZINC63351249
REMARK  8 active torsions:
REMARK  status: ('A' for Active; 'I' for Inactive)
REMARK    1  A    between atoms: C_1  and  O_2
REMARK    2  A    between atoms: O_2  and  C_3
REMARK    3  A    between atoms: C_3  and  C_5
REMARK    4  A    between atoms: C_8  and  C_11
REMARK    5  A    between atoms: N_29  and  C_32
REMARK    6  A    between atoms: C_37  and  C_38
REMARK    7  A    between atoms: C_38  and  O_40
REMARK    8  A    between atoms: O_40  and  C_41
REMARK                            x       y       z     vdW  Elec       q    Type
REMARK                         _______ _______ _______ _____ _____    ______ ____
ROOT
ATOM      1  C   UNL     1       0.851  -6.357   1.260  0.00  0.00    +0.135 C 
ATOM      2  C   UNL     1      -0.213  -6.884   2.233  0.00  0.00    +0.131 C 
ATOM      3  C   UNL     1       0.161  -8.321   2.572  0.00  0.00    -0.034 C 
ATOM      4  C   UNL     1      -0.886  -9.070   2.238  0.00  0.00    -0.001 A 
ATOM      5  C   UNL     1      -1.143 -10.512   2.382  0.00  0.00    +0.010 A 
ATOM      6  C   UNL     1      -2.338 -10.957   1.913  0.00  0.00    +0.001 A 
ATOM      7  C   UNL     1      -3.292 -10.122   1.323  0.00  0.00    +0.002 A 
ATOM      8  C   UNL     1      -3.142  -8.784   1.155  0.00  0.00    +0.026 A 
ATOM      9  C   UNL     1      -1.926  -8.198   1.613  0.00  0.00    +0.043 A 
ATOM     10  N   UNL     1      -1.530  -6.949   1.593  0.00  0.00    -0.375 N 
ATOM     11  C   UNL     1       1.514  -8.717   3.114  0.00  0.00    +0.065 C 
ATOM     12  C   UNL     1       2.390  -7.453   3.067  0.00  0.00    +0.169 C 
ATOM     13  N   UNL     1       2.161  -6.785   1.768  0.00  0.00    -0.264 N 
ATOM     14  C   UNL     1       3.354  -6.679   1.169  0.00  0.00    +0.317 C 
ATOM     15  O   UNL     1       3.540  -6.077   0.130  0.00  0.00    -0.252 OA
ATOM     16  N   UNL     1       4.319  -7.314   1.848  0.00  0.00    -0.192 N 
ATOM     17  C   UNL     1       3.852  -7.842   3.027  0.00  0.00    +0.248 C 
ATOM     18  O   UNL     1       4.462  -8.485   3.855  0.00  0.00    -0.273 OA
ATOM     19  H   UNL     1      -2.017  -6.197   1.221  0.00  0.00    +0.160 HD
ENDROOT
BRANCH   1  23
ATOM     20  C   UNL     1       0.680  -2.088   1.091  0.00  0.00    +0.059 A 
ATOM     21  C   UNL     1       0.101  -2.854   0.077  0.00  0.00    +0.015 A 
ATOM     22  C   UNL     1       0.160  -4.231   0.138  0.00  0.00    +0.006 A 
ATOM     23  C   UNL     1       0.791  -4.853   1.200  0.00  0.00    -0.025 A 
ATOM     24  C   UNL     1       1.366  -4.100   2.209  0.00  0.00    +0.006 A 
ATOM     25  C   UNL     1       1.320  -2.722   2.157  0.00  0.00    +0.015 A 
BRANCH  20  26
ATOM     26  C   UNL     1       0.620  -0.613   1.032  0.00  0.00    +0.339 C 
ATOM     27  O   UNL     1       1.129   0.051   1.913  0.00  0.00    -0.245 OA
BRANCH  26  29
ATOM     28  C   UNL     1      -0.017   1.425   0.010  0.00  0.00    +0.280 C 
ATOM     29  O   UNL     1       0.002  -0.004   0.002  0.00  0.00    -0.464 OA
ENDBRANCH  26  29
ENDBRANCH  20  26
ENDBRANCH   1  23
BRANCH  16  30
ATOM     30  C   UNL     1       5.644  -7.415   1.418  0.00  0.00    +0.059 A 
ATOM     31  C   UNL     1       6.571  -6.450   1.784  0.00  0.00    +0.025 A 
ATOM     32  C   UNL     1       7.881  -6.552   1.359  0.00  0.00    +0.002 A 
ATOM     33  C   UNL     1       8.279  -7.616   0.565  0.00  0.00    +0.001 A 
ATOM     34  C   UNL     1       7.372  -8.583   0.192  0.00  0.00    +0.017 A 
ATOM     35  C   UNL     1       6.045  -8.496   0.619  0.00  0.00    +0.081 A 
BRANCH  35  36
ATOM     36  C   UNL     1       5.070  -9.531   0.228  0.00  0.00    +0.341 C 
ATOM     37  O   UNL     1       3.915  -9.448   0.598  0.00  0.00    -0.245 OA
BRANCH  36  38
ATOM     38  O   UNL     1       5.459 -10.567  -0.539  0.00  0.00    -0.464 OA
ATOM     39  C   UNL     1       4.462 -11.533  -0.880  0.00  0.00    +0.280 C 
ENDBRANCH  36  38
ENDBRANCH  35  36
ENDBRANCH  16  30
TORSDOF 6
