REMARK  Name = ZINC38656160
REMARK  8 active torsions:
REMARK  status: ('A' for Active; 'I' for Inactive)
REMARK    1  A    between atoms: C_1  and  O_2
REMARK    2  A    between atoms: O_2  and  C_3
REMARK    3  A    between atoms: C_6  and  C_9
REMARK    4  A    between atoms: C_9  and  O_11
REMARK    5  A    between atoms: O_11  and  C_12
REMARK    6  A    between atoms: C_19  and  N_30
REMARK    7  A    between atoms: C_20  and  C_28
REMARK    8  A    between atoms: C_21  and  C_23
REMARK                            x       y       z     vdW  Elec       q    Type
REMARK                         _______ _______ _______ _____ _____    ______ ____
ROOT
ATOM      1  C   UNL     1       3.255  -4.363   5.446  0.00  0.00    +0.135 A 
ATOM      2  C   UNL     1       3.718  -3.487   6.418  0.00  0.00    +0.047 A 
ATOM      3  C   UNL     1       4.350  -3.977   7.544  0.00  0.00    +0.012 A 
ATOM      4  C   UNL     1       4.524  -5.340   7.708  0.00  0.00    +0.008 A 
ATOM      5  C   UNL     1       4.064  -6.219   6.740  0.00  0.00    +0.138 A 
ATOM      6  C   UNL     1       3.424  -5.728   5.609  0.00  0.00    +0.093 A 
ATOM      7  O   UNL     1       4.227  -7.557   6.883  0.00  0.00    -0.441 OA
ATOM      8  C   UNL     1       4.473  -8.077   8.097  0.00  0.00    +0.199 C 
ATOM      9  C   UNL     1       4.944  -7.322   9.117  0.00  0.00    +0.098 C 
ATOM     10  C   UNL     1       5.216  -5.854   8.942  0.00  0.00    +0.105 C 
ENDROOT
BRANCH  10  11
ATOM     11  C   UNL     1       6.701  -5.635   8.811  0.00  0.00    +0.002 A 
ATOM     12  C   UNL     1       7.531  -4.912   9.603  0.00  0.00    +0.012 A 
ATOM     13  C   UNL     1       8.875  -4.851   9.286  0.00  0.00    +0.008 A 
ATOM     14  C   UNL     1       9.324  -5.515   8.193  0.00  0.00    +0.045 A 
ATOM     15  S   UNL     1       7.826  -6.264   7.575  0.00  0.00    -0.101 S 
ENDBRANCH  10  11
BRANCH   8  16
ATOM     16  N   UNL     1       4.242  -9.413   8.309  0.00  0.00    -0.328 N 
ATOM     17  H   UNL     1       3.905  -9.968   7.587  0.00  0.00    +0.145 HD
ATOM     18  H   UNL     1       4.415  -9.803   9.180  0.00  0.00    +0.145 HD
ENDBRANCH   8  16
BRANCH   9  19
ATOM     19  C   UNL     1       5.187  -7.934  10.389  0.00  0.00    +0.101 C 
ATOM     20  N   UNL     1       5.380  -8.419  11.398  0.00  0.00    -0.191 NA
ENDBRANCH   9  19
BRANCH   1  21
ATOM     21  O   UNL     1       2.633  -3.882   4.337  0.00  0.00    -0.422 OA
BRANCH  21  22
ATOM     22  C   UNL     1       1.289  -3.970   4.278  0.00  0.00    +0.344 C 
ATOM     23  O   UNL     1       0.679  -4.547   5.156  0.00  0.00    -0.245 OA
BRANCH  22  27
ATOM     24  C   UNL     1      -0.810  -2.230   1.024  0.00  0.00    +0.120 A 
ATOM     25  C   UNL     1      -1.511  -2.890   2.027  0.00  0.00    +0.046 A 
ATOM     26  C   UNL     1      -0.834  -3.456   3.084  0.00  0.00    +0.018 A 
ATOM     27  C   UNL     1       0.560  -3.366   3.148  0.00  0.00    +0.060 A 
ATOM     28  C   UNL     1       1.260  -2.701   2.137  0.00  0.00    +0.018 A 
ATOM     29  C   UNL     1       0.576  -2.143   1.081  0.00  0.00    +0.046 A 
BRANCH  24  31
ATOM     30  C   UNL     1      -2.905  -1.800  -0.011  0.00  0.00    +0.277 C 
ATOM     31  O   UNL     1      -1.482  -1.674  -0.016  0.00  0.00    -0.495 OA
ENDBRANCH  24  31
ENDBRANCH  22  27
ENDBRANCH  21  22
ENDBRANCH   1  21
TORSDOF 7
