REMARK  Name = ZINC45884619
REMARK  9 active torsions:
REMARK  status: ('A' for Active; 'I' for Inactive)
REMARK    1  A    between atoms: C_1  and  C_2
REMARK    2  A    between atoms: C_3  and  C_14
REMARK    3  A    between atoms: N_6  and  C_7
REMARK    4  A    between atoms: N_16  and  C_17
REMARK    5  A    between atoms: C_17  and  C_19
REMARK    6  A    between atoms: C_17  and  C_23
REMARK    7  A    between atoms: C_19  and  C_20
REMARK    8  A    between atoms: C_20  and  C_21
REMARK    9  A    between atoms: C_20  and  C_22
REMARK                            x       y       z     vdW  Elec       q    Type
REMARK                         _______ _______ _______ _____ _____    ______ ____
ROOT
ATOM      1  C   UNL     1      -0.004  -0.358  -2.503  0.00  0.00    +0.267 C 
ATOM      2  O   UNL     1      -0.021   0.831  -2.757  0.00  0.00    -0.268 OA
ATOM      3  N   UNL     1       0.005  -1.261  -3.503  0.00  0.00    -0.300 N 
ATOM      4  H   UNL     1       0.019  -2.210  -3.301  0.00  0.00    +0.150 HD
ENDROOT
BRANCH   1   7
ATOM      5  C   UNL     1      -0.018   1.503   0.010  0.00  0.00    +0.068 C 
ATOM      6  C   UNL     1       0.002  -0.004   0.002  0.00  0.00    +0.074 A 
ATOM      7  C   UNL     1       0.009  -0.813  -1.099  0.00  0.00    +0.170 A 
ATOM      8  N   UNL     1       0.028  -2.092  -0.688  0.00  0.00    -0.124 NA
ATOM      9  N   UNL     1       0.033  -2.131   0.599  0.00  0.00    -0.060 NA
ATOM     10  N   UNL     1       0.023  -0.815   1.082  0.00  0.00    -0.216 N 
BRANCH  10  11
ATOM     11  C   UNL     1       0.031  -0.417   2.427  0.00  0.00    +0.067 A 
ATOM     12  C   UNL     1       0.705   0.736   2.807  0.00  0.00    +0.030 A 
ATOM     13  C   UNL     1       0.711   1.126   4.131  0.00  0.00    +0.040 A 
ATOM     14  C   UNL     1       0.048   0.367   5.081  0.00  0.00    +0.124 A 
ATOM     15  C   UNL     1      -0.625  -0.783   4.704  0.00  0.00    +0.040 A 
ATOM     16  C   UNL     1      -0.639  -1.173   3.379  0.00  0.00    +0.030 A 
ATOM     17  F   UNL     1       0.056   0.750   6.377  0.00  0.00    -0.205 F 
ENDBRANCH  10  11
ENDBRANCH   1   7
BRANCH   3  18
ATOM     18  C   UNL     1      -0.007  -0.810  -4.897  0.00  0.00    +0.139 C 
BRANCH  18  19
ATOM     19  C   UNL     1      -0.597  -1.888  -5.769  0.00  0.00    +0.129 A 
ATOM     20  N   UNL     1      -1.139  -3.050  -5.313  0.00  0.00    -0.340 N 
ATOM     21  H   UNL     1      -1.213  -3.325  -4.386  0.00  0.00    +0.167 HD
ATOM     22  C   UNL     1      -1.564  -3.765  -6.415  0.00  0.00    +0.066 A 
ATOM     23  C   UNL     1      -2.182  -4.996  -6.589  0.00  0.00    +0.028 A 
ATOM     24  C   UNL     1      -2.483  -5.435  -7.861  0.00  0.00    +0.002 A 
ATOM     25  C   UNL     1      -2.172  -4.655  -8.966  0.00  0.00    +0.002 A 
ATOM     26  C   UNL     1      -1.564  -3.442  -8.814  0.00  0.00    +0.030 A 
ATOM     27  C   UNL     1      -1.250  -2.976  -7.534  0.00  0.00    +0.089 A 
ATOM     28  N   UNL     1      -0.666  -1.842  -7.067  0.00  0.00    -0.231 NA
ENDBRANCH  18  19
BRANCH  18  29
ATOM     29  C   UNL     1       1.424  -0.513  -5.350  0.00  0.00    +0.033 C 
BRANCH  29  30
ATOM     30  C   UNL     1       1.978   0.666  -4.547  0.00  0.00    -0.015 C 
ATOM     31  C   UNL     1       3.449   0.883  -4.910  0.00  0.00    +0.007 C 
ATOM     32  C   UNL     1       1.179   1.928  -4.878  0.00  0.00    +0.007 C 
ENDBRANCH  29  30
ENDBRANCH  18  29
ENDBRANCH   3  18
TORSDOF 6
