REMARK  Name = ZINC06551620
REMARK  7 active torsions:
REMARK  status: ('A' for Active; 'I' for Inactive)
REMARK    1  A    between atoms: C_1  and  C_2
REMARK    2  A    between atoms: C_7  and  N_12
REMARK    3  A    between atoms: C_9  and  C_11
REMARK    4  A    between atoms: C_13  and  C_15
REMARK    5  A    between atoms: C_15  and  S_16
REMARK    6  A    between atoms: S_16  and  C_17
REMARK    7  A    between atoms: N_30  and  C_31
REMARK                            x       y       z     vdW  Elec       q    Type
REMARK                         _______ _______ _______ _____ _____    ______ ____
ROOT
ATOM      1  C   UNL     1      -1.760   5.809  -4.186  0.00  0.00    +0.173 A 
ATOM      2  N   UNL     1      -1.610   6.239  -2.941  0.00  0.00    -0.216 NA
ATOM      3  C   UNL     1      -1.344   5.330  -2.011  0.00  0.00    +0.117 A 
ATOM      4  C   UNL     1      -1.214   3.947  -2.273  0.00  0.00    +0.076 A 
ATOM      5  C   UNL     1      -0.921   3.104  -1.125  0.00  0.00    -0.023 A 
ATOM      6  C   UNL     1      -0.804   3.725   0.070  0.00  0.00    -0.004 A 
ATOM      7  S   UNL     1      -1.075   5.446  -0.271  0.00  0.00    -0.073 S 
ATOM      8  C   UNL     1      -0.511   3.093   1.396  0.00  0.00    +0.043 C 
ATOM      9  C   UNL     1      -0.726   1.578   1.270  0.00  0.00    +0.005 C 
ATOM     10  C   UNL     1      -0.013   1.086   0.008  0.00  0.00    +0.005 C 
ATOM     11  C   UNL     1      -0.749   1.591  -1.233  0.00  0.00    +0.037 C 
ATOM     12  C   UNL     1      -1.382   3.519  -3.630  0.00  0.00    +0.263 A 
ATOM     13  O   UNL     1      -1.290   2.348  -3.955  0.00  0.00    -0.267 OA
ATOM     14  N   UNL     1      -1.652   4.495  -4.529  0.00  0.00    -0.290 N 
ATOM     15  C   UNL     1      -1.835   4.121  -5.933  0.00  0.00    +0.154 C 
ENDROOT
BRANCH   1  16
ATOM     16  S   UNL     1      -2.114   6.984  -5.450  0.00  0.00    -0.078 S 
BRANCH  16  17
ATOM     17  C   UNL     1      -2.142   8.504  -4.466  0.00  0.00    +0.173 C 
BRANCH  17  19
ATOM     18  N   UNL     1      -2.506  10.921  -4.847  0.00  0.00    -0.312 N 
ATOM     19  C   UNL     1      -2.436   9.678  -5.364  0.00  0.00    +0.224 C 
ATOM     20  O   UNL     1      -2.609   9.505  -6.552  0.00  0.00    -0.275 OA
ATOM     21  H   UNL     1      -2.368  11.059  -3.897  0.00  0.00    +0.149 HD
BRANCH  18  27
ATOM     22  C   UNL     1      -4.690  13.950  -6.910  0.00  0.00    +0.008 C 
ATOM     23  C   UNL     1      -3.719  14.381  -5.809  0.00  0.00    -0.009 C 
ATOM     24  C   UNL     1      -2.417  14.877  -6.442  0.00  0.00    +0.003 C 
ATOM     25  C   UNL     1      -1.788  13.750  -7.264  0.00  0.00    +0.002 C 
ATOM     26  C   UNL     1      -1.490  12.558  -6.353  0.00  0.00    +0.022 C 
ATOM     27  C   UNL     1      -2.792  12.062  -5.720  0.00  0.00    +0.076 C 
ATOM     28  C   UNL     1      -3.420  13.188  -4.897  0.00  0.00    +0.009 C 
ATOM     29  C   UNL     1      -4.722  12.693  -4.264  0.00  0.00    +0.009 C 
ENDBRANCH  18  27
ENDBRANCH  17  19
ENDBRANCH  16  17
ENDBRANCH   1  16
TORSDOF 4
