REMARK  Name = ZINC09672720
REMARK  9 active torsions:
REMARK  status: ('A' for Active; 'I' for Inactive)
REMARK    1  A    between atoms: C_1  and  C_2
REMARK    2  A    between atoms: C_4  and  C_18
REMARK    3  A    between atoms: C_5  and  C_17
REMARK    4  A    between atoms: N_6  and  C_7
REMARK    5  A    between atoms: C_10  and  O_13
REMARK    6  A    between atoms: O_13  and  C_14
REMARK    7  A    between atoms: C_18  and  C_20
REMARK    8  A    between atoms: C_20  and  N_21
REMARK    9  A    between atoms: C_29  and  C_31
REMARK                            x       y       z     vdW  Elec       q    Type
REMARK                         _______ _______ _______ _____ _____    ______ ____
ROOT
ATOM      1  C   UNL     1       1.629   3.297   0.004  0.00  0.00    +0.064 C 
ATOM      2  C   UNL     1       1.258   1.836  -0.000  0.00  0.00    +0.022 A 
ATOM      3  C   UNL     1       2.128   0.812  -0.014  0.00  0.00    +0.034 A 
ATOM      4  C   UNL     1       1.322  -0.417  -0.013  0.00  0.00    +0.040 A 
ATOM      5  C   UNL     1       0.002  -0.004   0.002  0.00  0.00    +0.031 A 
ATOM      6  N   UNL     1      -0.016   1.343   0.009  0.00  0.00    -0.317 N 
ATOM      7  C   UNL     1      -1.206  -0.905   0.009  0.00  0.00    +0.064 C 
ENDROOT
BRANCH   6   8
ATOM      8  C   UNL     1      -1.179   2.127   0.019  0.00  0.00    +0.047 A 
ATOM      9  C   UNL     1      -2.041   2.105  -1.069  0.00  0.00    +0.030 A 
ATOM     10  C   UNL     1      -3.188   2.874  -1.056  0.00  0.00    +0.048 A 
ATOM     11  C   UNL     1      -3.473   3.677   0.039  0.00  0.00    +0.127 A 
ATOM     12  C   UNL     1      -2.609   3.704   1.124  0.00  0.00    +0.048 A 
ATOM     13  C   UNL     1      -1.465   2.931   1.115  0.00  0.00    +0.030 A 
BRANCH  11  14
ATOM     14  O   UNL     1      -4.600   4.437   0.049  0.00  0.00    -0.434 OA
BRANCH  14  15
ATOM     15  C   UNL     1      -5.444   4.361  -1.102  0.00  0.00    +0.541 C 
ATOM     16  F   UNL     1      -4.728   4.764  -2.234  0.00  0.00    -0.166 F 
ATOM     17  F   UNL     1      -5.882   3.043  -1.272  0.00  0.00    -0.166 F 
ENDBRANCH  14  15
ENDBRANCH  11  14
ENDBRANCH   6   8
BRANCH   4  18
ATOM     18  C   UNL     1       1.815  -1.795  -0.026  0.00  0.00    +0.183 C 
ATOM     19  O   UNL     1       1.030  -2.720  -0.024  0.00  0.00    -0.290 OA
BRANCH  18  20
ATOM     20  C   UNL     1       3.297  -2.065  -0.041  0.00  0.00    +0.197 C 
BRANCH  20  21
ATOM     21  N   UNL     1       3.530  -3.511  -0.052  0.00  0.00    -0.217 N 
ATOM     22  C   UNL     1       3.667  -4.266   1.058  0.00  0.00    +0.247 C 
ATOM     23  O   UNL     1       3.621  -3.891   2.210  0.00  0.00    -0.273 OA
ATOM     24  C   UNL     1       3.886  -5.677   0.563  0.00  0.00    +0.115 C 
ATOM     25  C   UNL     1       5.244  -6.194   1.024  0.00  0.00    +0.035 C 
ATOM     26  C   UNL     1       5.463  -7.609   0.482  0.00  0.00    +0.003 C 
ATOM     27  C   UNL     1       4.350  -8.527   0.990  0.00  0.00    +0.000 C 
ATOM     28  C   UNL     1       2.996  -8.008   0.502  0.00  0.00    +0.006 C 
ATOM     29  C   UNL     1       2.767  -6.594   1.045  0.00  0.00    +0.018 C 
ATOM     30  C   UNL     1       1.422  -6.066   0.541  0.00  0.00    +0.010 C 
ATOM     31  N   UNL     1       3.853  -5.551  -0.900  0.00  0.00    -0.285 N 
ATOM     32  C   UNL     1       3.640  -4.247  -1.165  0.00  0.00    +0.310 C 
ATOM     33  O   UNL     1       3.557  -3.791  -2.288  0.00  0.00    -0.252 OA
ATOM     34  H   UNL     1       3.963  -6.264  -1.547  0.00  0.00    +0.151 HD
ENDBRANCH  20  21
ENDBRANCH  18  20
ENDBRANCH   4  18
TORSDOF 6
