REMARK  Name = ZINC13506838
REMARK  10 active torsions:
REMARK  status: ('A' for Active; 'I' for Inactive)
REMARK    1  A    between atoms: C_1  and  C_2
REMARK    2  A    between atoms: C_4  and  C_36
REMARK    3  A    between atoms: C_6  and  N_8
REMARK    4  A    between atoms: N_8  and  C_9
REMARK    5  A    between atoms: C_9  and  C_11
REMARK    6  A    between atoms: C_9  and  C_17
REMARK    7  A    between atoms: N_19  and  C_20
REMARK    8  A    between atoms: C_25  and  C_27
REMARK    9  A    between atoms: C_27  and  N_28
REMARK   10  A    between atoms: C_29  and  C_31
REMARK                            x       y       z     vdW  Elec       q    Type
REMARK                         _______ _______ _______ _____ _____    ______ ____
ROOT
ATOM      1  N   UNL     1       2.189   4.149  -0.792  0.00  0.00    -0.254 N 
ATOM      2  C   UNL     1       1.925   4.782  -1.952  0.00  0.00    +0.238 C 
ATOM      3  O   UNL     1       0.812   5.211  -2.169  0.00  0.00    -0.274 OA
ENDROOT
BRANCH   1   9
ATOM      4  C   UNL     1       6.829   5.276   0.381  0.00  0.00    +0.044 C 
ATOM      5  C   UNL     1       5.762   4.258   0.068  0.00  0.00    -0.048 A 
ATOM      6  C   UNL     1       6.073   2.910   0.068  0.00  0.00    +0.006 A 
ATOM      7  C   UNL     1       5.097   1.973  -0.218  0.00  0.00    -0.048 A 
ATOM      8  C   UNL     1       3.808   2.380  -0.503  0.00  0.00    +0.027 A 
ATOM      9  C   UNL     1       3.494   3.733  -0.503  0.00  0.00    +0.038 A 
ATOM     10  C   UNL     1       4.477   4.672  -0.222  0.00  0.00    +0.027 A 
ATOM     11  C   UNL     1       5.440   0.505  -0.217  0.00  0.00    +0.044 C 
ENDBRANCH   1   9
BRANCH   1  12
ATOM     12  C   UNL     1       1.111   3.896   0.166  0.00  0.00    +0.197 C 
BRANCH  12  13
ATOM     13  C   UNL     1       1.627   3.032   1.288  0.00  0.00    -0.018 A 
ATOM     14  C   UNL     1       1.007   1.832   1.579  0.00  0.00    +0.006 A 
ATOM     15  C   UNL     1       1.481   1.040   2.607  0.00  0.00    +0.000 A 
ATOM     16  C   UNL     1       2.577   1.448   3.345  0.00  0.00    +0.000 A 
ATOM     17  C   UNL     1       3.197   2.648   3.054  0.00  0.00    +0.000 A 
ATOM     18  C   UNL     1       2.723   3.440   2.026  0.00  0.00    +0.006 A 
ENDBRANCH  12  13
BRANCH  12  19
ATOM     19  C   UNL     1       0.619   5.205   0.726  0.00  0.00    +0.239 C 
ATOM     20  O   UNL     1       1.120   6.248   0.361  0.00  0.00    -0.273 OA
ATOM     21  N   UNL     1      -0.378   5.219   1.633  0.00  0.00    -0.311 N 
ATOM     22  H   UNL     1      -0.779   4.385   1.925  0.00  0.00    +0.149 HD
BRANCH  21  23
ATOM     23  C   UNL     1      -0.857   6.492   2.178  0.00  0.00    +0.073 C 
ATOM     24  C   UNL     1      -0.021   6.886   3.413  0.00  0.00    +0.022 C 
ATOM     25  C   UNL     1      -1.047   7.533   4.375  0.00  0.00    +0.002 C 
ATOM     26  C   UNL     1      -2.308   6.657   4.170  0.00  0.00    +0.002 C 
ATOM     27  C   UNL     1      -2.311   6.346   2.659  0.00  0.00    +0.022 C 
ENDBRANCH  21  23
ENDBRANCH  12  19
ENDBRANCH   1  12
BRANCH   2  28
ATOM     28  C   UNL     1       3.014   4.958  -2.979  0.00  0.00    +0.201 C 
BRANCH  28  29
ATOM     29  N   UNL     1       2.501   5.744  -4.104  0.00  0.00    -0.300 N 
ATOM     30  C   UNL     1       3.304   6.029  -5.149  0.00  0.00    +0.280 C 
ATOM     31  O   UNL     1       4.455   5.632  -5.158  0.00  0.00    -0.267 OA
ATOM     32  H   UNL     1       1.584   6.060  -4.097  0.00  0.00    +0.150 HD
BRANCH  30  33
ATOM     33  C   UNL     1       2.791   6.816  -6.275  0.00  0.00    +0.189 A 
ATOM     34  C   UNL     1       3.493   7.173  -7.390  0.00  0.00    +0.054 A 
ATOM     35  C   UNL     1       2.617   7.915  -8.198  0.00  0.00    +0.042 A 
ATOM     36  C   UNL     1       1.434   7.977  -7.549  0.00  0.00    +0.196 A 
ATOM     37  O   UNL     1       1.541   7.309  -6.393  0.00  0.00    -0.458 OA
ENDBRANCH  30  33
ENDBRANCH  28  29
ENDBRANCH   2  28
TORSDOF 8
