REMARK  Name = ZINC05097535
REMARK  9 active torsions:
REMARK  status: ('A' for Active; 'I' for Inactive)
REMARK    1  A    between atoms: C_1  and  C_2
REMARK    2  A    between atoms: C_2  and  C_3
REMARK    3  A    between atoms: C_3  and  C_5
REMARK    4  A    between atoms: C_3  and  N_6
REMARK    5  A    between atoms: C_7  and  C_9
REMARK    6  A    between atoms: C_11  and  C_22
REMARK    7  A    between atoms: N_13  and  C_14
REMARK    8  A    between atoms: C_16  and  C_21
REMARK    9  A    between atoms: C_19  and  C_20
REMARK                            x       y       z     vdW  Elec       q    Type
REMARK                         _______ _______ _______ _____ _____    ______ ____
ROOT
ATOM      1  C   UNL     1       2.353   0.843   0.088  0.00  0.00    +0.130 A 
ATOM      2  C   UNL     1       1.461  -0.208   0.183  0.00  0.00    +0.063 A 
ATOM      3  C   UNL     1       0.224   0.315  -0.235  0.00  0.00    +0.097 A 
ATOM      4  N   UNL     1       0.411   1.581  -0.545  0.00  0.00    -0.166 NA
ATOM      5  N   UNL     1       1.637   1.918  -0.368  0.00  0.00    -0.227 N 
ENDROOT
BRANCH   5   6
ATOM      6  C   UNL     1       2.164   3.192  -0.607  0.00  0.00    +0.069 A 
ATOM      7  C   UNL     1       3.195   3.360  -1.523  0.00  0.00    +0.031 A 
ATOM      8  C   UNL     1       3.712   4.618  -1.756  0.00  0.00    -0.048 A 
ATOM      9  C   UNL     1       3.206   5.712  -1.078  0.00  0.00    +0.004 A 
ATOM     10  C   UNL     1       2.180   5.550  -0.165  0.00  0.00    +0.006 A 
ATOM     11  C   UNL     1       1.654   4.294   0.068  0.00  0.00    -0.025 A 
ATOM     12  C   UNL     1       0.531   4.118   1.058  0.00  0.00    +0.046 C 
ATOM     13  C   UNL     1       4.830   4.801  -2.751  0.00  0.00    +0.044 C 
ENDBRANCH   5   6
BRANCH   3  14
ATOM     14  C   UNL     1      -1.060  -0.426  -0.313  0.00  0.00    +0.037 A 
ATOM     15  C   UNL     1      -2.215   0.221  -0.747  0.00  0.00    +0.013 A 
ATOM     16  C   UNL     1      -3.406  -0.473  -0.819  0.00  0.00    +0.001 A 
ATOM     17  C   UNL     1      -3.456  -1.808  -0.460  0.00  0.00    +0.003 A 
ATOM     18  C   UNL     1      -2.313  -2.457  -0.028  0.00  0.00    +0.039 A 
ATOM     19  C   UNL     1      -1.113  -1.774   0.042  0.00  0.00    +0.133 A 
ATOM     20  F   UNL     1       0.004  -2.409   0.459  0.00  0.00    -0.205 F 
ENDBRANCH   3  14
BRANCH   1  22
ATOM     21  N   UNL     1       4.508   1.953   0.388  0.00  0.00    -0.308 N 
ATOM     22  C   UNL     1       3.788   0.814   0.411  0.00  0.00    +0.263 C 
ATOM     23  O   UNL     1       4.324  -0.239   0.700  0.00  0.00    -0.269 OA
ATOM     24  H   UNL     1       4.068   2.801   0.218  0.00  0.00    +0.149 HD
BRANCH  21  25
ATOM     25  C   UNL     1       5.954   1.910   0.618  0.00  0.00    +0.070 C 
ATOM     26  C   UNL     1       6.675   1.668  -0.709  0.00  0.00    +0.028 C 
BRANCH  25  28
ATOM     27  C   UNL     1       5.783   3.430   2.594  0.00  0.00    +0.005 C 
ATOM     28  C   UNL     1       6.415   3.242   1.213  0.00  0.00    +0.018 C 
ENDBRANCH  25  28
ENDBRANCH  21  25
ENDBRANCH   1  22
TORSDOF 5
