REMARK  Name = ZINC38597683
REMARK  11 active torsions:
REMARK  status: ('A' for Active; 'I' for Inactive)
REMARK    1  A    between atoms: C_1  and  C_2
REMARK    2  A    between atoms: C_2  and  C_3
REMARK    3  A    between atoms: C_3  and  C_4
REMARK    4  A    between atoms: C_4  and  O_5
REMARK    5  A    between atoms: O_5  and  C_6
REMARK    6  A    between atoms: C_9  and  C_12
REMARK    7  A    between atoms: N_14  and  C_15
REMARK    8  A    between atoms: C_15  and  C_16
REMARK    9  A    between atoms: C_16  and  C_18
REMARK   10  A    between atoms: C_16  and  N_23
REMARK   11  A    between atoms: N_26  and  C_29
REMARK                            x       y       z     vdW  Elec       q    Type
REMARK                         _______ _______ _______ _____ _____    ______ ____
ROOT
ATOM      1  C   UNL     1       3.355 -10.310  -5.433  0.00  0.00    +0.017 C 
ENDROOT
BRANCH   1   2
ATOM      2  N   UNL     1       2.939  -9.764  -6.732  0.00  0.00    +0.389 N 
ATOM      3  C   UNL     1       1.649 -10.350  -7.117  0.00  0.00    -0.059 C 
ATOM      4  C   UNL     1       1.159  -9.696  -8.414  0.00  0.00    +0.086 C 
ATOM      5  N   UNL     1       2.214  -9.829  -9.430  0.00  0.00    -0.333 N 
ATOM      6  C   UNL     1       3.580  -9.416  -9.070  0.00  0.00    +0.086 C 
ATOM      7  C   UNL     1       3.955 -10.083  -7.743  0.00  0.00    -0.059 C 
ATOM      8  H   UNL     1       2.842  -8.762  -6.658  0.00  0.00    -0.081 HD
BRANCH   5   9
ATOM      9  C   UNL     1       1.927 -10.334 -10.702  0.00  0.00    +0.030 A 
ATOM     10  C   UNL     1       0.614 -10.604 -11.063  0.00  0.00    +0.026 A 
ATOM     11  C   UNL     1       0.333 -11.102 -12.320  0.00  0.00    +0.040 A 
ATOM     12  C   UNL     1       1.359 -11.332 -13.221  0.00  0.00    +0.124 A 
ATOM     13  C   UNL     1       2.670 -11.063 -12.863  0.00  0.00    +0.040 A 
ATOM     14  C   UNL     1       2.955 -10.560 -11.608  0.00  0.00    +0.026 A 
ATOM     15  F   UNL     1       1.082 -11.819 -14.450  0.00  0.00    -0.205 F 
ENDBRANCH   5   9
ENDBRANCH   1   2
BRANCH   1  16
ATOM     16  C   UNL     1       3.595 -11.792  -5.566  0.00  0.00    +0.093 A 
ATOM     17  C   UNL     1       4.684 -12.455  -5.136  0.00  0.00    +0.043 A 
ATOM     18  C   UNL     1       4.491 -13.816  -5.463  0.00  0.00    +0.041 A 
ATOM     19  C   UNL     1       3.295 -13.905  -6.073  0.00  0.00    +0.195 A 
ATOM     20  O   UNL     1       2.755 -12.677  -6.127  0.00  0.00    -0.469 OA
ENDBRANCH   1  16
BRANCH   1  21
ATOM     21  C   UNL     1       2.255 -10.062  -4.399  0.00  0.00    +0.097 C 
BRANCH  21  24
ATOM     22  C   UNL     1       0.956  -8.180  -3.557  0.00  0.00    +0.244 C 
ATOM     23  O   UNL     1       0.279  -8.968  -2.925  0.00  0.00    -0.270 OA
ATOM     24  N   UNL     1       1.970  -8.627  -4.325  0.00  0.00    -0.312 N 
ATOM     25  H   UNL     1       2.510  -7.998  -4.829  0.00  0.00    +0.149 HD
BRANCH  22  29
ATOM     26  C   UNL     1       0.130  -4.021  -3.341  0.00  0.00    +0.121 A 
ATOM     27  C   UNL     1      -0.646  -4.920  -2.619  0.00  0.00    +0.046 A 
ATOM     28  C   UNL     1      -0.381  -6.269  -2.686  0.00  0.00    +0.016 A 
ATOM     29  C   UNL     1       0.669  -6.735  -3.482  0.00  0.00    +0.037 A 
ATOM     30  C   UNL     1       1.446  -5.827  -4.207  0.00  0.00    +0.016 A 
ATOM     31  C   UNL     1       1.172  -4.480  -4.138  0.00  0.00    +0.046 A 
BRANCH  26  32
ATOM     32  O   UNL     1      -0.134  -2.691  -3.271  0.00  0.00    -0.492 OA
BRANCH  32  33
ATOM     33  C   UNL     1      -1.219  -2.288  -2.433  0.00  0.00    +0.229 C 
BRANCH  33  34
ATOM     34  C   UNL     1      -1.363  -0.766  -2.483  0.00  0.00    +0.041 C 
BRANCH  34  36
ATOM     35  C   UNL     1      -2.669   1.188  -1.635  0.00  0.00    +0.004 C 
ATOM     36  C   UNL     1      -2.525  -0.334  -1.586  0.00  0.00    -0.000 C 
ENDBRANCH  34  36
ENDBRANCH  33  34
ENDBRANCH  32  33
ENDBRANCH  26  32
ENDBRANCH  22  29
ENDBRANCH  21  24
ENDBRANCH   1  21
TORSDOF 10
