REMARK  Name = ZINC05338606
REMARK  5 active torsions:
REMARK  status: ('A' for Active; 'I' for Inactive)
REMARK    1  A    between atoms: C_9  and  O_29
REMARK    2  A    between atoms: C_10  and  C_11
REMARK    3  A    between atoms: N_12  and  C_13
REMARK    4  A    between atoms: C_15  and  C_20
REMARK    5  A    between atoms: C_17  and  N_19
REMARK                            x       y       z     vdW  Elec       q    Type
REMARK                         _______ _______ _______ _____ _____    ______ ____
ROOT
ATOM      1  C   UNL     1      -2.538   8.047   0.069  0.00  0.00    +0.066 A 
ATOM      2  C   UNL     1      -2.701   9.133   0.930  0.00  0.00    +0.041 A 
ATOM      3  C   UNL     1      -3.905   9.835   0.941  0.00  0.00    +0.041 A 
ATOM      4  C   UNL     1      -4.943   9.450   0.092  0.00  0.00    +0.036 A 
ATOM      5  C   UNL     1      -4.779   8.370  -0.764  0.00  0.00    +0.027 A 
ATOM      6  C   UNL     1      -3.580   7.672  -0.783  0.00  0.00    +0.050 A 
ENDROOT
BRANCH   3   7
ATOM      7  C   UNL     1      -4.081  10.986   1.852  0.00  0.00    +0.229 A 
ATOM      8  N   UNL     1      -3.175  11.429   2.686  0.00  0.00    -0.209 NA
ATOM      9  C   UNL     1      -3.683  12.494   3.358  0.00  0.00    +0.110 A 
ATOM     10  C   UNL     1      -3.177  13.343   4.345  0.00  0.00    +0.031 A 
ATOM     11  C   UNL     1      -3.961  14.361   4.838  0.00  0.00    +0.002 A 
ATOM     12  C   UNL     1      -5.250  14.549   4.361  0.00  0.00    +0.004 A 
ATOM     13  C   UNL     1      -5.764  13.718   3.386  0.00  0.00    +0.048 A 
ATOM     14  C   UNL     1      -4.989  12.688   2.878  0.00  0.00    +0.156 A 
ATOM     15  O   UNL     1      -5.196  11.736   1.941  0.00  0.00    -0.435 OA
ENDBRANCH   3   7
BRANCH   5  16
ATOM     16  N   UNL     1      -5.821   7.988  -1.613  0.00  0.00    -0.358 N 
ATOM     17  H   UNL     1      -6.658   8.478  -1.603  0.00  0.00    +0.142 HD
ATOM     18  H   UNL     1      -5.707   7.234  -2.211  0.00  0.00    +0.142 HD
ENDBRANCH   5  16
BRANCH   1  20
ATOM     19  C   UNL     1      -1.368   6.049   0.047  0.00  0.00    +0.123 C 
ATOM     20  N   UNL     1      -1.359   7.355   0.054  0.00  0.00    -0.255 NA
BRANCH  19  30
ATOM     21  C   UNL     1      -0.013   1.076   0.008  0.00  0.00    +0.001 A 
ATOM     22  C   UNL     1      -1.234   1.745   0.017  0.00  0.00    +0.001 A 
ATOM     23  C   UNL     1      -1.285   3.108   0.031  0.00  0.00    +0.009 A 
ATOM     24  C   UNL     1      -0.095   3.845   0.024  0.00  0.00    -0.006 A 
ATOM     25  C   UNL     1       1.148   3.168   0.008  0.00  0.00    -0.017 A 
ATOM     26  C   UNL     1       1.164   1.763   0.000  0.00  0.00    +0.008 A 
ATOM     27  C   UNL     1       2.343   3.910   0.001  0.00  0.00    +0.012 A 
ATOM     28  C   UNL     1       2.318   5.269   0.009  0.00  0.00    +0.046 A 
ATOM     29  C   UNL     1       1.120   5.982   0.024  0.00  0.00    +0.126 A 
ATOM     30  C   UNL     1      -0.104   5.308   0.032  0.00  0.00    +0.042 A 
BRANCH  29  31
ATOM     31  O   UNL     1       1.143   7.338   0.031  0.00  0.00    -0.506 OA
ATOM     32  H   UNL     1       1.158   7.727   0.916  0.00  0.00    +0.292 HD
ENDBRANCH  29  31
ENDBRANCH  19  30
ENDBRANCH   1  20
TORSDOF 5
