REMARK  Name = ZINC04410619
REMARK  6 active torsions:
REMARK  status: ('A' for Active; 'I' for Inactive)
REMARK    1  A    between atoms: C_5  and  N_7
REMARK    2  A    between atoms: C_12  and  S_16
REMARK    3  A    between atoms: S_16  and  C_17
REMARK    4  A    between atoms: C_17  and  C_18
REMARK    5  A    between atoms: N_20  and  C_21
REMARK    6  A    between atoms: C_22  and  C_30
REMARK                            x       y       z     vdW  Elec       q    Type
REMARK                         _______ _______ _______ _____ _____    ______ ____
ROOT
ATOM      1  S   UNL     1       0.235  -6.955  -0.050  0.00  0.00    -0.096 S 
ENDROOT
BRANCH   1   7
ATOM      2  N   UNL     1       1.237  -2.081  -0.022  0.00  0.00    -0.212 N 
ATOM      3  C   UNL     1       0.143  -2.900  -0.022  0.00  0.00    +0.167 A 
ATOM      4  C   UNL     1       0.631  -4.221  -0.033  0.00  0.00    +0.071 A 
ATOM      5  C   UNL     1       2.041  -4.141  -0.040  0.00  0.00    +0.147 A 
ATOM      6  N   UNL     1       2.384  -2.885  -0.039  0.00  0.00    -0.172 NA
ATOM      7  C   UNL     1      -0.301  -5.277  -0.035  0.00  0.00    +0.111 A 
ATOM      8  N   UNL     1      -1.597  -4.975  -0.026  0.00  0.00    -0.228 NA
ATOM      9  C   UNL     1      -2.006  -3.720  -0.016  0.00  0.00    +0.224 A 
ATOM     10  N   UNL     1      -1.174  -2.701  -0.014  0.00  0.00    -0.216 NA
BRANCH   2  15
ATOM     11  C   UNL     1      -0.017   1.377   0.010  0.00  0.00    +0.002 A 
ATOM     12  C   UNL     1       1.170   2.087   0.002  0.00  0.00    +0.002 A 
ATOM     13  C   UNL     1       2.380   1.417  -0.013  0.00  0.00    +0.022 A 
ATOM     14  C   UNL     1       2.406   0.035  -0.021  0.00  0.00    +0.066 A 
ATOM     15  C   UNL     1       1.214  -0.681  -0.014  0.00  0.00    +0.086 A 
ATOM     16  C   UNL     1       0.002  -0.004   0.002  0.00  0.00    +0.029 A 
ATOM     17 CL   UNL     1       3.925  -0.806  -0.041  0.00  0.00    -0.081 Cl
ENDBRANCH   2  15
ENDBRANCH   1   7
BRANCH   1  18
ATOM     18  C   UNL     1      -1.308  -7.909  -0.048  0.00  0.00    +0.172 C 
BRANCH  18  19
ATOM     19  C   UNL     1      -0.989  -9.382  -0.060  0.00  0.00    +0.228 C 
ATOM     20  O   UNL     1       0.166  -9.751  -0.069  0.00  0.00    -0.275 OA
ATOM     21  N   UNL     1      -1.987 -10.288  -0.060  0.00  0.00    -0.278 N 
ATOM     22  H   UNL     1      -2.910  -9.992  -0.053  0.00  0.00    +0.155 HD
BRANCH  21  23
ATOM     23  C   UNL     1      -1.692 -11.644  -0.071  0.00  0.00    +0.090 A 
ATOM     24  C   UNL     1      -2.579 -12.708  -0.079  0.00  0.00    +0.084 A 
ATOM     25  C   UNL     1      -2.014 -14.045  -0.091  0.00  0.00    -0.018 A 
ATOM     26  C   UNL     1      -0.663 -14.073  -0.092  0.00  0.00    -0.004 A 
ATOM     27  S   UNL     1      -0.179 -12.372  -0.085  0.00  0.00    -0.077 S 
ATOM     28  C   UNL     1       0.212 -15.289  -0.101  0.00  0.00    +0.043 C 
ATOM     29  C   UNL     1      -0.650 -16.505   0.272  0.00  0.00    +0.005 C 
ATOM     30  C   UNL     1      -1.933 -16.478  -0.564  0.00  0.00    +0.005 C 
ATOM     31  C   UNL     1      -2.831 -15.328  -0.102  0.00  0.00    +0.037 C 
BRANCH  24  32
ATOM     32  C   UNL     1      -3.996 -12.497  -0.076  0.00  0.00    +0.102 C 
ATOM     33  N   UNL     1      -5.120 -12.331  -0.073  0.00  0.00    -0.191 NA
ENDBRANCH  24  32
ENDBRANCH  21  23
ENDBRANCH  18  19
ENDBRANCH   1  18
TORSDOF 6
