REMARK  Name = ZINC11936749
REMARK  8 active torsions:
REMARK  status: ('A' for Active; 'I' for Inactive)
REMARK    1  A    between atoms: C_1  and  N_2
REMARK    2  A    between atoms: N_2  and  C_3
REMARK    3  A    between atoms: C_9  and  C_10
REMARK    4  A    between atoms: C_9  and  N_57
REMARK    5  A    between atoms: C_10  and  C_11
REMARK    6  A    between atoms: C_11  and  C_12
REMARK    7  A    between atoms: C_18  and  C_20
REMARK    8  A    between atoms: C_23  and  C_25
REMARK                            x       y       z     vdW  Elec       q    Type
REMARK                         _______ _______ _______ _____ _____    ______ ____
ROOT
ATOM      1  C   UNL     1       1.270   7.841  -4.781  0.00  0.00    +0.059 C 
ATOM      2  C   UNL     1      -0.015   7.233  -5.350  0.00  0.00    +0.019 C 
ATOM      3  C   UNL     1      -1.154   7.434  -4.346  0.00  0.00    -0.017 C 
ATOM      4  C   UNL     1      -0.769   6.793  -3.011  0.00  0.00    -0.079 C 
ATOM      5  C   UNL     1       1.584   7.188  -3.433  0.00  0.00    -0.056 C 
ATOM      6  N   UNL     1       0.461   7.438  -2.505  0.00  0.00    +0.381 N 
ATOM      7  H   UNL     1       0.303   8.451  -2.439  0.00  0.00    -0.082 HD
ENDROOT
BRANCH   1   9
ATOM      8  C   UNL     1       2.759   6.231  -6.059  0.00  0.00    +0.132 C 
ATOM      9  N   UNL     1       2.377   7.602  -5.710  0.00  0.00    -0.299 N 
ATOM     10  C   UNL     1       3.045   8.644  -6.245  0.00  0.00    +0.253 C 
ATOM     11  O   UNL     1       2.798   9.778  -5.878  0.00  0.00    -0.269 OA
BRANCH  10  12
ATOM     12  C   UNL     1       4.068   8.411  -7.268  0.00  0.00    +0.075 A 
ATOM     13  C   UNL     1       4.944   9.319  -7.847  0.00  0.00    +0.021 A 
ATOM     14  C   UNL     1       5.826   8.870  -8.788  0.00  0.00    +0.020 A 
ATOM     15  C   UNL     1       5.803   7.527  -9.137  0.00  0.00    +0.055 A 
ATOM     16  S   UNL     1       4.502   6.890  -8.094  0.00  0.00    -0.081 S 
BRANCH  15  17
ATOM     17  C   UNL     1       6.637   6.812 -10.117  0.00  0.00    +0.145 A 
ATOM     18  N   UNL     1       6.564   5.479 -10.408  0.00  0.00    -0.344 N 
ATOM     19  H   UNL     1       5.941   4.814  -9.998  0.00  0.00    +0.167 HD
ATOM     20  C   UNL     1       7.506   5.228 -11.368  0.00  0.00    +0.104 A 
ATOM     21  C   UNL     1       8.128   6.398 -11.628  0.00  0.00    +0.130 A 
ATOM     22  N   UNL     1       7.585   7.346 -10.858  0.00  0.00    -0.236 NA
ENDBRANCH  15  17
ENDBRANCH  10  12
ENDBRANCH   1   9
BRANCH   6  23
ATOM     23  C   UNL     1       0.789   6.916  -1.163  0.00  0.00    -0.078 C 
BRANCH  23  24
ATOM     24  C   UNL     1       1.129   5.425  -1.234  0.00  0.00    -0.014 C 
BRANCH  24  25
ATOM     25  C   UNL     1       1.466   4.912   0.167  0.00  0.00    +0.033 C 
BRANCH  25  26
ATOM     26  C   UNL     1       1.801   3.444   0.097  0.00  0.00    -0.047 A 
ATOM     27  C   UNL     1       3.106   3.042  -0.114  0.00  0.00    +0.003 A 
ATOM     28  C   UNL     1       3.413   1.695  -0.177  0.00  0.00    +0.000 A 
ATOM     29  C   UNL     1       2.414   0.751  -0.030  0.00  0.00    +0.000 A 
ATOM     30  C   UNL     1       1.107   1.154   0.175  0.00  0.00    +0.000 A 
ATOM     31  C   UNL     1       0.802   2.500   0.244  0.00  0.00    +0.003 A 
ENDBRANCH  25  26
ENDBRANCH  24  25
ENDBRANCH  23  24
ENDBRANCH   6  23
TORSDOF 7
