REMARK  Name = ZINC01399133
REMARK  8 active torsions:
REMARK  status: ('A' for Active; 'I' for Inactive)
REMARK    1  A    between atoms: C_1  and  C_2
REMARK    2  A    between atoms: C_3  and  C_14
REMARK    3  A    between atoms: C_5  and  C_7
REMARK    4  A    between atoms: C_14  and  C_16
REMARK    5  A    between atoms: C_16  and  C_17
REMARK    6  A    between atoms: C_17  and  C_19
REMARK    7  A    between atoms: C_17  and  O_28
REMARK    8  A    between atoms: C_24  and  N_25
REMARK                            x       y       z     vdW  Elec       q    Type
REMARK                         _______ _______ _______ _____ _____    ______ ____
ROOT
ATOM      1  C   UNL     1      -1.228   2.259   0.169  0.00  0.00    +0.174 C 
ATOM      2  O   UNL     1      -2.367   1.851   0.062  0.00  0.00    -0.291 OA
ENDROOT
BRANCH   1   5
ATOM      3  C   UNL     1      -1.470  -0.815   0.191  0.00  0.00    +0.067 C 
ATOM      4  C   UNL     1      -0.176  -0.051   0.302  0.00  0.00    +0.057 A 
ATOM      5  C   UNL     1      -0.158   1.344   0.286  0.00  0.00    +0.078 A 
ATOM      6  S   UNL     1       1.595   1.651   0.448  0.00  0.00    -0.064 S 
ATOM      7  C   UNL     1       2.110  -0.006   0.518  0.00  0.00    +0.109 A 
ATOM      8  N   UNL     1       0.965  -0.670   0.418  0.00  0.00    -0.244 NA
BRANCH   7   9
ATOM      9  C   UNL     1       3.479  -0.543   0.653  0.00  0.00    +0.007 A 
ATOM     10  C   UNL     1       4.568   0.327   0.738  0.00  0.00    +0.012 A 
ATOM     11  C   UNL     1       5.844  -0.180   0.868  0.00  0.00    +0.020 A 
ATOM     12  C   UNL     1       6.048  -1.549   0.905  0.00  0.00    +0.041 A 
ATOM     13  C   UNL     1       4.972  -2.418   0.816  0.00  0.00    +0.020 A 
ATOM     14  C   UNL     1       3.691  -1.923   0.690  0.00  0.00    +0.012 A 
ATOM     15 CL   UNL     1       7.657  -2.180   1.063  0.00  0.00    -0.084 Cl
ENDBRANCH   7   9
ENDBRANCH   1   5
BRANCH   1  16
ATOM     16  C   UNL     1      -0.955   3.741   0.177  0.00  0.00    +0.116 C 
BRANCH  16  17
ATOM     17  C   UNL     1      -2.275   4.503   0.037  0.00  0.00    +0.154 C 
BRANCH  17  18
ATOM     18  C   UNL     1      -2.017   5.981   0.168  0.00  0.00    +0.011 A 
ATOM     19  C   UNL     1      -1.867   6.760  -0.965  0.00  0.00    +0.008 A 
ATOM     20  C   UNL     1      -1.635   8.117  -0.844  0.00  0.00    +0.000 A 
ATOM     21  C   UNL     1      -1.544   8.695   0.408  0.00  0.00    +0.002 A 
ATOM     22  C   UNL     1      -1.690   7.916   1.541  0.00  0.00    +0.033 A 
ATOM     23  C   UNL     1      -1.926   6.559   1.421  0.00  0.00    +0.132 A 
BRANCH  23  24
ATOM     24  N   UNL     1      -2.081   5.724   2.633  0.00  0.00    +0.057 N 
ATOM     25  O   UNL     1      -2.112   6.247   3.733  0.00  0.00    -0.126 OA
ATOM     26  O   UNL     1      -2.178   4.514   2.532  0.00  0.00    -0.126 OA
ENDBRANCH  23  24
ENDBRANCH  17  18
BRANCH  17  27
ATOM     27  O   UNL     1      -2.848   4.230  -1.243  0.00  0.00    -0.387 OA
ATOM     28  H   UNL     1      -2.288   4.490  -1.988  0.00  0.00    +0.210 HD
ENDBRANCH  17  27
ENDBRANCH  16  17
ENDBRANCH   1  16
TORSDOF 7
