REMARK  Name = ZINC35258432
REMARK  3 active torsions:
REMARK  status: ('A' for Active; 'I' for Inactive)
REMARK    1  A    between atoms: C_7  and  N_14
REMARK    2  A    between atoms: N_14  and  C_15
REMARK    3  A    between atoms: C_18  and  C_21
REMARK                            x       y       z     vdW  Elec       q    Type
REMARK                         _______ _______ _______ _____ _____    ______ ____
ROOT
ATOM      1  N   UNL     1       3.602  -2.478  -1.245  0.00  0.00    +0.383 N 
ATOM      2  H   UNL     1       3.069  -2.214  -2.060  0.00  0.00    -0.085 HD
ATOM      3  H   UNL     1       4.520  -2.063  -1.294  0.00  0.00    -0.085 HD
ENDROOT
BRANCH   1   9
ATOM      4  C   UNL     1      -0.019   1.526   0.010  0.00  0.00    +0.000 C 
ATOM      5  C   UNL     1       1.417   2.055  -0.000  0.00  0.00    +0.000 C 
ATOM      6  C   UNL     1       2.157   1.548   1.239  0.00  0.00    +0.004 C 
ATOM      7  C   UNL     1       2.178   0.019   1.231  0.00  0.00    -0.009 C 
ATOM      8  C   UNL     1       2.894  -0.475  -0.028  0.00  0.00    -0.012 C 
ATOM      9  C   UNL     1       2.914  -2.005  -0.036  0.00  0.00    -0.071 C 
ATOM     10  C   UNL     1       1.479  -2.534  -0.026  0.00  0.00    -0.015 C 
ATOM     11  C   UNL     1       0.763  -2.041   1.233  0.00  0.00    +0.002 C 
ATOM     12  C   UNL     1       0.742  -0.511   1.242  0.00  0.00    -0.008 C 
ATOM     13  C   UNL     1       0.002  -0.004   0.002  0.00  0.00    +0.004 C 
ENDBRANCH   1   9
BRANCH   1  14
ATOM     14  C   UNL     1       3.728  -3.941  -1.195  0.00  0.00    -0.071 C 
ATOM     15  C   UNL     1       4.638  -4.335  -0.031  0.00  0.00    -0.015 C 
ATOM     16  C   UNL     1       6.021  -3.711  -0.231  0.00  0.00    +0.011 C 
ATOM     17  C   UNL     1       6.624  -4.216  -1.543  0.00  0.00    +0.093 C 
ATOM     18  C   UNL     1       5.713  -3.822  -2.708  0.00  0.00    +0.011 C 
ATOM     19  C   UNL     1       4.331  -4.446  -2.508  0.00  0.00    -0.015 C 
BRANCH  17  20
ATOM     20  C   UNL     1       8.006  -3.592  -1.743  0.00  0.00    +0.393 C 
ATOM     21  F   UNL     1       8.839  -3.952  -0.678  0.00  0.00    -0.170 F 
ATOM     22  F   UNL     1       8.557  -4.053  -2.943  0.00  0.00    -0.170 F 
ATOM     23  F   UNL     1       7.886  -2.199  -1.790  0.00  0.00    -0.170 F 
ENDBRANCH  17  20
ENDBRANCH   1  14
TORSDOF 3
