REMARK  Name = ZINC35051118
REMARK  11 active torsions:
REMARK  status: ('A' for Active; 'I' for Inactive)
REMARK    1  A    between atoms: C_3  and  O_37
REMARK    2  A    between atoms: C_6  and  C_7
REMARK    3  A    between atoms: C_7  and  C_8
REMARK    4  A    between atoms: C_8  and  C_10
REMARK    5  A    between atoms: C_8  and  N_28
REMARK    6  A    between atoms: C_17  and  C_24
REMARK    7  A    between atoms: C_19  and  O_20
REMARK    8  A    between atoms: C_29  and  C_31
REMARK    9  A    between atoms: C_31  and  C_32
REMARK   10  A    between atoms: C_32  and  C_33
REMARK   11  A    between atoms: C_33  and  C_34
REMARK                            x       y       z     vdW  Elec       q    Type
REMARK                         _______ _______ _______ _____ _____    ______ ____
ROOT
ATOM      1  C   UNL     1      -1.133  -2.214  -2.525  0.00  0.00    +0.163 C 
ENDROOT
BRANCH   1   2
ATOM      2  C   UNL     1      -2.491  -2.763  -2.173  0.00  0.00    +0.238 C 
ATOM      3  O   UNL     1      -3.494  -2.253  -2.641  0.00  0.00    -0.273 OA
ATOM      4  N   UNL     1      -2.595  -3.795  -1.359  0.00  0.00    -0.284 N 
ATOM      5  C   UNL     1      -3.808  -4.375  -1.147  0.00  0.00    +0.037 A 
ATOM      6  C   UNL     1      -3.994  -5.221  -0.039  0.00  0.00    +0.024 A 
ATOM      7  C   UNL     1      -5.200  -5.806   0.184  0.00  0.00    +0.014 A 
ATOM      8  C   UNL     1      -6.271  -5.564  -0.695  0.00  0.00    +0.029 A 
ATOM      9  C   UNL     1      -7.531  -6.161  -0.480  0.00  0.00    +0.072 A 
ATOM     10  C   UNL     1      -8.549  -5.891  -1.372  0.00  0.00    +0.100 A 
ATOM     11  C   UNL     1      -8.319  -5.049  -2.451  0.00  0.00    +0.285 A 
ATOM     12  O   UNL     1      -7.123  -4.485  -2.651  0.00  0.00    -0.425 OA
ATOM     13  C   UNL     1      -6.093  -4.715  -1.810  0.00  0.00    +0.141 A 
ATOM     14  C   UNL     1      -4.863  -4.121  -2.025  0.00  0.00    +0.070 A 
ATOM     15  H   UNL     1      -1.807  -4.141  -0.912  0.00  0.00    +0.155 HD
BRANCH   9  16
ATOM     16  C   UNL     1      -7.760  -7.073   0.697  0.00  0.00    +0.418 C 
ATOM     17  F   UNL     1      -7.880  -6.309   1.863  0.00  0.00    -0.166 F 
ATOM     18  F   UNL     1      -8.935  -7.806   0.497  0.00  0.00    -0.166 F 
ATOM     19  F   UNL     1      -6.679  -7.952   0.824  0.00  0.00    -0.166 F 
ENDBRANCH   9  16
BRANCH  11  20
ATOM     20  O   UNL     1      -9.321  -4.793  -3.314  0.00  0.00    -0.480 OA
ATOM     21  H   UNL     1      -9.076  -4.198  -4.035  0.00  0.00    +0.295 HD
ENDBRANCH  11  20
ENDBRANCH   1   2
BRANCH   1  22
ATOM     22  N   UNL     1      -1.286  -1.078  -3.438  0.00  0.00    -0.304 N 
ATOM     23  C   UNL     1      -0.281  -0.744  -4.272  0.00  0.00    +0.214 C 
ATOM     24  O   UNL     1       0.749  -1.383  -4.267  0.00  0.00    -0.276 OA
ATOM     25  H   UNL     1      -2.110  -0.567  -3.441  0.00  0.00    +0.149 HD
BRANCH  23  26
ATOM     26  C   UNL     1      -0.439   0.425  -5.210  0.00  0.00    +0.096 C 
BRANCH  26  27
ATOM     27  C   UNL     1       0.836   0.588  -6.040  0.00  0.00    +0.020 C 
BRANCH  27  28
ATOM     28  C   UNL     1       0.676   1.774  -6.994  0.00  0.00    +0.125 C 
BRANCH  28  29
ATOM     29  C   UNL     1       1.932   1.934  -7.811  0.00  0.00    +0.356 C 
ATOM     30  O   UNL     1       2.868   1.171  -7.646  0.00  0.00    -0.246 OA
ATOM     31  O   UNL     1       2.012   2.828  -8.637  0.00  0.00    -0.246 OA
ENDBRANCH  28  29
ENDBRANCH  27  28
ENDBRANCH  26  27
ENDBRANCH  23  26
ENDBRANCH   1  22
BRANCH   1  32
ATOM     32  C   UNL     1      -0.424  -1.752  -1.250  0.00  0.00    +0.067 C 
BRANCH  32  38
ATOM     33  C   UNL     1       1.232  -0.002  -1.927  0.00  0.00    +0.007 A 
ATOM     34  C   UNL     1       2.518   0.399  -2.234  0.00  0.00    +0.045 A 
ATOM     35  C   UNL     1       3.557  -0.520  -2.200  0.00  0.00    +0.117 A 
ATOM     36  C   UNL     1       3.301  -1.840  -1.857  0.00  0.00    +0.045 A 
ATOM     37  C   UNL     1       2.013  -2.235  -1.550  0.00  0.00    +0.007 A 
ATOM     38  C   UNL     1       0.980  -1.317  -1.585  0.00  0.00    -0.045 A 
BRANCH  35  39
ATOM     39  O   UNL     1       4.822  -0.128  -2.502  0.00  0.00    -0.507 OA
ATOM     40  H   UNL     1       5.332   0.178  -1.739  0.00  0.00    +0.292 HD
ENDBRANCH  35  39
ENDBRANCH  32  38
ENDBRANCH   1  32
TORSDOF 11
