REMARK  Name = ZINC21252592
REMARK  12 active torsions:
REMARK  status: ('A' for Active; 'I' for Inactive)
REMARK    1  A    between atoms: C_1  and  O_2
REMARK    2  A    between atoms: O_2  and  C_3
REMARK    3  A    between atoms: C_6  and  O_39
REMARK    4  A    between atoms: C_7  and  C_9
REMARK    5  A    between atoms: C_14  and  C_24
REMARK    6  A    between atoms: C_27  and  O_34
REMARK    7  A    between atoms: C_28  and  O_32
REMARK    8  A    between atoms: C_29  and  O_30
REMARK    9  A    between atoms: O_30  and  C_31
REMARK   10  A    between atoms: O_32  and  C_33
REMARK   11  A    between atoms: O_34  and  C_35
REMARK   12  A    between atoms: O_39  and  C_40
REMARK                            x       y       z     vdW  Elec       q    Type
REMARK                         _______ _______ _______ _____ _____    ______ ____
ROOT
ATOM      1  C   UNL     1      -2.674   4.733   4.257  0.00  0.00    +0.036 C 
ATOM      2  C   UNL     1      -4.011   4.242   3.701  0.00  0.00    +0.060 C 
ATOM      3  C   UNL     1      -3.823   3.711   2.289  0.00  0.00    +0.017 C 
ATOM      4  C   UNL     1      -2.885   4.237   1.482  0.00  0.00    +0.037 C 
ATOM      5  C   UNL     1      -2.596   3.808   0.062  0.00  0.00    +0.140 C 
ATOM      6  N   UNL     1      -3.590   2.926  -0.510  0.00  0.00    -0.331 N 
ATOM      7  C   UNL     1      -3.803   1.653   0.013  0.00  0.00    +0.049 A 
ATOM      8  C   UNL     1      -3.511   0.513  -0.721  0.00  0.00    +0.025 A 
ATOM      9  C   UNL     1      -3.689  -0.732  -0.145  0.00  0.00    +0.002 A 
ATOM     10  C   UNL     1      -4.152  -0.844   1.154  0.00  0.00    +0.002 A 
ATOM     11  C   UNL     1      -4.462   0.291   1.884  0.00  0.00    +0.025 A 
ATOM     12  C   UNL     1      -4.306   1.536   1.300  0.00  0.00    +0.052 A 
ATOM     13  N   UNL     1      -4.676   2.713   1.942  0.00  0.00    -0.316 N 
ATOM     14  C   UNL     1      -2.056   5.288   1.940  0.00  0.00    +0.163 C 
ATOM     15  O   UNL     1      -1.230   5.758   1.182  0.00  0.00    -0.292 OA
ATOM     16  C   UNL     1      -2.161   5.842   3.330  0.00  0.00    +0.088 C 
ATOM     17  H   UNL     1      -4.190   3.258  -1.370  0.00  0.00    +0.147 HD
ATOM     18  H   UNL     1      -5.749   2.802   2.169  0.00  0.00    +0.152 HD
ENDROOT
BRANCH   1  23
ATOM     19  C   UNL     1      -3.928   6.825   7.143  0.00  0.00    +0.121 A 
ATOM     20  C   UNL     1      -3.223   6.282   8.207  0.00  0.00    +0.049 A 
ATOM     21  C   UNL     1      -2.343   5.239   7.991  0.00  0.00    +0.049 A 
ATOM     22  C   UNL     1      -2.164   4.735   6.711  0.00  0.00    +0.124 A 
ATOM     23  C   UNL     1      -2.869   5.279   5.648  0.00  0.00    +0.002 A 
ATOM     24  C   UNL     1      -3.745   6.326   5.862  0.00  0.00    +0.053 A 
BRANCH  19  26
ATOM     25  C   UNL     1      -4.928   8.320   8.699  0.00  0.00    +0.277 C 
ATOM     26  O   UNL     1      -4.794   7.852   7.355  0.00  0.00    -0.495 OA
ENDBRANCH  19  26
BRANCH  22  27
ATOM     27  O   UNL     1      -1.298   3.709   6.499  0.00  0.00    -0.495 OA
ATOM     28  C   UNL     1      -0.606   3.198   7.640  0.00  0.00    +0.277 C 
ENDBRANCH  22  27
ENDBRANCH   1  23
BRANCH   5  29
ATOM     29  C   UNL     1      -1.263   3.106   0.037  0.00  0.00    +0.023 A 
ATOM     30  C   UNL     1      -0.749   2.557   1.197  0.00  0.00    +0.013 A 
ATOM     31  C   UNL     1       0.476   1.917   1.180  0.00  0.00    +0.050 A 
ATOM     32  C   UNL     1       1.190   1.814  -0.005  0.00  0.00    +0.165 A 
ATOM     33  C   UNL     1       0.675   2.360  -1.174  0.00  0.00    +0.204 A 
ATOM     34  C   UNL     1      -0.555   3.007  -1.151  0.00  0.00    +0.170 A 
BRANCH  34  35
ATOM     35  O   UNL     1      -1.063   3.543  -2.293  0.00  0.00    -0.491 OA
ATOM     36  C   UNL     1      -0.625   4.857  -2.644  0.00  0.00    +0.277 C 
ENDBRANCH  34  35
BRANCH  33  37
ATOM     37  O   UNL     1       1.372   2.261  -2.338  0.00  0.00    -0.488 OA
ATOM     38  C   UNL     1       1.190   1.069  -3.105  0.00  0.00    +0.277 C 
ENDBRANCH  33  37
BRANCH  32  39
ATOM     39  O   UNL     1       2.393   1.179  -0.021  0.00  0.00    -0.491 OA
ATOM     40  C   UNL     1       2.860   0.642   1.218  0.00  0.00    +0.277 C 
ENDBRANCH  32  39
ENDBRANCH   5  29
TORSDOF 7
