REMARK  Name = ZINC42031942
REMARK  3 active torsions:
REMARK  status: ('A' for Active; 'I' for Inactive)
REMARK    1  A    between atoms: C_1  and  N_2
REMARK    2  A    between atoms: N_2  and  C_3
REMARK    3  A    between atoms: C_8  and  C_9
REMARK                            x       y       z     vdW  Elec       q    Type
REMARK                         _______ _______ _______ _____ _____    ______ ____
ROOT
ATOM      1  C   UNL     1       0.192  -2.676  -0.118  0.00  0.00    +0.253 C 
ATOM      2  O   UNL     1       1.198  -2.005   0.011  0.00  0.00    -0.270 OA
ATOM      3  N   UNL     1       0.288  -4.007  -0.304  0.00  0.00    -0.257 N 
ATOM      4  C   UNL     1      -0.907  -4.827  -0.554  0.00  0.00    +0.210 C 
ATOM      5  C   UNL     1      -0.801  -6.105   0.237  0.00  0.00    +0.235 C 
ATOM      6  O   UNL     1      -1.811  -6.663   0.613  0.00  0.00    -0.274 OA
ATOM      7  N   UNL     1       0.401  -6.635   0.534  0.00  0.00    -0.283 N 
ATOM      8  C   UNL     1       1.581  -5.986   0.156  0.00  0.00    +0.055 A 
ATOM      9  C   UNL     1       1.532  -4.654  -0.270  0.00  0.00    +0.058 A 
ATOM     10  C   UNL     1       2.689  -3.998  -0.646  0.00  0.00    +0.025 A 
ATOM     11  C   UNL     1       3.901  -4.665  -0.606  0.00  0.00    +0.002 A 
ATOM     12  C   UNL     1       3.955  -5.983  -0.192  0.00  0.00    +0.002 A 
ATOM     13  C   UNL     1       2.798  -6.647   0.196  0.00  0.00    +0.025 A 
ATOM     14  H   UNL     1       0.449  -7.476   1.014  0.00  0.00    +0.155 HD
ENDROOT
BRANCH   1  20
ATOM     15  C   UNL     1      -1.496  -1.239   1.028  0.00  0.00    +0.039 A 
ATOM     16  C   UNL     1      -2.746  -0.633   1.056  0.00  0.00    +0.023 A 
ATOM     17  C   UNL     1      -3.627  -0.815   0.010  0.00  0.00    +0.002 A 
ATOM     18  C   UNL     1      -3.274  -1.602  -1.075  0.00  0.00    +0.001 A 
ATOM     19  C   UNL     1      -2.040  -2.211  -1.121  0.00  0.00    +0.015 A 
ATOM     20  C   UNL     1      -1.134  -2.032  -0.072  0.00  0.00    +0.058 A 
BRANCH  15  22
ATOM     21  C   UNL     1      -0.944  -0.142   3.173  0.00  0.00    +0.125 C 
ATOM     22  N   UNL     1      -0.608  -1.058   2.080  0.00  0.00    -0.346 N 
ATOM     23  H   UNL     1       0.235  -1.537   2.091  0.00  0.00    +0.146 HD
ENDBRANCH  15  22
ENDBRANCH   1  20
TORSDOF 2
