REMARK  Name = ZINC08773014
REMARK  9 active torsions:
REMARK  status: ('A' for Active; 'I' for Inactive)
REMARK    1  A    between atoms: C_4  and  C_8
REMARK    2  A    between atoms: C_8  and  O_9
REMARK    3  A    between atoms: O_9  and  N_10
REMARK    4  A    between atoms: C_11  and  C_12
REMARK    5  A    between atoms: N_19  and  C_22
REMARK    6  A    between atoms: C_22  and  C_23
REMARK    7  A    between atoms: C_23  and  N_24
REMARK    8  A    between atoms: N_24  and  C_25
REMARK    9  A    between atoms: C_28  and  C_30
REMARK                            x       y       z     vdW  Elec       q    Type
REMARK                         _______ _______ _______ _____ _____    ______ ____
ROOT
ATOM      1  C   UNL     1      -1.293  -0.775   0.010  0.00  0.00    +0.206 C 
ATOM      2  C   UNL     1      -1.317  -1.643   1.254  0.00  0.00    +0.238 C 
ATOM      3  O   UNL     1      -1.223  -1.157   2.361  0.00  0.00    -0.274 OA
ATOM      4  N   UNL     1      -1.448  -2.975   1.083  0.00  0.00    -0.239 N 
ATOM      5  C   UNL     1      -1.552  -3.527  -0.131  0.00  0.00    +0.315 C 
ATOM      6  O   UNL     1      -1.667  -4.735  -0.193  0.00  0.00    -0.252 OA
ATOM      7  N   UNL     1      -1.540  -2.845  -1.282  0.00  0.00    -0.223 N 
ATOM      8  C   UNL     1      -1.418  -1.501  -1.316  0.00  0.00    +0.240 C 
ATOM      9  O   UNL     1      -1.409  -0.897  -2.367  0.00  0.00    -0.274 OA
ATOM     10  H   UNL     1      -1.466  -3.551   1.864  0.00  0.00    +0.159 HD
ENDROOT
BRANCH   1  12
ATOM     11  N   UNL     1      -0.015   1.275   0.009  0.00  0.00    -0.096 NA
ATOM     12  C   UNL     1       0.002  -0.004   0.002  0.00  0.00    +0.148 C 
BRANCH  11  13
ATOM     13  O   UNL     1       1.201   2.000   0.001  0.00  0.00    -0.389 OA
BRANCH  13  14
ATOM     14  C   UNL     1       1.033   3.419   0.011  0.00  0.00    +0.302 C 
BRANCH  14  18
ATOM     15  C   UNL     1       4.865   5.310  -0.016  0.00  0.00    +0.004 A 
ATOM     16  C   UNL     1       4.235   5.011  -1.209  0.00  0.00    +0.039 A 
ATOM     17  C   UNL     1       2.994   4.398  -1.202  0.00  0.00    +0.131 A 
ATOM     18  C   UNL     1       2.384   4.085   0.001  0.00  0.00    +0.046 A 
ATOM     19  C   UNL     1       3.014   4.390   1.194  0.00  0.00    +0.050 A 
ATOM     20  C   UNL     1       4.257   4.998   1.185  0.00  0.00    +0.020 A 
ATOM     21 CL   UNL     1       2.247   4.005   2.703  0.00  0.00    -0.083 Cl
ATOM     22  F   UNL     1       2.378   4.106  -2.368  0.00  0.00    -0.205 F 
ENDBRANCH  14  18
ENDBRANCH  13  14
ENDBRANCH  11  13
ENDBRANCH   1  12
BRANCH   7  23
ATOM     23  C   UNL     1      -1.663  -3.579  -2.544  0.00  0.00    +0.136 C 
BRANCH  23  24
ATOM     24  C   UNL     1      -3.141  -3.703  -2.921  0.00  0.00    +0.122 C 
BRANCH  24  25
ATOM     25  N   UNL     1      -3.264  -4.437  -4.182  0.00  0.00    -0.328 N 
ATOM     26  H   UNL     1      -2.469  -4.757  -4.637  0.00  0.00    +0.147 HD
BRANCH  25  27
ATOM     27  C   UNL     1      -4.521  -4.675  -4.729  0.00  0.00    +0.115 A 
ATOM     28  C   UNL     1      -4.630  -5.368  -5.931  0.00  0.00    +0.079 A 
ATOM     29  C   UNL     1      -5.887  -5.603  -6.460  0.00  0.00    +0.037 A 
ATOM     30  C   UNL     1      -6.995  -5.125  -5.772  0.00  0.00    +0.072 A 
ATOM     31  C   UNL     1      -6.812  -4.441  -4.588  0.00  0.00    +0.096 A 
ATOM     32 CL   UNL     1      -3.210  -5.936  -6.752  0.00  0.00    -0.080 Cl
ATOM     33  N   UNL     1      -5.593  -4.196  -4.036  0.00  0.00    -0.348 N 
ATOM     34  H   UNL     1      -5.488  -3.684  -3.152  0.00  0.00    +0.167 HD
BRANCH  30  35
ATOM     35  C   UNL     1      -8.383  -5.352  -6.314  0.00  0.00    +0.419 C 
ATOM     36  F   UNL     1      -9.321  -4.781  -5.447  0.00  0.00    -0.166 F 
ATOM     37  F   UNL     1      -8.494  -4.760  -7.576  0.00  0.00    -0.166 F 
ATOM     38  F   UNL     1      -8.623  -6.726  -6.420  0.00  0.00    -0.166 F 
ENDBRANCH  30  35
ENDBRANCH  25  27
ENDBRANCH  24  25
ENDBRANCH  23  24
ENDBRANCH   7  23
TORSDOF 9
