REMARK  Name = ZINC24808612
REMARK  8 active torsions:
REMARK  status: ('A' for Active; 'I' for Inactive)
REMARK    1  A    between atoms: C_1  and  C_2
REMARK    2  A    between atoms: C_4  and  N_24
REMARK    3  A    between atoms: C_7  and  N_8
REMARK    4  A    between atoms: C_9  and  C_11
REMARK    5  A    between atoms: C_11  and  N_12
REMARK    6  A    between atoms: N_12  and  C_13
REMARK    7  A    between atoms: C_13  and  C_15
REMARK    8  A    between atoms: C_13  and  C_16
REMARK                            x       y       z     vdW  Elec       q    Type
REMARK                         _______ _______ _______ _____ _____    ______ ____
ROOT
ATOM      1  N   UNL     1       0.585  -0.664  -1.018  0.00  0.00    -0.287 N 
ATOM      2  C   UNL     1      -0.433  -0.008  -0.428  0.00  0.00    +0.200 C 
ATOM      3  O   UNL     1      -1.339  -0.630   0.086  0.00  0.00    -0.278 OA
ATOM      4  H   UNL     1       1.358  -0.104  -1.565  0.00  0.00    +0.155 HD
ENDROOT
BRANCH   1  11
ATOM      5  C   UNL     1       1.998  -2.055  -3.057  0.00  0.00    +0.046 C 
ATOM      6  C   UNL     1       1.340  -2.779  -1.911  0.00  0.00    -0.028 A 
ATOM      7  C   UNL     1       1.418  -4.155  -1.827  0.00  0.00    +0.028 A 
ATOM      8  C   UNL     1       0.806  -4.822  -0.774  0.00  0.00    +0.030 A 
ATOM      9  C   UNL     1       0.121  -4.105   0.199  0.00  0.00    +0.025 A 
ATOM     10  C   UNL     1       0.049  -2.729   0.118  0.00  0.00    +0.025 A 
ATOM     11  C   UNL     1       0.660  -2.062  -0.936  0.00  0.00    +0.036 A 
BRANCH   8  12
ATOM     12  N   UNL     1       0.880  -6.217  -0.693  0.00  0.00    -0.330 N 
ATOM     13  C   UNL     1       1.388  -6.647   0.635  0.00  0.00    +0.105 C 
ATOM     14  C   UNL     1       0.914  -8.118   0.737  0.00  0.00    +0.020 C 
ATOM     15  C   UNL     1      -0.480  -8.079   0.069  0.00  0.00    +0.020 C 
ATOM     16  C   UNL     1      -0.461  -6.827  -0.828  0.00  0.00    +0.105 C 
ENDBRANCH   8  12
ENDBRANCH   1  11
BRANCH   2  17
ATOM     17  C   UNL     1      -0.446   1.499  -0.405  0.00  0.00    +0.016 C 
BRANCH  17  18
ATOM     18  N   UNL     1      -1.652   1.968   0.291  0.00  0.00    +0.389 N 
ATOM     19  H   UNL     1      -2.545   1.601  -0.236  0.00  0.00    -0.084 HD
ATOM     20  H   UNL     1      -1.652   1.585   1.323  0.00  0.00    -0.084 HD
BRANCH  18  21
ATOM     21  C   UNL     1      -1.698   3.435   0.333  0.00  0.00    -0.042 C 
ATOM     22  C   UNL     1      -0.891   3.937   1.532  0.00  0.00    -0.009 C 
BRANCH  21  23
ATOM     23  C   UNL     1      -3.130   3.889   0.466  0.00  0.00    -0.043 A 
ATOM     24  C   UNL     1      -4.072   3.047   1.026  0.00  0.00    +0.005 A 
ATOM     25  C   UNL     1      -5.383   3.465   1.154  0.00  0.00    +0.020 A 
ATOM     26  C   UNL     1      -5.756   4.721   0.709  0.00  0.00    +0.042 A 
ATOM     27  C   UNL     1      -4.815   5.561   0.143  0.00  0.00    +0.040 A 
ATOM     28  C   UNL     1      -3.501   5.145   0.021  0.00  0.00    +0.044 A 
ATOM     29 CL   UNL     1      -2.319   6.199  -0.690  0.00  0.00    -0.083 Cl
ATOM     30 CL   UNL     1      -7.404   5.243   0.863  0.00  0.00    -0.083 Cl
ENDBRANCH  21  23
ENDBRANCH  18  21
ENDBRANCH  17  18
ENDBRANCH   2  17
TORSDOF 6
