REMARK  Name = ZINC40323618
REMARK  7 active torsions:
REMARK  status: ('A' for Active; 'I' for Inactive)
REMARK    1  A    between atoms: C_1  and  C_2
REMARK    2  A    between atoms: C_2  and  C_4
REMARK    3  A    between atoms: C_2  and  N_11
REMARK    4  A    between atoms: N_11  and  S_12
REMARK    5  A    between atoms: S_12  and  C_15
REMARK    6  A    between atoms: C_18  and  O_22
REMARK    7  A    between atoms: C_19  and  N_21
REMARK                            x       y       z     vdW  Elec       q    Type
REMARK                         _______ _______ _______ _____ _____    ______ ____
ROOT
ATOM      1  S   UNL     1      -2.017  -1.043  -1.468  0.00  0.00    +0.059 S 
ATOM      2  O   UNL     1      -3.325  -1.514  -1.174  0.00  0.00    -0.153 OA
ATOM      3  O   UNL     1      -1.774  -0.013  -2.416  0.00  0.00    -0.153 OA
ENDROOT
BRANCH   1   4
ATOM      4  C   UNL     1      -1.084  -2.442  -1.993  0.00  0.00    +0.107 A 
ATOM      5  C   UNL     1       0.031  -2.267  -2.792  0.00  0.00    +0.032 A 
ATOM      6  C   UNL     1       0.768  -3.361  -3.207  0.00  0.00    +0.049 A 
ATOM      7  C   UNL     1       0.389  -4.637  -2.823  0.00  0.00    +0.137 A 
ATOM      8  C   UNL     1      -0.734  -4.814  -2.018  0.00  0.00    +0.068 A 
ATOM      9  C   UNL     1      -1.465  -3.711  -1.601  0.00  0.00    +0.055 A 
BRANCH   8  10
ATOM     10  N   UNL     1      -1.121  -6.101  -1.627  0.00  0.00    -0.355 N 
ATOM     11  H   UNL     1      -0.607  -6.871  -1.917  0.00  0.00    +0.142 HD
ATOM     12  H   UNL     1      -1.903  -6.223  -1.067  0.00  0.00    +0.142 HD
ENDBRANCH   8  10
BRANCH   7  13
ATOM     13  O   UNL     1       1.113  -5.714  -3.231  0.00  0.00    -0.505 OA
ATOM     14  H   UNL     1       1.828  -5.959  -2.628  0.00  0.00    +0.292 HD
ENDBRANCH   7  13
ENDBRANCH   1   4
BRANCH   1  15
ATOM     15  N   UNL     1      -1.365  -0.530  -0.035  0.00  0.00    -0.183 NA
ATOM     16  H   UNL     1      -1.888  -0.577   0.781  0.00  0.00    +0.149 HD
BRANCH  15  18
ATOM     17  C   UNL     1      -0.037   1.524  -0.064  0.00  0.00    +0.031 C 
ATOM     18  C   UNL     1       0.002  -0.004   0.002  0.00  0.00    +0.105 C 
BRANCH  18  19
ATOM     19  C   UNL     1       0.672  -0.434   1.282  0.00  0.00    -0.011 A 
ATOM     20  C   UNL     1      -0.089  -0.700   2.405  0.00  0.00    +0.006 A 
ATOM     21  C   UNL     1       0.525  -1.095   3.578  0.00  0.00    +0.000 A 
ATOM     22  C   UNL     1       1.900  -1.225   3.630  0.00  0.00    +0.001 A 
ATOM     23  C   UNL     1       2.662  -0.960   2.508  0.00  0.00    +0.020 A 
ATOM     24  C   UNL     1       2.047  -0.570   1.331  0.00  0.00    +0.046 A 
ATOM     25 CL   UNL     1       3.003  -0.243  -0.081  0.00  0.00    -0.083 Cl
ENDBRANCH  18  19
ENDBRANCH  15  18
ENDBRANCH   1  15
TORSDOF 6
