REMARK  Name = ZINC28109023
REMARK  6 active torsions:
REMARK  status: ('A' for Active; 'I' for Inactive)
REMARK    1  A    between atoms: C_1  and  C_2
REMARK    2  A    between atoms: C_2  and  C_4
REMARK    3  A    between atoms: C_2  and  N_18
REMARK    4  A    between atoms: N_6  and  C_7
REMARK    5  A    between atoms: C_21  and  N_24
REMARK    6  A    between atoms: C_25  and  C_27
REMARK                            x       y       z     vdW  Elec       q    Type
REMARK                         _______ _______ _______ _____ _____    ______ ____
ROOT
ATOM      1  C   UNL     1       7.240   8.592  -0.294  0.00  0.00    -0.004 C 
ATOM      2  C   UNL     1       6.342   9.205   0.782  0.00  0.00    +0.016 C 
ENDROOT
BRANCH   2   3
ATOM      3  N   UNL     1       5.124   8.395   0.924  0.00  0.00    +0.387 N 
ATOM      4  C   UNL     1       4.534   8.099  -0.388  0.00  0.00    -0.076 C 
ATOM      5  C   UNL     1       3.196   7.382  -0.196  0.00  0.00    +0.004 C 
ATOM      6  C   UNL     1       3.424   6.086   0.587  0.00  0.00    +0.070 C 
ATOM      7  C   UNL     1       4.084   6.417   1.928  0.00  0.00    +0.004 C 
ATOM      8  C   UNL     1       5.396   7.163   1.675  0.00  0.00    -0.076 C 
ATOM      9  H   UNL     1       4.391   8.982   1.497  0.00  0.00    -0.081 HD
BRANCH   6  10
ATOM     10  N   UNL     1       2.138   5.425   0.824  0.00  0.00    -0.309 N 
ATOM     11  C   UNL     1       2.093   4.093   1.024  0.00  0.00    +0.244 C 
ATOM     12  O   UNL     1       3.118   3.440   1.009  0.00  0.00    -0.270 OA
ATOM     13  H   UNL     1       1.210   6.015   0.838  0.00  0.00    +0.149 HD
BRANCH  11  14
ATOM     14  C   UNL     1       0.795   3.425   1.264  0.00  0.00    +0.037 A 
ATOM     15  C   UNL     1       0.745   2.046   1.472  0.00  0.00    +0.013 A 
ATOM     16  C   UNL     1      -0.469   1.429   1.694  0.00  0.00    +0.001 A 
ATOM     17  C   UNL     1      -1.635   2.174   1.706  0.00  0.00    +0.000 A 
ATOM     18  C   UNL     1      -1.591   3.542   1.505  0.00  0.00    +0.001 A 
ATOM     19  C   UNL     1      -0.384   4.171   1.282  0.00  0.00    +0.013 A 
ENDBRANCH  11  14
ENDBRANCH   6  10
ENDBRANCH   2   3
BRANCH   2  20
ATOM     20  C   UNL     1       5.968  10.609   0.385  0.00  0.00    +0.203 C 
ATOM     21  O   UNL     1       4.847  10.849  -0.012  0.00  0.00    -0.277 OA
ATOM     22  N   UNL     1       6.879  11.599   0.470  0.00  0.00    -0.287 N 
ATOM     23  H   UNL     1       7.918  11.368   0.746  0.00  0.00    +0.155 HD
BRANCH  22  24
ATOM     24  C   UNL     1       6.502  12.923   0.207  0.00  0.00    +0.037 A 
ATOM     25  C   UNL     1       5.224  13.358   0.532  0.00  0.00    +0.027 A 
ATOM     26  C   UNL     1       4.851  14.663   0.273  0.00  0.00    +0.051 A 
ATOM     27  C   UNL     1       5.750  15.541  -0.312  0.00  0.00    +0.173 A 
ATOM     28  C   UNL     1       7.032  15.107  -0.639  0.00  0.00    +0.174 A 
ATOM     29  C   UNL     1       7.407  13.800  -0.374  0.00  0.00    +0.073 A 
ATOM     30  O   UNL     1       7.716  16.148  -1.196  0.00  0.00    -0.395 OA
ATOM     31  C   UNL     1       6.979  17.331  -0.834  0.00  0.00    +0.589 C 
ATOM     32  O   UNL     1       5.631  16.855  -0.664  0.00  0.00    -0.395 OA
ATOM     33  F   UNL     1       7.466  17.865   0.364  0.00  0.00    -0.125 F 
ATOM     34  F   UNL     1       7.043  18.283  -1.857  0.00  0.00    -0.125 F 
ENDBRANCH  22  24
ENDBRANCH   2  20
TORSDOF 5
