REMARK  Name = ZINC11716899
REMARK  12 active torsions:
REMARK  status: ('A' for Active; 'I' for Inactive)
REMARK    1  A    between atoms: C_1  and  O_2
REMARK    2  A    between atoms: O_2  and  C_3
REMARK    3  A    between atoms: C_6  and  C_11
REMARK    4  A    between atoms: C_8  and  O_9
REMARK    5  A    between atoms: O_9  and  C_10
REMARK    6  A    between atoms: C_11  and  N_12
REMARK    7  A    between atoms: C_18  and  C_20
REMARK    8  A    between atoms: C_20  and  C_21
REMARK    9  A    between atoms: C_27  and  C_28
REMARK   10  A    between atoms: C_27  and  C_31
REMARK   11  A    between atoms: C_28  and  C_29
REMARK   12  A    between atoms: C_31  and  C_32
REMARK                            x       y       z     vdW  Elec       q    Type
REMARK                         _______ _______ _______ _____ _____    ______ ____
ROOT
ATOM      1  N   UNL     1       2.782  -1.852  -2.539  0.00  0.00    +0.391 N 
ATOM      2  C   UNL     1       3.191  -0.538  -2.019  0.00  0.00    -0.058 C 
ATOM      3  C   UNL     1       4.535  -0.687  -1.303  0.00  0.00    +0.085 C 
ATOM      4  N   UNL     1       5.486  -1.379  -2.169  0.00  0.00    -0.318 N 
ATOM      5  C   UNL     1       5.104  -2.091  -3.236  0.00  0.00    +0.200 C 
ATOM      6  O   UNL     1       5.952  -2.657  -3.892  0.00  0.00    -0.278 OA
ATOM      7  C   UNL     1       3.666  -2.219  -3.652  0.00  0.00    +0.028 C 
ATOM      8  H   UNL     1       6.432  -1.320  -1.964  0.00  0.00    +0.149 HD
ATOM      9  H   UNL     1       2.855  -2.544  -1.808  0.00  0.00    -0.080 HD
ENDROOT
BRANCH   1  10
ATOM     10  C   UNL     1       1.394  -1.783  -3.015  0.00  0.00    -0.042 C 
BRANCH  10  14
ATOM     11  C   UNL     1      -1.222  -1.155   0.309  0.00  0.00    +0.161 A 
ATOM     12  C   UNL     1      -0.689  -0.072  -0.371  0.00  0.00    +0.049 A 
ATOM     13  C   UNL     1       0.156  -0.278  -1.445  0.00  0.00    +0.005 A 
ATOM     14  C   UNL     1       0.472  -1.564  -1.843  0.00  0.00    -0.060 A 
ATOM     15  C   UNL     1      -0.057  -2.649  -1.169  0.00  0.00    +0.051 A 
ATOM     16  C   UNL     1      -0.900  -2.449  -0.088  0.00  0.00    +0.162 A 
BRANCH  11  18
ATOM     17  C   UNL     1      -2.341   0.401   1.717  0.00  0.00    +0.277 C 
ATOM     18  O   UNL     1      -2.054  -0.954   1.366  0.00  0.00    -0.491 OA
ENDBRANCH  11  18
BRANCH  16  19
ATOM     19  O   UNL     1      -1.417  -3.515   0.580  0.00  0.00    -0.491 OA
ATOM     20  C   UNL     1      -1.042  -4.814   0.116  0.00  0.00    +0.277 C 
ENDBRANCH  16  19
ENDBRANCH  10  14
ENDBRANCH   1  10
BRANCH   7  21
ATOM     21  C   UNL     1       3.385  -3.665  -4.068  0.00  0.00    +0.090 C 
BRANCH  21  22
ATOM     22  C   UNL     1       3.759  -4.593  -2.941  0.00  0.00    +0.215 C 
ATOM     23  O   UNL     1       4.184  -4.141  -1.899  0.00  0.00    -0.276 OA
ATOM     24  N   UNL     1       3.622  -5.925  -3.092  0.00  0.00    -0.295 N 
ATOM     25  C   UNL     1       3.127  -6.607  -4.302  0.00  0.00    +0.108 C 
ATOM     26  C   UNL     1       3.725  -8.034  -4.226  0.00  0.00    +0.021 C 
ATOM     27  C   UNL     1       3.654  -8.321  -2.703  0.00  0.00    +0.028 C 
ATOM     28  C   UNL     1       3.947  -6.940  -2.079  0.00  0.00    +0.044 C 
BRANCH  28  29
ATOM     29  C   UNL     1       3.075  -6.736  -0.839  0.00  0.00    +0.052 C 
BRANCH  29  30
ATOM     30  C   UNL     1       3.331  -7.850   0.144  0.00  0.00    -0.032 C 
ATOM     31  C   UNL     1       3.689  -7.569   1.372  0.00  0.00    +0.004 C 
ENDBRANCH  29  30
ENDBRANCH  28  29
BRANCH  28  32
ATOM     32  C   UNL     1       5.427  -6.841  -1.700  0.00  0.00    +0.052 C 
BRANCH  32  33
ATOM     33  C   UNL     1       6.275  -7.091  -2.920  0.00  0.00    -0.032 C 
ATOM     34  C   UNL     1       7.158  -6.199  -3.298  0.00  0.00    +0.004 C 
ENDBRANCH  32  33
ENDBRANCH  28  32
ENDBRANCH  21  22
ENDBRANCH   7  21
TORSDOF 10
