REMARK  Name = ZINC11898849
REMARK  9 active torsions:
REMARK  status: ('A' for Active; 'I' for Inactive)
REMARK    1  A    between atoms: C_1  and  C_2
REMARK    2  A    between atoms: C_5  and  C_29
REMARK    3  A    between atoms: C_6  and  N_8
REMARK    4  A    between atoms: C_9  and  C_11
REMARK    5  A    between atoms: N_13  and  C_14
REMARK    6  A    between atoms: C_14  and  C_15
REMARK    7  A    between atoms: C_15  and  C_17
REMARK    8  A    between atoms: C_15  and  N_61
REMARK    9  A    between atoms: N_21  and  C_22
REMARK                            x       y       z     vdW  Elec       q    Type
REMARK                         _______ _______ _______ _____ _____    ______ ____
ROOT
ATOM      1  C   UNL     1       2.267   3.953   0.393  0.00  0.00    +0.299 C 
ATOM      2  O   UNL     1       3.387   3.497   0.292  0.00  0.00    -0.265 OA
ATOM      3  N   UNL     1       1.196   3.148   0.243  0.00  0.00    -0.309 N 
ATOM      4  H   UNL     1       0.302   3.524   0.251  0.00  0.00    +0.149 HD
ENDROOT
BRANCH   1   6
ATOM      5  N   UNL     1       3.140   6.229   0.733  0.00  0.00    -0.278 N 
ATOM      6  C   UNL     1       2.075   5.405   0.683  0.00  0.00    +0.303 C 
ATOM      7  O   UNL     1       0.959   5.843   0.875  0.00  0.00    -0.265 OA
ATOM      8  H   UNL     1       4.024   5.893   0.515  0.00  0.00    +0.155 HD
BRANCH   5  14
ATOM      9  C   UNL     1       0.270  10.209   1.012  0.00  0.00    +0.044 C 
ATOM     10  C   UNL     1       1.591   9.523   1.244  0.00  0.00    -0.049 A 
ATOM     11  C   UNL     1       2.639  10.218   1.819  0.00  0.00    +0.004 A 
ATOM     12  C   UNL     1       3.854   9.592   2.033  0.00  0.00    +0.005 A 
ATOM     13  C   UNL     1       4.023   8.269   1.674  0.00  0.00    -0.029 A 
ATOM     14  C   UNL     1       2.972   7.567   1.097  0.00  0.00    +0.037 A 
ATOM     15  C   UNL     1       1.755   8.201   0.879  0.00  0.00    +0.027 A 
ATOM     16  C   UNL     1       5.346   7.587   1.909  0.00  0.00    +0.045 C 
ENDBRANCH   5  14
ENDBRANCH   1   6
BRANCH   3  17
ATOM     17  C   UNL     1       1.382   1.706   0.067  0.00  0.00    +0.095 C 
BRANCH  17  18
ATOM     18  C   UNL     1       0.017   1.014   0.044  0.00  0.00    -0.003 C 
BRANCH  18  25
ATOM     19  C   UNL     1       0.129   1.335   2.450  0.00  0.00    -0.078 C 
ATOM     20  C   UNL     1      -0.649   1.433   3.734  0.00  0.00    -0.019 C 
ATOM     21  C   UNL     1      -0.943   0.004   4.238  0.00  0.00    -0.002 C 
ATOM     22  C   UNL     1      -2.052  -0.615   3.520  0.00  0.00    -0.002 C 
ATOM     23  C   UNL     1      -1.764  -0.754   2.011  0.00  0.00    -0.019 C 
ATOM     24  C   UNL     1      -1.981   0.584   1.358  0.00  0.00    -0.078 C 
ATOM     25  N   UNL     1      -0.745   1.430   1.231  0.00  0.00    +0.386 N 
ATOM     26  H   UNL     1      -1.033   2.409   1.115  0.00  0.00    -0.081 HD
ENDBRANCH  18  25
BRANCH  18  27
ATOM     27  C   UNL     1      -0.747   1.454  -1.179  0.00  0.00    +0.006 A 
ATOM     28  C   UNL     1      -1.907   2.141  -1.180  0.00  0.00    +0.021 A 
ATOM     29  C   UNL     1      -2.274   2.346  -2.525  0.00  0.00    +0.019 A 
ATOM     30  C   UNL     1      -1.328   1.768  -3.294  0.00  0.00    +0.085 A 
ATOM     31  N   UNL     1      -0.389   1.219  -2.473  0.00  0.00    -0.355 N 
ATOM     32  C   UNL     1       0.809   0.496  -2.909  0.00  0.00    +0.148 C 
ENDBRANCH  18  27
ENDBRANCH  17  18
ENDBRANCH   3  17
TORSDOF 6
