REMARK  Name = ZINC61226218
REMARK  10 active torsions:
REMARK  status: ('A' for Active; 'I' for Inactive)
REMARK    1  A    between atoms: C_1  and  C_2
REMARK    2  A    between atoms: C_2  and  C_3
REMARK    3  A    between atoms: C_3  and  C_4
REMARK    4  A    between atoms: C_4  and  C_5
REMARK    5  A    between atoms: C_8  and  C_11
REMARK    6  A    between atoms: C_11  and  C_12
REMARK    7  A    between atoms: C_11  and  N_17
REMARK    8  A    between atoms: C_18  and  C_20
REMARK    9  A    between atoms: C_20  and  C_21
REMARK   10  A    between atoms: C_20  and  N_22
REMARK                            x       y       z     vdW  Elec       q    Type
REMARK                         _______ _______ _______ _____ _____    ______ ____
ROOT
ATOM      1  C   UNL     1       3.558  -3.955   5.915  0.00  0.00    +0.140 C 
ENDROOT
BRANCH   1   5
ATOM      2  C   UNL     1       1.492  -2.540   2.454  0.00  0.00    -0.047 A 
ATOM      3  C   UNL     1       2.858  -2.746   2.407  0.00  0.00    +0.004 A 
ATOM      4  C   UNL     1       3.526  -3.204   3.527  0.00  0.00    +0.006 A 
ATOM      5  C   UNL     1       2.829  -3.455   4.694  0.00  0.00    -0.022 A 
ATOM      6  C   UNL     1       1.463  -3.248   4.741  0.00  0.00    +0.006 A 
ATOM      7  C   UNL     1       0.795  -2.786   3.622  0.00  0.00    +0.004 A 
BRANCH   2   8
ATOM      8  C   UNL     1       0.763  -2.041   1.233  0.00  0.00    +0.035 C 
BRANCH   8   9
ATOM      9  C   UNL     1       0.742  -0.511   1.242  0.00  0.00    +0.004 C 
BRANCH   9  11
ATOM     10  C   UNL     1      -0.019   1.526   0.010  0.00  0.00    +0.004 C 
ATOM     11  C   UNL     1       0.002  -0.004   0.002  0.00  0.00    -0.003 C 
ENDBRANCH   9  11
ENDBRANCH   8   9
ENDBRANCH   2   8
ENDBRANCH   1   5
BRANCH   1  12
ATOM     12  C   UNL     1       3.373  -5.446   6.034  0.00  0.00    +0.014 A 
ATOM     13  C   UNL     1       4.225  -6.442   5.688  0.00  0.00    +0.013 A 
ATOM     14  C   UNL     1       3.840  -7.754   5.891  0.00  0.00    +0.008 A 
ATOM     15  C   UNL     1       2.622  -8.006   6.430  0.00  0.00    +0.045 A 
ATOM     16  S   UNL     1       1.979  -6.359   6.675  0.00  0.00    -0.099 S 
ENDBRANCH   1  12
BRANCH   1  17
ATOM     17  N   UNL     1       3.018  -3.300   7.108  0.00  0.00    -0.302 N 
ATOM     18  C   UNL     1       3.782  -3.175   8.212  0.00  0.00    +0.234 C 
ATOM     19  O   UNL     1       4.915  -3.607   8.217  0.00  0.00    -0.274 OA
ATOM     20  H   UNL     1       2.112  -2.954   7.104  0.00  0.00    +0.150 HD
BRANCH  18  21
ATOM     21  C   UNL     1       3.227  -2.501   9.440  0.00  0.00    +0.157 C 
ATOM     22  C   UNL     1       1.993  -3.263   9.928  0.00  0.00    +0.038 C 
BRANCH  21  23
ATOM     23  N   UNL     1       4.244  -2.492  10.494  0.00  0.00    -0.289 N 
ATOM     24  C   UNL     1       4.205  -1.554  11.461  0.00  0.00    +0.298 C 
ATOM     25  O   UNL     1       3.326  -0.714  11.457  0.00  0.00    -0.253 OA
ATOM     26  N   UNL     1       5.141  -1.546  12.431  0.00  0.00    -0.313 N 
ATOM     27  H   UNL     1       4.945  -3.162  10.497  0.00  0.00    +0.151 HD
ATOM     28  H   UNL     1       5.842  -2.216  12.433  0.00  0.00    +0.146 HD
ATOM     29  H   UNL     1       5.113  -0.870  13.126  0.00  0.00    +0.146 HD
ENDBRANCH  21  23
ENDBRANCH  18  21
ENDBRANCH   1  17
TORSDOF 8
