REMARK  Name = ZINC01366075
REMARK  8 active torsions:
REMARK  status: ('A' for Active; 'I' for Inactive)
REMARK    1  A    between atoms: C_1  and  C_2
REMARK    2  A    between atoms: C_2  and  O_3
REMARK    3  A    between atoms: O_3  and  C_4
REMARK    4  A    between atoms: C_4  and  C_6
REMARK    5  A    between atoms: C_6  and  C_8
REMARK    6  A    between atoms: C_6  and  S_9
REMARK    7  A    between atoms: S_9  and  C_10
REMARK    8  A    between atoms: C_16  and  C_22
REMARK                            x       y       z     vdW  Elec       q    Type
REMARK                         _______ _______ _______ _____ _____    ______ ____
ROOT
ATOM      1  C   UNL     1      -0.016   1.325   0.009  0.00  0.00    +0.212 A 
ATOM      2  N   UNL     1       1.109   2.029   0.002  0.00  0.00    -0.201 NA
ATOM      3  C   UNL     1       2.275   1.391  -0.012  0.00  0.00    +0.162 A 
ATOM      4  C   UNL     1       2.267  -0.019  -0.020  0.00  0.00    +0.137 A 
ATOM      5  C   UNL     1       3.678  -0.441  -0.036  0.00  0.00    +0.029 A 
ATOM      6  C   UNL     1       4.309  -1.683  -0.049  0.00  0.00    +0.015 A 
ATOM      7  C   UNL     1       5.686  -1.752  -0.063  0.00  0.00    -0.050 A 
ATOM      8  C   UNL     1       6.443  -0.590  -0.064  0.00  0.00    +0.005 A 
ATOM      9  C   UNL     1       5.831   0.645  -0.050  0.00  0.00    +0.026 A 
ATOM     10  C   UNL     1       4.443   0.735  -0.037  0.00  0.00    +0.050 A 
ATOM     11  N   UNL     1       3.579   1.819  -0.023  0.00  0.00    -0.338 N 
ATOM     12  H   UNL     1       3.857   2.748  -0.020  0.00  0.00    +0.167 HD
ATOM     13  C   UNL     1       6.371  -3.094  -0.077  0.00  0.00    +0.044 C 
ATOM     14  N   UNL     1       1.109  -0.664  -0.012  0.00  0.00    -0.143 NA
ATOM     15  N   UNL     1       0.002  -0.004   0.002  0.00  0.00    -0.122 NA
ENDROOT
BRANCH   1  16
ATOM     16  S   UNL     1      -1.563   2.168   0.021  0.00  0.00    -0.070 S 
BRANCH  16  17
ATOM     17  C   UNL     1      -2.692   0.753   0.019  0.00  0.00    +0.160 C 
ATOM     18  C   UNL     1      -2.528  -0.033   1.321  0.00  0.00    +0.031 C 
BRANCH  17  19
ATOM     19  C   UNL     1      -4.112   1.244  -0.096  0.00  0.00    +0.320 C 
ATOM     20  O   UNL     1      -4.381   2.387   0.190  0.00  0.00    -0.250 OA
BRANCH  19  21
ATOM     21  O   UNL     1      -5.078   0.412  -0.515  0.00  0.00    -0.464 OA
BRANCH  21  23
ATOM     22  C   UNL     1      -7.380  -0.135  -1.094  0.00  0.00    +0.048 C 
ATOM     23  C   UNL     1      -6.423   0.953  -0.601  0.00  0.00    +0.229 C 
ENDBRANCH  21  23
ENDBRANCH  19  21
ENDBRANCH  17  19
ENDBRANCH  16  17
ENDBRANCH   1  16
TORSDOF 5
