REMARK  Name = ZINC08831554
REMARK  8 active torsions:
REMARK  status: ('A' for Active; 'I' for Inactive)
REMARK    1  A    between atoms: C_1  and  C_2
REMARK    2  A    between atoms: C_5  and  C_9
REMARK    3  A    between atoms: C_12  and  C_14
REMARK    4  A    between atoms: N_16  and  C_17
REMARK    5  A    between atoms: C_17  and  N_19
REMARK    6  A    between atoms: N_19  and  C_20
REMARK    7  A    between atoms: C_21  and  C_31
REMARK    8  A    between atoms: C_26  and  C_30
REMARK                            x       y       z     vdW  Elec       q    Type
REMARK                         _______ _______ _______ _____ _____    ______ ____
ROOT
ATOM      1  C   UNL     1       2.856  -7.622  -4.685  0.00  0.00    +0.285 C 
ATOM      2  O   UNL     1       2.828  -6.728  -5.510  0.00  0.00    -0.266 OA
ATOM      3  N   UNL     1       2.558  -7.360  -3.397  0.00  0.00    -0.261 N 
ATOM      4  H   UNL     1       2.580  -8.073  -2.739  0.00  0.00    +0.157 HD
ENDROOT
BRANCH   1   8
ATOM      5  C   UNL     1       3.639 -11.136  -5.001  0.00  0.00    +0.136 A 
ATOM      6  C   UNL     1       3.807 -10.757  -6.302  0.00  0.00    +0.050 A 
ATOM      7  C   UNL     1       3.538  -9.387  -6.369  0.00  0.00    +0.055 A 
ATOM      8  C   UNL     1       3.213  -8.983  -5.091  0.00  0.00    +0.190 A 
ATOM      9  O   UNL     1       3.287 -10.059  -4.280  0.00  0.00    -0.450 OA
BRANCH   5  14
ATOM     10  C   UNL     1       4.344 -16.463  -2.940  0.00  0.00    +0.045 C 
ATOM     11  C   UNL     1       4.159 -15.068  -3.480  0.00  0.00    -0.032 A 
ATOM     12  C   UNL     1       3.787 -14.043  -2.628  0.00  0.00    +0.005 A 
ATOM     13  C   UNL     1       3.617 -12.764  -3.115  0.00  0.00    +0.012 A 
ATOM     14  C   UNL     1       3.820 -12.504  -4.473  0.00  0.00    +0.019 A 
ATOM     15  C   UNL     1       4.189 -13.543  -5.329  0.00  0.00    +0.031 A 
ATOM     16  C   UNL     1       4.362 -14.818  -4.827  0.00  0.00    +0.045 A 
ATOM     17 CL   UNL     1       4.828 -16.111  -5.888  0.00  0.00    -0.083 Cl
ENDBRANCH   5  14
ENDBRANCH   1   8
BRANCH   3  18
ATOM     18  C   UNL     1       2.229  -6.108  -3.022  0.00  0.00    +0.142 C 
ATOM     19  S   UNL     1       2.190  -4.850  -4.183  0.00  0.00    -0.018 S 
BRANCH  18  20
ATOM     20  N   UNL     1       1.931  -5.846  -1.734  0.00  0.00    -0.290 N 
ATOM     21  H   UNL     1       1.954  -6.559  -1.077  0.00  0.00    +0.154 HD
BRANCH  20  22
ATOM     22  C   UNL     1       1.593  -4.557  -1.349  0.00  0.00    +0.089 A 
ATOM     23  C   UNL     1       1.258  -4.095  -0.085  0.00  0.00    +0.084 A 
ATOM     24  C   UNL     1       0.941  -2.684   0.053  0.00  0.00    -0.018 A 
ATOM     25  C   UNL     1       1.008  -1.965  -1.089  0.00  0.00    -0.004 A 
ATOM     26  S   UNL     1       1.485  -3.134  -2.331  0.00  0.00    -0.077 S 
ATOM     27  C   UNL     1       0.736  -0.502  -1.252  0.00  0.00    +0.046 C 
ATOM     28  C   UNL     1       0.002  -0.004   0.002  0.00  0.00    -0.009 C 
ATOM     29  C   UNL     1       0.742  -0.514   1.242  0.00  0.00    +0.008 C 
ATOM     30  C   UNL     1       0.556  -2.027   1.373  0.00  0.00    +0.037 C 
ATOM     31  C   UNL     1      -0.019   1.526   0.010  0.00  0.00    +0.008 C 
BRANCH  23  32
ATOM     32  C   UNL     1       1.226  -4.977   1.043  0.00  0.00    +0.102 C 
ATOM     33  N   UNL     1       1.201  -5.677   1.938  0.00  0.00    -0.191 NA
ENDBRANCH  23  32
ENDBRANCH  20  22
ENDBRANCH  18  20
ENDBRANCH   3  18
TORSDOF 6
