REMARK  Name = ZINC03073369
REMARK  9 active torsions:
REMARK  status: ('A' for Active; 'I' for Inactive)
REMARK    1  A    between atoms: C_1  and  C_2
REMARK    2  A    between atoms: C_2  and  O_3
REMARK    3  A    between atoms: O_3  and  C_4
REMARK    4  A    between atoms: C_4  and  C_6
REMARK    5  A    between atoms: C_7  and  N_32
REMARK    6  A    between atoms: C_11  and  C_13
REMARK    7  A    between atoms: C_16  and  C_18
REMARK    8  A    between atoms: C_28  and  C_30
REMARK    9  A    between atoms: C_28  and  C_31
REMARK                            x       y       z     vdW  Elec       q    Type
REMARK                         _______ _______ _______ _____ _____    ______ ____
ROOT
ATOM      1  C   UNL     1       2.350  -3.058  -1.218  0.00  0.00    +0.108 C 
ATOM      2  C   UNL     1       3.703  -2.986  -1.259  0.00  0.00    +0.195 C 
ATOM      3  O   UNL     1       4.420  -2.727  -0.156  0.00  0.00    -0.446 OA
ATOM      4  C   UNL     1       3.888  -2.956   1.060  0.00  0.00    +0.115 C 
ATOM      5  C   UNL     1       2.557  -3.030   1.240  0.00  0.00    +0.048 C 
ATOM      6  C   UNL     1       1.613  -2.853   0.076  0.00  0.00    +0.133 C 
ATOM      7  C   UNL     1       2.003  -3.273   2.512  0.00  0.00    +0.164 C 
ATOM      8  O   UNL     1       0.795  -3.312   2.639  0.00  0.00    -0.292 OA
ATOM      9  C   UNL     1       2.879  -3.485   3.716  0.00  0.00    +0.086 C 
ATOM     10  C   UNL     1       4.217  -4.074   3.256  0.00  0.00    -0.021 C 
ATOM     11  C   UNL     1       4.835  -3.127   2.225  0.00  0.00    +0.081 C 
ATOM     12  C   UNL     1       3.983  -5.446   2.619  0.00  0.00    +0.012 C 
ATOM     13  C   UNL     1       5.160  -4.217   4.453  0.00  0.00    +0.012 C 
ENDROOT
BRANCH   6  14
ATOM     14  C   UNL     1       1.035  -1.462   0.107  0.00  0.00    +0.118 A 
ATOM     15  C   UNL     1      -0.274  -1.157   0.212  0.00  0.00    +0.046 A 
ATOM     16  C   UNL     1      -0.372   0.249   0.203  0.00  0.00    +0.050 A 
ATOM     17  C   UNL     1       0.895   0.729   0.092  0.00  0.00    +0.135 A 
ATOM     18  O   UNL     1       1.737  -0.320   0.029  0.00  0.00    -0.459 OA
BRANCH  17  19
ATOM     19  C   UNL     1       1.281   2.155   0.042  0.00  0.00    +0.017 A 
ATOM     20  C   UNL     1       0.302   3.148   0.104  0.00  0.00    +0.012 A 
ATOM     21  C   UNL     1       0.668   4.477   0.063  0.00  0.00    +0.016 A 
ATOM     22  C   UNL     1       2.003   4.827  -0.052  0.00  0.00    +0.018 A 
ATOM     23  C   UNL     1       2.978   3.846  -0.121  0.00  0.00    +0.016 A 
ATOM     24  C   UNL     1       2.625   2.514  -0.075  0.00  0.00    +0.012 A 
ATOM     25 BR   UNL     1       2.496   6.651  -0.116  0.00  0.00    -0.050 Br
ENDBRANCH  17  19
ENDBRANCH   6  14
BRANCH   2  26
ATOM     26  N   UNL     1       4.351  -3.182  -2.449  0.00  0.00    -0.329 N 
ATOM     27  H   UNL     1       4.054  -3.881  -3.053  0.00  0.00    +0.145 HD
ATOM     28  H   UNL     1       5.107  -2.623  -2.688  0.00  0.00    +0.145 HD
ENDBRANCH   2  26
BRANCH   1  29
ATOM     29  C   UNL     1       1.633  -3.325  -2.395  0.00  0.00    +0.341 C 
ATOM     30  O   UNL     1       2.214  -3.373  -3.465  0.00  0.00    -0.245 OA
BRANCH  29  31
ATOM     31  O   UNL     1       0.299  -3.528  -2.342  0.00  0.00    -0.462 OA
BRANCH  31  33
ATOM     32  C   UNL     1      -1.861  -3.996  -3.320  0.00  0.00    +0.048 C 
ATOM     33  C   UNL     1      -0.367  -3.795  -3.578  0.00  0.00    +0.229 C 
ENDBRANCH  31  33
ENDBRANCH  29  31
ENDBRANCH   1  29
TORSDOF 6
