REMARK  Name = ZINC16434896
REMARK  16 active torsions:
REMARK  status: ('A' for Active; 'I' for Inactive)
REMARK    1  A    between atoms: C_1  and  C_2
REMARK    2  A    between atoms: C_2  and  C_3
REMARK    3  A    between atoms: C_8  and  N_9
REMARK    4  A    between atoms: N_12  and  C_13
REMARK    5  A    between atoms: N_12  and  C_17
REMARK    6  A    between atoms: C_13  and  C_14
REMARK    7  A    between atoms: C_14  and  C_15
REMARK    8  A    between atoms: C_14  and  C_16
REMARK    9  A    between atoms: C_17  and  C_18
REMARK   10  A    between atoms: N_20  and  C_21
REMARK   11  A    between atoms: C_23  and  C_33
REMARK   12  A    between atoms: N_25  and  C_26
REMARK   13  A    between atoms: C_29  and  C_32
REMARK   14  A    between atoms: C_33  and  C_34
REMARK   15  A    between atoms: C_33  and  C_35
REMARK   16  A    between atoms: C_33  and  C_36
REMARK                            x       y       z     vdW  Elec       q    Type
REMARK                         _______ _______ _______ _____ _____    ______ ____
ROOT
ATOM      1  C   UNL     1       2.836   0.939  -1.464  0.00  0.00    +0.236 C 
ATOM      2  O   UNL     1       2.133   1.322  -2.374  0.00  0.00    -0.274 OA
ATOM      3  N   UNL     1       3.989   0.292  -1.728  0.00  0.00    -0.269 N 
ATOM      4  H   UNL     1       4.551  -0.014  -1.000  0.00  0.00    +0.156 HD
ENDROOT
BRANCH   3   5
ATOM      5  C   UNL     1       4.372   0.063  -3.049  0.00  0.00    +0.129 A 
ATOM      6  C   UNL     1       3.685   0.435  -4.163  0.00  0.00    +0.069 A 
ATOM      7  C   UNL     1       4.415   0.014  -5.279  0.00  0.00    +0.071 A 
ATOM      8  N   UNL     1       5.500  -0.588  -4.861  0.00  0.00    -0.169 NA
ATOM      9  N   UNL     1       5.505  -0.569  -3.461  0.00  0.00    -0.218 N 
BRANCH   9  10
ATOM     10  C   UNL     1       6.499  -1.107  -2.631  0.00  0.00    +0.067 A 
ATOM     11  C   UNL     1       6.824  -0.477  -1.437  0.00  0.00    +0.028 A 
ATOM     12  C   UNL     1       7.800  -1.013  -0.619  0.00  0.00    +0.005 A 
ATOM     13  C   UNL     1       8.460  -2.168  -0.994  0.00  0.00    -0.050 A 
ATOM     14  C   UNL     1       8.143  -2.794  -2.185  0.00  0.00    +0.005 A 
ATOM     15  C   UNL     1       7.164  -2.267  -3.005  0.00  0.00    +0.028 A 
ATOM     16  C   UNL     1       9.529  -2.746  -0.102  0.00  0.00    +0.044 C 
ENDBRANCH   9  10
BRANCH   7  17
ATOM     17  C   UNL     1       4.021   0.220  -6.718  0.00  0.00    +0.006 C 
ATOM     18  C   UNL     1       4.257   1.680  -7.108  0.00  0.00    +0.017 C 
ATOM     19  C   UNL     1       4.864  -0.690  -7.613  0.00  0.00    +0.017 C 
ATOM     20  C   UNL     1       2.540  -0.122  -6.895  0.00  0.00    +0.017 C 
ENDBRANCH   7  17
ENDBRANCH   3   5
BRANCH   1  21
ATOM     21  C   UNL     1       2.422   1.187  -0.036  0.00  0.00    +0.205 C 
BRANCH  21  25
ATOM     22  N   UNL     1      -1.191   1.870   0.018  0.00  0.00    -0.269 N 
ATOM     23  C   UNL     1      -0.014   1.212   0.005  0.00  0.00    +0.307 C 
ATOM     24  O   UNL     1       0.003  -0.004   0.007  0.00  0.00    -0.252 OA
ATOM     25  N   UNL     1       1.143   1.902  -0.016  0.00  0.00    -0.276 N 
ATOM     26  H   UNL     1      -1.205   2.836   0.099  0.00  0.00    +0.156 HD
BRANCH  22  32
ATOM     27  C   UNL     1      -3.566   1.699   0.418  0.00  0.00    -0.026 A 
ATOM     28  C   UNL     1      -4.750   0.994   0.314  0.00  0.00    +0.005 A 
ATOM     29  C   UNL     1      -4.765  -0.248  -0.292  0.00  0.00    +0.000 A 
ATOM     30  C   UNL     1      -3.596  -0.790  -0.796  0.00  0.00    +0.002 A 
ATOM     31  C   UNL     1      -2.411  -0.088  -0.699  0.00  0.00    +0.023 A 
ATOM     32  C   UNL     1      -2.391   1.158  -0.086  0.00  0.00    +0.038 A 
BRANCH  27  34
ATOM     33  C   UNL     1      -3.680   4.143   0.011  0.00  0.00    +0.009 C 
ATOM     34  C   UNL     1      -3.551   3.054   1.078  0.00  0.00    +0.033 C 
ENDBRANCH  27  34
ENDBRANCH  22  32
BRANCH  25  35
ATOM     35  C   UNL     1       1.123   3.367  -0.018  0.00  0.00    +0.113 C 
BRANCH  35  36
ATOM     36  C   UNL     1       1.140   3.880   1.423  0.00  0.00    +0.000 C 
ATOM     37  C   UNL     1       2.464   3.494   2.086  0.00  0.00    +0.009 C 
ATOM     38  C   UNL     1       0.993   5.402   1.425  0.00  0.00    +0.009 C 
ENDBRANCH  35  36
ENDBRANCH  25  35
ENDBRANCH  21  25
ENDBRANCH   1  21
TORSDOF 9
