REMARK  Name = ZINC65265746
REMARK  6 active torsions:
REMARK  status: ('A' for Active; 'I' for Inactive)
REMARK    1  A    between atoms: C_1  and  C_2
REMARK    2  A    between atoms: C_6  and  C_7
REMARK    3  A    between atoms: N_24  and  C_25
REMARK    4  A    between atoms: C_25  and  C_26
REMARK    5  A    between atoms: C_26  and  O_27
REMARK    6  A    between atoms: O_27  and  C_28
REMARK                            x       y       z     vdW  Elec       q    Type
REMARK                         _______ _______ _______ _____ _____    ______ ____
ROOT
ATOM      1  C   UNL     1      -0.008  -0.242   2.587  0.00  0.00    +0.254 C 
ATOM      2  O   UNL     1      -0.021   0.948   2.842  0.00  0.00    -0.269 OA
ATOM      3  N   UNL     1       0.023  -1.145   3.588  0.00  0.00    -0.295 N 
ATOM      4  C   UNL     1       0.048  -2.611   3.424  0.00  0.00    +0.110 C 
ATOM      5  C   UNL     1       0.683  -3.150   4.732  0.00  0.00    +0.050 C 
ATOM      6  C   UNL     1       0.118  -2.167   5.774  0.00  0.00    +0.091 C 
ATOM      7  C   UNL     1       0.043  -0.831   5.027  0.00  0.00    +0.137 C 
ATOM      8  C   UNL     1       0.984  -2.082   6.984  0.00  0.00    +0.095 C 
ATOM      9  N   UNL     1       0.700  -2.953   8.008  0.00  0.00    -0.303 N 
ATOM     10  C   UNL     1      -0.211  -2.567   8.986  0.00  0.00    +0.037 A 
ATOM     11  C   UNL     1       0.076  -2.783  10.327  0.00  0.00    +0.023 A 
ATOM     12  C   UNL     1      -0.832  -2.414  11.299  0.00  0.00    +0.002 A 
ATOM     13  C   UNL     1      -2.028  -1.830  10.925  0.00  0.00    +0.000 A 
ATOM     14  C   UNL     1      -2.311  -1.610   9.595  0.00  0.00    +0.007 A 
ATOM     15  C   UNL     1      -1.403  -1.968   8.602  0.00  0.00    -0.012 A 
ATOM     16  C   UNL     1      -1.791  -1.651   7.180  0.00  0.00    +0.119 C 
ATOM     17  N   UNL     1      -1.228  -2.601   6.212  0.00  0.00    -0.299 NA
ATOM     18  N   UNL     1       1.955  -1.231   7.066  0.00  0.00    -0.373 N 
ATOM     19  H   UNL     1      -1.845  -2.720   5.422  0.00  0.00    +0.123 HD
ATOM     20  H   UNL     1       2.187  -0.685   6.299  0.00  0.00    +0.161 HD
ATOM     21  H   UNL     1       1.127  -3.823   8.047  0.00  0.00    +0.153 HD
ENDROOT
BRANCH   1  27
ATOM     22  C   UNL     1      -0.079   1.567   0.053  0.00  0.00    +0.045 C 
ATOM     23  C   UNL     1      -0.057   0.061   0.030  0.00  0.00    -0.031 A 
ATOM     24  C   UNL     1      -0.061  -0.653  -1.144  0.00  0.00    +0.011 A 
ATOM     25  C   UNL     1      -0.041  -2.008  -1.093  0.00  0.00    +0.046 A 
ATOM     26  S   UNL     1      -0.015  -2.357   0.550  0.00  0.00    -0.092 S 
ATOM     27  C   UNL     1      -0.026  -0.694   1.193  0.00  0.00    +0.077 A 
ENDBRANCH   1  27
BRANCH  18  28
ATOM     28  C   UNL     1       2.703  -1.092   8.318  0.00  0.00    +0.141 C 
BRANCH  28  29
ATOM     29  C   UNL     1       3.788  -0.026   8.148  0.00  0.00    +0.180 C 
BRANCH  29  30
ATOM     30  O   UNL     1       3.176   1.246   7.930  0.00  0.00    -0.381 OA
ATOM     31  C   UNL     1       4.106   2.317   7.758  0.00  0.00    +0.194 C 
ENDBRANCH  29  30
ENDBRANCH  28  29
ENDBRANCH  18  28
TORSDOF 4
