REMARK  Name = ZINC45933895
REMARK  9 active torsions:
REMARK  status: ('A' for Active; 'I' for Inactive)
REMARK    1  A    between atoms: C_1  and  C_2
REMARK    2  A    between atoms: C_2  and  C_3
REMARK    3  A    between atoms: C_2  and  C_4
REMARK    4  A    between atoms: C_2  and  C_5
REMARK    5  A    between atoms: N_13  and  C_17
REMARK    6  A    between atoms: C_17  and  C_18
REMARK    7  A    between atoms: N_20  and  C_21
REMARK    8  A    between atoms: C_21  and  C_22
REMARK    9  A    between atoms: C_22  and  N_28
REMARK                            x       y       z     vdW  Elec       q    Type
REMARK                         _______ _______ _______ _____ _____    ______ ____
ROOT
ATOM      1  C   UNL     1       5.327  -4.015  -5.012  0.00  0.00    +0.213 C 
ENDROOT
BRANCH   1  10
ATOM      2  C   UNL     1      -0.224  -0.703  -3.553  0.00  0.00    -0.005 C 
ATOM      3  C   UNL     1      -0.163  -2.229  -3.476  0.00  0.00    +0.006 C 
ATOM      4  C   UNL     1       0.842  -2.752  -4.505  0.00  0.00    +0.035 C 
ATOM      5  C   UNL     1       2.217  -2.156  -4.222  0.00  0.00    +0.113 C 
ATOM      6  C   UNL     1       2.167  -0.633  -4.275  0.00  0.00    +0.035 C 
ATOM      7  C   UNL     1       1.156  -0.118  -3.246  0.00  0.00    +0.006 C 
ATOM      8  C   UNL     1       3.234  -2.685  -5.207  0.00  0.00    +0.247 C 
ATOM      9  O   UNL     1       3.229  -2.550  -6.411  0.00  0.00    -0.273 OA
ATOM     10  N   UNL     1       4.150  -3.338  -4.462  0.00  0.00    -0.215 N 
ATOM     11  C   UNL     1       3.850  -3.292  -3.158  0.00  0.00    +0.310 C 
ATOM     12  O   UNL     1       4.526  -3.808  -2.290  0.00  0.00    -0.252 OA
ATOM     13  N   UNL     1       2.715  -2.609  -2.917  0.00  0.00    -0.285 N 
ATOM     14  H   UNL     1       2.306  -2.448  -2.052  0.00  0.00    +0.151 HD
BRANCH   2  16
ATOM     15  C   UNL     1      -1.300   1.346  -2.611  0.00  0.00    +0.011 C 
ATOM     16  C   UNL     1      -1.237  -0.181  -2.532  0.00  0.00    -0.035 C 
ATOM     17  C   UNL     1      -0.806  -0.601  -1.125  0.00  0.00    +0.011 C 
ATOM     18  C   UNL     1      -2.618  -0.765  -2.838  0.00  0.00    +0.011 C 
ENDBRANCH   2  16
ENDBRANCH   1  10
BRANCH   1  19
ATOM     19  C   UNL     1       6.481  -3.047  -5.071  0.00  0.00    +0.231 C 
ATOM     20  O   UNL     1       6.335  -1.905  -4.691  0.00  0.00    -0.274 OA
ATOM     21  N   UNL     1       7.676  -3.451  -5.546  0.00  0.00    -0.312 N 
ATOM     22  H   UNL     1       7.793  -4.365  -5.850  0.00  0.00    +0.149 HD
BRANCH  21  23
ATOM     23  C   UNL     1       8.798  -2.511  -5.603  0.00  0.00    +0.126 C 
BRANCH  23  24
ATOM     24  C   UNL     1       9.989  -3.179  -6.293  0.00  0.00    +0.038 C 
ATOM     25  C   UNL     1      11.201  -2.247  -6.234  0.00  0.00    +0.024 C 
ATOM     26  C   UNL     1      10.869  -0.934  -6.947  0.00  0.00    +0.002 C 
ATOM     27  C   UNL     1      10.517  -1.222  -8.408  0.00  0.00    +0.000 C 
ATOM     28  C   UNL     1       9.306  -2.154  -8.466  0.00  0.00    +0.002 C 
ATOM     29  C   UNL     1       9.637  -3.467  -7.754  0.00  0.00    +0.024 C 
BRANCH  24  30
ATOM     30  N   UNL     1      10.307  -4.439  -5.608  0.00  0.00    -0.291 NA
ATOM     31  C   UNL     1      10.599  -4.207  -4.186  0.00  0.00    +0.113 C 
ATOM     32  C   UNL     1      10.866  -5.550  -3.500  0.00  0.00    +0.175 C 
ATOM     33  O   UNL     1      11.938  -6.218  -4.171  0.00  0.00    -0.377 OA
ATOM     34  C   UNL     1      11.687  -6.460  -5.558  0.00  0.00    +0.175 C 
ATOM     35  C   UNL     1      11.429  -5.127  -6.265  0.00  0.00    +0.113 C 
ENDBRANCH  24  30
ENDBRANCH  23  24
ENDBRANCH  21  23
ENDBRANCH   1  19
TORSDOF 6
