REMARK  Name = ZINC42334069
REMARK  9 active torsions:
REMARK  status: ('A' for Active; 'I' for Inactive)
REMARK    1  A    between atoms: C_1  and  C_2
REMARK    2  A    between atoms: C_5  and  N_25
REMARK    3  A    between atoms: C_7  and  N_8
REMARK    4  A    between atoms: C_9  and  C_11
REMARK    5  A    between atoms: C_11  and  C_13
REMARK    6  A    between atoms: C_11  and  N_14
REMARK    7  A    between atoms: N_14  and  C_15
REMARK    8  A    between atoms: C_15  and  C_17
REMARK    9  A    between atoms: C_15  and  C_18
REMARK                            x       y       z     vdW  Elec       q    Type
REMARK                         _______ _______ _______ _____ _____    ______ ____
ROOT
ATOM      1  N   UNL     1       0.018  -0.037   2.412  0.00  0.00    -0.284 N 
ATOM      2  C   UNL     1      -0.064  -0.710   3.577  0.00  0.00    +0.234 C 
ATOM      3  O   UNL     1      -0.054  -1.923   3.579  0.00  0.00    -0.274 OA
ATOM      4  H   UNL     1       0.073   0.932   2.414  0.00  0.00    +0.155 HD
ENDROOT
BRANCH   1  11
ATOM      5  C   UNL     1      -1.266   1.153   0.169  0.00  0.00    +0.045 C 
ATOM      6  C   UNL     1      -0.591  -0.191   0.080  0.00  0.00    -0.029 A 
ATOM      7  C   UNL     1      -0.579  -0.880  -1.117  0.00  0.00    +0.007 A 
ATOM      8  C   UNL     1       0.041  -2.114  -1.199  0.00  0.00    +0.033 A 
ATOM      9  C   UNL     1       0.650  -2.661  -0.085  0.00  0.00    +0.128 A 
ATOM     10  C   UNL     1       0.641  -1.977   1.115  0.00  0.00    +0.056 A 
ATOM     11  C   UNL     1       0.024  -0.735   1.200  0.00  0.00    +0.039 A 
BRANCH   9  12
ATOM     12  N   UNL     1       1.311  -3.982  -0.177  0.00  0.00    +0.056 N 
ATOM     13  O   UNL     1       1.318  -4.582  -1.227  0.00  0.00    -0.126 OA
ATOM     14  O   UNL     1       1.843  -4.461   0.797  0.00  0.00    -0.126 OA
ENDBRANCH   9  12
ENDBRANCH   1  11
BRANCH   2  15
ATOM     15  C   UNL     1      -0.167   0.045   4.878  0.00  0.00    +0.138 C 
ATOM     16  C   UNL     1       1.065   0.934   5.051  0.00  0.00    +0.034 C 
BRANCH  15  17
ATOM     17  N   UNL     1      -0.243  -0.909   5.992  0.00  0.00    -0.299 NA
ATOM     18  H   UNL     1       0.311  -1.730   5.804  0.00  0.00    +0.123 HD
BRANCH  17  19
ATOM     19  C   UNL     1      -1.637  -1.270   6.282  0.00  0.00    +0.081 C 
ATOM     20  C   UNL     1      -2.285  -0.169   7.124  0.00  0.00    +0.029 C 
BRANCH  19  21
ATOM     21  C   UNL     1      -1.672  -2.571   7.043  0.00  0.00    -0.029 A 
ATOM     22  C   UNL     1      -0.737  -2.818   8.031  0.00  0.00    +0.005 A 
ATOM     23  C   UNL     1      -0.768  -4.010   8.730  0.00  0.00    +0.002 A 
ATOM     24  C   UNL     1      -1.733  -4.957   8.440  0.00  0.00    +0.020 A 
ATOM     25  C   UNL     1      -2.668  -4.710   7.451  0.00  0.00    +0.041 A 
ATOM     26  C   UNL     1      -2.640  -3.514   6.756  0.00  0.00    +0.025 A 
ATOM     27 CL   UNL     1      -3.880  -5.898   7.086  0.00  0.00    -0.084 Cl
ENDBRANCH  19  21
ENDBRANCH  17  19
ENDBRANCH  15  17
ENDBRANCH   2  15
TORSDOF 6
