REMARK  Name = ZINC15236606
REMARK  10 active torsions:
REMARK  status: ('A' for Active; 'I' for Inactive)
REMARK    1  A    between atoms: C_1  and  C_2
REMARK    2  A    between atoms: C_2  and  C_27
REMARK    3  A    between atoms: N_5  and  C_9
REMARK    4  A    between atoms: C_9  and  C_10
REMARK    5  A    between atoms: C_10  and  C_12
REMARK    6  A    between atoms: C_10  and  O_26
REMARK    7  A    between atoms: C_12  and  O_13
REMARK    8  A    between atoms: O_13  and  C_14
REMARK    9  A    between atoms: C_17  and  C_20
REMARK   10  A    between atoms: C_30  and  N_33
REMARK                            x       y       z     vdW  Elec       q    Type
REMARK                         _______ _______ _______ _____ _____    ______ ____
ROOT
ATOM      1  C   UNL     1      10.361   0.295  -0.968  0.00  0.00    +0.047 C 
ATOM      2  C   UNL     1       9.006  -0.307  -0.592  0.00  0.00    +0.135 C 
ATOM      3  C   UNL     1       7.875   0.590  -1.055  0.00  0.00    +0.251 C 
ATOM      4  O   UNL     1       7.613   0.908  -2.195  0.00  0.00    -0.272 OA
ATOM      5  N   UNL     1       7.222   0.960   0.064  0.00  0.00    -0.221 N 
ATOM      6  C   UNL     1       7.779   0.431   1.159  0.00  0.00    +0.310 C 
ATOM      7  O   UNL     1       7.369   0.624   2.287  0.00  0.00    -0.252 OA
ATOM      8  N   UNL     1       8.842  -0.342   0.872  0.00  0.00    -0.281 N 
ATOM      9  H   UNL     1       9.396  -0.825   1.506  0.00  0.00    +0.152 HD
ENDROOT
BRANCH   2  10
ATOM     10  C   UNL     1       8.858  -1.690  -1.174  0.00  0.00    -0.015 A 
ATOM     11  C   UNL     1       8.247  -1.860  -2.402  0.00  0.00    +0.008 A 
ATOM     12  C   UNL     1       8.116  -3.128  -2.939  0.00  0.00    +0.033 A 
ATOM     13  C   UNL     1       8.587  -4.225  -2.242  0.00  0.00    +0.126 A 
ATOM     14  C   UNL     1       9.194  -4.055  -1.012  0.00  0.00    +0.033 A 
ATOM     15  C   UNL     1       9.329  -2.787  -0.478  0.00  0.00    +0.008 A 
BRANCH  13  16
ATOM     16  N   UNL     1       8.442  -5.582  -2.814  0.00  0.00    +0.056 N 
ATOM     17  O   UNL     1       8.856  -6.550  -2.200  0.00  0.00    -0.126 OA
ATOM     18  O   UNL     1       7.907  -5.733  -3.898  0.00  0.00    -0.126 OA
ENDBRANCH  13  16
ENDBRANCH   2  10
BRANCH   5  19
ATOM     19  C   UNL     1       6.050   1.839   0.080  0.00  0.00    +0.152 C 
BRANCH  19  20
ATOM     20  C   UNL     1       4.779   0.995  -0.038  0.00  0.00    +0.170 C 
BRANCH  20  21
ATOM     21  O   UNL     1       4.807   0.261  -1.264  0.00  0.00    -0.387 OA
ATOM     22  H   UNL     1       4.855   0.816  -2.054  0.00  0.00    +0.210 HD
ENDBRANCH  20  21
BRANCH  20  23
ATOM     23  C   UNL     1       3.554   1.913  -0.022  0.00  0.00    +0.261 C 
BRANCH  23  24
ATOM     24  O   UNL     1       2.365   1.120  -0.015  0.00  0.00    -0.489 OA
BRANCH  24  25
ATOM     25  C   UNL     1       1.181   1.786   0.000  0.00  0.00    +0.121 A 
ATOM     26  C   UNL     1      -0.013   1.076   0.008  0.00  0.00    +0.046 A 
ATOM     27  C   UNL     1      -1.216   1.748   0.017  0.00  0.00    +0.012 A 
ATOM     28  C   UNL     1      -1.234   3.142   0.031  0.00  0.00    -0.018 A 
ATOM     29  C   UNL     1      -0.035   3.852   0.023  0.00  0.00    +0.012 A 
ATOM     30  C   UNL     1       1.166   3.174   0.007  0.00  0.00    +0.046 A 
BRANCH  28  31
ATOM     31  C   UNL     1      -2.528   3.868   0.047  0.00  0.00    -0.018 A 
ATOM     32  C   UNL     1      -2.547   5.262   0.060  0.00  0.00    +0.008 A 
ATOM     33  C   UNL     1      -3.754   5.932   0.070  0.00  0.00    +0.001 A 
ATOM     34  C   UNL     1      -4.942   5.224   0.078  0.00  0.00    +0.000 A 
ATOM     35  C   UNL     1      -4.928   3.841   0.070  0.00  0.00    +0.001 A 
ATOM     36  C   UNL     1      -3.728   3.160   0.055  0.00  0.00    +0.008 A 
ENDBRANCH  28  31
ENDBRANCH  24  25
ENDBRANCH  23  24
ENDBRANCH  20  23
ENDBRANCH  19  20
ENDBRANCH   5  19
TORSDOF 9
