REMARK  Name = ZINC64861339
REMARK  5 active torsions:
REMARK  status: ('A' for Active; 'I' for Inactive)
REMARK    1  A    between atoms: C_1  and  C_2
REMARK    2  A    between atoms: C_2  and  N_3
REMARK    3  A    between atoms: C_13  and  S_15
REMARK    4  A    between atoms: S_15  and  N_18
REMARK    5  A    between atoms: N_21  and  C_24
REMARK                            x       y       z     vdW  Elec       q    Type
REMARK                         _______ _______ _______ _____ _____    ______ ____
ROOT
ATOM      1  S   UNL     1       2.631  -7.697  -4.508  0.00  0.00    +0.061 S 
ATOM      2  O   UNL     1       3.753  -7.550  -5.366  0.00  0.00    -0.153 OA
ATOM      3  O   UNL     1       2.635  -8.576  -3.391  0.00  0.00    -0.153 OA
ENDROOT
BRANCH   1  14
ATOM      4  N   UNL     1       0.727  -0.432  -1.276  0.00  0.00    -0.299 N 
ATOM      5  C   UNL     1       0.856  -1.758  -1.483  0.00  0.00    +0.306 C 
ATOM      6  O   UNL     1       0.402  -2.546  -0.676  0.00  0.00    -0.252 OA
ATOM      7  N   UNL     1       1.487  -2.209  -2.584  0.00  0.00    -0.255 N 
ATOM      8  C   UNL     1       2.079  -1.360  -3.622  0.00  0.00    +0.120 C 
ATOM      9  C   UNL     1       2.672  -2.335  -4.652  0.00  0.00    +0.056 C 
ATOM     10  C   UNL     1       2.360  -3.708  -4.100  0.00  0.00    -0.023 A 
ATOM     11  C   UNL     1       1.680  -3.558  -2.902  0.00  0.00    +0.041 A 
ATOM     12  C   UNL     1       1.287  -4.698  -2.198  0.00  0.00    +0.026 A 
ATOM     13  C   UNL     1       1.578  -5.953  -2.690  0.00  0.00    +0.030 A 
ATOM     14  C   UNL     1       2.260  -6.092  -3.884  0.00  0.00    +0.106 A 
ATOM     15  C   UNL     1       2.645  -4.967  -4.591  0.00  0.00    +0.034 A 
ATOM     16  H   UNL     1       1.088   0.197  -1.920  0.00  0.00    +0.150 HD
BRANCH   4  18
ATOM     17  C   UNL     1       0.032   1.589  -0.087  0.00  0.00    +0.024 C 
ATOM     18  C   UNL     1       0.040   0.059  -0.079  0.00  0.00    +0.102 C 
ENDBRANCH   4  18
ENDBRANCH   1  14
BRANCH   1  19
ATOM     19  N   UNL     1       1.359  -8.156  -5.465  0.00  0.00    -0.174 NA
ATOM     20  C   UNL     1       0.215  -8.878  -4.893  0.00  0.00    +0.128 C 
ATOM     21  C   UNL     1      -1.068  -8.105  -5.225  0.00  0.00    +0.122 C 
ATOM     22  N   UNL     1      -1.072  -7.796  -6.662  0.00  0.00    -0.327 N 
ATOM     23  C   UNL     1       0.073  -7.074  -7.234  0.00  0.00    +0.122 C 
ATOM     24  C   UNL     1       1.353  -7.842  -6.901  0.00  0.00    +0.128 C 
BRANCH  22  25
ATOM     25  C   UNL     1      -2.144  -8.183  -7.470  0.00  0.00    +0.030 A 
ATOM     26  C   UNL     1      -3.165  -8.964  -6.944  0.00  0.00    +0.024 A 
ATOM     27  C   UNL     1      -4.224  -9.345  -7.745  0.00  0.00    +0.022 A 
ATOM     28  C   UNL     1      -4.269  -8.948  -9.070  0.00  0.00    +0.041 A 
ATOM     29  C   UNL     1      -3.253  -8.170  -9.596  0.00  0.00    +0.022 A 
ATOM     30  C   UNL     1      -2.194  -7.782  -8.799  0.00  0.00    +0.024 A 
ATOM     31 CL   UNL     1      -5.601  -9.429 -10.073  0.00  0.00    -0.084 Cl
ENDBRANCH  22  25
ENDBRANCH   1  19
TORSDOF 4
