REMARK  Name = ZINC12285399
REMARK  12 active torsions:
REMARK  status: ('A' for Active; 'I' for Inactive)
REMARK    1  A    between atoms: C_1  and  O_2
REMARK    2  A    between atoms: O_2  and  C_3
REMARK    3  A    between atoms: C_6  and  C_11
REMARK    4  A    between atoms: C_8  and  O_9
REMARK    5  A    between atoms: O_9  and  C_10
REMARK    6  A    between atoms: C_15  and  O_37
REMARK    7  A    between atoms: C_16  and  O_35
REMARK    8  A    between atoms: N_22  and  N_23
REMARK    9  A    between atoms: C_24  and  C_26
REMARK   10  A    between atoms: C_29  and  N_32
REMARK   11  A    between atoms: O_35  and  C_36
REMARK   12  A    between atoms: O_37  and  C_38
REMARK                            x       y       z     vdW  Elec       q    Type
REMARK                         _______ _______ _______ _____ _____    ______ ____
ROOT
ATOM      1  C   UNL     1       1.224  -0.790  -0.001  0.00  0.00    +0.157 C 
ATOM      2  C   UNL     1       2.396  -0.007  -0.520  0.00  0.00    -0.014 A 
ATOM      3  C   UNL     1       3.494  -0.701  -1.011  0.00  0.00    +0.055 A 
ATOM      4  C   UNL     1       4.594  -0.019  -1.497  0.00  0.00    +0.162 A 
ATOM      5  C   UNL     1       4.600   1.373  -1.494  0.00  0.00    +0.162 A 
ATOM      6  C   UNL     1       3.504   2.061  -1.004  0.00  0.00    +0.053 A 
ATOM      7  C   UNL     1       2.403   1.372  -0.518  0.00  0.00    -0.030 A 
ATOM      8  C   UNL     1       1.231   2.159   0.002  0.00  0.00    +0.133 C 
ATOM      9  C   UNL     1      -0.016   1.330   0.009  0.00  0.00    +0.237 C 
ATOM     10  O   UNL     1      -1.089   1.896   0.017  0.00  0.00    -0.274 OA
ATOM     11  N   UNL     1       0.002  -0.004   0.002  0.00  0.00    -0.208 N 
ENDROOT
BRANCH   1  15
ATOM     12  C   UNL     1       2.062  -2.065   3.994  0.00  0.00    +0.162 A 
ATOM     13  C   UNL     1       1.584  -0.786   3.757  0.00  0.00    +0.050 A 
ATOM     14  C   UNL     1       1.319  -0.375   2.464  0.00  0.00    +0.009 A 
ATOM     15  C   UNL     1       1.520  -1.242   1.406  0.00  0.00    -0.017 A 
ATOM     16  C   UNL     1       1.997  -2.518   1.634  0.00  0.00    +0.055 A 
ATOM     17  C   UNL     1       2.270  -2.935   2.928  0.00  0.00    +0.162 A 
BRANCH  12  19
ATOM     18  C   UNL     1       2.092  -1.523   6.309  0.00  0.00    +0.277 C 
ATOM     19  O   UNL     1       2.329  -2.469   5.265  0.00  0.00    -0.491 OA
ENDBRANCH  12  19
BRANCH  17  20
ATOM     20  O   UNL     1       2.740  -4.191   3.154  0.00  0.00    -0.491 OA
ATOM     21  C   UNL     1       2.930  -5.029   2.012  0.00  0.00    +0.277 C 
ENDBRANCH  17  20
ENDBRANCH   1  15
BRANCH  11  22
ATOM     22  N   UNL     1      -1.223  -0.683  -0.003  0.00  0.00    -0.227 N 
ATOM     23  C   UNL     1      -1.958  -0.740  -1.132  0.00  0.00    +0.260 C 
ATOM     24  O   UNL     1      -1.557  -0.201  -2.145  0.00  0.00    -0.269 OA
ATOM     25  H   UNL     1      -1.543  -1.113   0.805  0.00  0.00    +0.173 HD
BRANCH  23  26
ATOM     26  C   UNL     1      -3.251  -1.456  -1.137  0.00  0.00    +0.038 A 
ATOM     27  C   UNL     1      -3.711  -2.081   0.023  0.00  0.00    +0.015 A 
ATOM     28  C   UNL     1      -4.920  -2.744   0.012  0.00  0.00    +0.033 A 
ATOM     29  C   UNL     1      -5.672  -2.800  -1.148  0.00  0.00    +0.126 A 
ATOM     30  C   UNL     1      -5.219  -2.188  -2.303  0.00  0.00    +0.033 A 
ATOM     31  C   UNL     1      -4.014  -1.517  -2.304  0.00  0.00    +0.015 A 
BRANCH  29  32
ATOM     32  N   UNL     1      -6.966  -3.519  -1.154  0.00  0.00    +0.056 N 
ATOM     33  O   UNL     1      -7.630  -3.570  -2.174  0.00  0.00    -0.126 OA
ATOM     34  O   UNL     1      -7.367  -4.060  -0.139  0.00  0.00    -0.126 OA
ENDBRANCH  29  32
ENDBRANCH  23  26
ENDBRANCH  11  22
BRANCH   5  35
ATOM     35  O   UNL     1       5.677   2.053  -1.970  0.00  0.00    -0.491 OA
ATOM     36  C   UNL     1       5.610   3.480  -1.935  0.00  0.00    +0.277 C 
ENDBRANCH   5  35
BRANCH   4  37
ATOM     37  O   UNL     1       5.665  -0.705  -1.977  0.00  0.00    -0.491 OA
ATOM     38  C   UNL     1       5.588  -2.132  -1.949  0.00  0.00    +0.277 C 
ENDBRANCH   4  37
TORSDOF 8
