REMARK  Name = ZINC03139919
REMARK  5 active torsions:
REMARK  status: ('A' for Active; 'I' for Inactive)
REMARK    1  A    between atoms: C_6  and  C_7
REMARK    2  A    between atoms: C_17  and  C_25
REMARK    3  A    between atoms: C_18  and  N_24
REMARK    4  A    between atoms: C_19  and  C_20
REMARK    5  A    between atoms: C_19  and  C_22
REMARK                            x       y       z     vdW  Elec       q    Type
REMARK                         _______ _______ _______ _____ _____    ______ ____
ROOT
ATOM      1  C   UNL     1       0.002  -0.004   0.002  0.00  0.00    +0.066 C 
ATOM      2  C   UNL     1      -0.665  -0.484  -1.270  0.00  0.00    +0.030 C 
ATOM      3  C   UNL     1      -0.224   0.392  -2.428  0.00  0.00    +0.009 C 
ATOM      4  C   UNL     1      -0.424  -0.217  -3.777  0.00  0.00    +0.001 C 
ATOM      5  C   UNL     1      -1.849  -0.179  -4.277  0.00  0.00    +0.004 C 
ATOM      6  C   UNL     1      -2.717  -1.222  -3.602  0.00  0.00    +0.027 C 
ATOM      7  C   UNL     1      -2.901  -0.941  -2.164  0.00  0.00    -0.022 C 
ATOM      8  C   UNL     1      -2.157  -0.577  -1.174  0.00  0.00    -0.029 C 
ATOM      9  C   UNL     1      -2.833  -0.316   0.124  0.00  0.00    +0.074 C 
ATOM     10  C   UNL     1      -2.125  -0.270   1.275  0.00  0.00    +0.054 C 
ATOM     11  C   UNL     1      -0.639  -0.496   1.278  0.00  0.00    +0.188 C 
ENDROOT
BRANCH   1  17
ATOM     12  C   UNL     1      -1.225   2.177   0.020  0.00  0.00    +0.007 A 
ATOM     13  C   UNL     1      -1.245   3.559   0.033  0.00  0.00    +0.038 A 
ATOM     14  C   UNL     1      -0.056   4.268   0.025  0.00  0.00    +0.123 A 
ATOM     15  C   UNL     1       1.152   3.591   0.010  0.00  0.00    +0.038 A 
ATOM     16  C   UNL     1       1.170   2.210   0.003  0.00  0.00    +0.007 A 
ATOM     17  C   UNL     1      -0.018   1.503   0.010  0.00  0.00    -0.041 A 
ATOM     18  F   UNL     1      -0.074   5.619   0.032  0.00  0.00    -0.205 F 
ENDBRANCH   1  17
BRANCH  10  19
ATOM     19  N   UNL     1      -2.773  -0.023   2.453  0.00  0.00    -0.358 N 
ATOM     20  H   UNL     1      -2.206   0.015   3.394  0.00  0.00    +0.142 HD
ATOM     21  H   UNL     1      -3.861   0.137   2.459  0.00  0.00    +0.142 HD
ENDBRANCH  10  19
BRANCH  11  22
ATOM     22  C   UNL     1      -0.353  -1.932   1.435  0.00  0.00    +0.091 C 
ATOM     23  N   UNL     1      -0.133  -3.040   1.555  0.00  0.00    -0.194 NA
ENDBRANCH  11  22
BRANCH  11  24
ATOM     24  C   UNL     1      -0.058   0.232   2.418  0.00  0.00    +0.091 C 
ATOM     25  N   UNL     1       0.390   0.795   3.297  0.00  0.00    -0.194 NA
ENDBRANCH  11  24
BRANCH   9  26
ATOM     26  C   UNL     1      -4.250  -0.110   0.155  0.00  0.00    +0.101 C 
ATOM     27  N   UNL     1      -5.373   0.054   0.179  0.00  0.00    -0.191 NA
ENDBRANCH   9  26
TORSDOF 5
