REMARK  Name = ZINC67000432
REMARK  7 active torsions:
REMARK  status: ('A' for Active; 'I' for Inactive)
REMARK    1  A    between atoms: C_1  and  C_2
REMARK    2  A    between atoms: C_5  and  C_26
REMARK    3  A    between atoms: C_6  and  N_8
REMARK    4  A    between atoms: C_9  and  C_11
REMARK    5  A    between atoms: N_13  and  C_14
REMARK    6  A    between atoms: C_14  and  C_15
REMARK    7  A    between atoms: C_15  and  O_25
REMARK                            x       y       z     vdW  Elec       q    Type
REMARK                         _______ _______ _______ _____ _____    ______ ____
ROOT
ATOM      1  C   UNL     1       0.280  -2.893   4.840  0.00  0.00    +0.299 C 
ATOM      2  O   UNL     1       0.295  -4.106   4.827  0.00  0.00    -0.265 OA
ATOM      3  N   UNL     1       0.377  -2.231   6.009  0.00  0.00    -0.305 N 
ATOM      4  H   UNL     1       0.365  -1.261   6.020  0.00  0.00    +0.149 HD
ENDROOT
BRANCH   1   6
ATOM      5  N   UNL     1       0.055  -2.796   2.390  0.00  0.00    -0.278 N 
ATOM      6  C   UNL     1       0.153  -2.134   3.560  0.00  0.00    +0.303 C 
ATOM      7  O   UNL     1       0.138  -0.920   3.573  0.00  0.00    -0.265 OA
ATOM      8  H   UNL     1      -0.013  -3.764   2.385  0.00  0.00    +0.155 HD
BRANCH   5  14
ATOM      9  C   UNL     1       1.273   1.227  -0.157  0.00  0.00    +0.044 C 
ATOM     10  C   UNL     1       0.636  -0.137  -0.079  0.00  0.00    -0.049 A 
ATOM     11  C   UNL     1       0.047  -0.689  -1.202  0.00  0.00    +0.004 A 
ATOM     12  C   UNL     1      -0.539  -1.940  -1.134  0.00  0.00    +0.005 A 
ATOM     13  C   UNL     1      -0.538  -2.642   0.055  0.00  0.00    -0.029 A 
ATOM     14  C   UNL     1       0.053  -2.090   1.185  0.00  0.00    +0.037 A 
ATOM     15  C   UNL     1       0.645  -0.835   1.112  0.00  0.00    +0.027 A 
ATOM     16  C   UNL     1      -1.177  -4.004   0.128  0.00  0.00    +0.045 C 
ENDBRANCH   5  14
ENDBRANCH   1   6
BRANCH   3  17
ATOM     17  C   UNL     1       0.502  -2.975   7.265  0.00  0.00    +0.144 C 
BRANCH  17  18
ATOM     18  C   UNL     1       0.470  -1.999   8.442  0.00  0.00    +0.107 C 
ATOM     19  C   UNL     1       1.614  -0.998   8.297  0.00  0.00    +0.041 C 
ATOM     20  C   UNL     1       1.700  -0.171   9.586  0.00  0.00    +0.008 C 
ATOM     21  C   UNL     1       2.207  -1.077  10.706  0.00  0.00    +0.035 C 
ATOM     22  C   UNL     1       1.394  -2.344  10.771  0.00  0.00    -0.041 A 
ATOM     23  C   UNL     1       0.600  -2.769   9.730  0.00  0.00    -0.011 A 
ATOM     24  C   UNL     1      -0.120  -3.951   9.852  0.00  0.00    +0.007 A 
ATOM     25  C   UNL     1      -0.047  -4.700  11.009  0.00  0.00    +0.000 A 
ATOM     26  C   UNL     1       0.747  -4.271  12.055  0.00  0.00    +0.000 A 
ATOM     27  C   UNL     1       1.464  -3.098  11.935  0.00  0.00    +0.004 A 
BRANCH  18  28
ATOM     28  O   UNL     1      -0.774  -1.295   8.437  0.00  0.00    -0.382 OA
ATOM     29  H   UNL     1      -1.550  -1.867   8.517  0.00  0.00    +0.211 HD
ENDBRANCH  18  28
ENDBRANCH  17  18
ENDBRANCH   3  17
TORSDOF 5
