REMARK  Name = ZINC39569964
REMARK  9 active torsions:
REMARK  status: ('A' for Active; 'I' for Inactive)
REMARK    1  A    between atoms: C_1  and  S_2
REMARK    2  A    between atoms: S_2  and  C_5
REMARK    3  A    between atoms: C_10  and  C_11
REMARK    4  A    between atoms: C_11  and  O_13
REMARK    5  A    between atoms: O_13  and  C_14
REMARK    6  A    between atoms: C_14  and  C_15
REMARK    7  A    between atoms: N_17  and  C_18
REMARK    8  A    between atoms: C_19  and  C_27
REMARK    9  A    between atoms: C_27  and  C_29
REMARK                            x       y       z     vdW  Elec       q    Type
REMARK                         _______ _______ _______ _____ _____    ______ ____
ROOT
ATOM      1  C   UNL     1      -3.250   1.811  -5.410  0.00  0.00    +0.255 C 
ATOM      2  O   UNL     1      -2.563   1.433  -6.335  0.00  0.00    -0.272 OA
ATOM      3  N   UNL     1      -4.415   2.444  -5.650  0.00  0.00    -0.277 N 
ATOM      4  H   UNL     1      -4.964   2.746  -4.910  0.00  0.00    +0.155 HD
ENDROOT
BRANCH   3   5
ATOM      5  C   UNL     1      -4.828   2.664  -6.954  0.00  0.00    +0.083 A 
ATOM      6  C   UNL     1      -6.034   3.198  -7.389  0.00  0.00    +0.054 A 
ATOM      7  C   UNL     1      -6.222   3.325  -8.824  0.00  0.00    -0.024 A 
ATOM      8  C   UNL     1      -5.174   2.897  -9.560  0.00  0.00    -0.005 A 
ATOM      9  S   UNL     1      -3.982   2.354  -8.371  0.00  0.00    -0.077 S 
ATOM     10  C   UNL     1      -5.064   2.895 -11.053  0.00  0.00    +0.043 C 
ATOM     11  C   UNL     1      -6.468   3.103 -11.641  0.00  0.00    +0.005 C 
ATOM     12  C   UNL     1      -7.136   4.279 -10.923  0.00  0.00    +0.005 C 
ATOM     13  C   UNL     1      -7.474   3.886  -9.483  0.00  0.00    +0.037 C 
BRANCH   6  14
ATOM     14  C   UNL     1      -7.071   3.613  -6.443  0.00  0.00    +0.196 C 
ATOM     15  O   UNL     1      -7.134   4.774  -6.080  0.00  0.00    -0.287 OA
BRANCH  14  16
ATOM     16  C   UNL     1      -8.043   2.624  -5.929  0.00  0.00    +0.022 A 
ATOM     17  C   UNL     1      -7.907   1.273  -6.254  0.00  0.00    +0.012 A 
ATOM     18  C   UNL     1      -8.816   0.355  -5.771  0.00  0.00    +0.001 A 
ATOM     19  C   UNL     1      -9.861   0.771  -4.965  0.00  0.00    +0.000 A 
ATOM     20  C   UNL     1     -10.002   2.108  -4.639  0.00  0.00    +0.001 A 
ATOM     21  C   UNL     1      -9.097   3.035  -5.111  0.00  0.00    +0.012 A 
ENDBRANCH  14  16
ENDBRANCH   6  14
ENDBRANCH   3   5
BRANCH   1  22
ATOM     22  C   UNL     1      -2.800   1.571  -3.991  0.00  0.00    +0.328 C 
BRANCH  22  23
ATOM     23  O   UNL     1      -1.546   0.888  -3.998  0.00  0.00    -0.452 OA
BRANCH  23  24
ATOM     24  C   UNL     1      -1.002   0.596  -2.801  0.00  0.00    +0.341 C 
ATOM     25  O   UNL     1      -1.577   0.913  -1.779  0.00  0.00    -0.245 OA
BRANCH  24  31
ATOM     26  C   UNL     1       0.861  -0.413  -1.491  0.00  0.00    +0.102 A 
ATOM     27  C   UNL     1       2.069  -1.077  -1.432  0.00  0.00    +0.028 A 
ATOM     28  C   UNL     1       2.721  -1.436  -2.598  0.00  0.00    +0.002 A 
ATOM     29  C   UNL     1       2.168  -1.133  -3.830  0.00  0.00    +0.001 A 
ATOM     30  C   UNL     1       0.961  -0.470  -3.903  0.00  0.00    +0.017 A 
ATOM     31  C   UNL     1       0.294  -0.109  -2.730  0.00  0.00    +0.084 A 
BRANCH  26  33
ATOM     32  C   UNL     1       0.022   1.858  -0.015  0.00  0.00    +0.200 C 
ATOM     33  S   UNL     1       0.031   0.044  -0.005  0.00  0.00    -0.005 S 
ATOM     34  O   UNL     1       0.868  -0.435   1.039  0.00  0.00    -0.170 OA
ATOM     35  O   UNL     1      -1.291  -0.453  -0.160  0.00  0.00    -0.170 OA
ENDBRANCH  26  33
ENDBRANCH  24  31
ENDBRANCH  23  24
ENDBRANCH  22  23
ENDBRANCH   1  22
TORSDOF 8
