REMARK  Name = ZINC45772343
REMARK  6 active torsions:
REMARK  status: ('A' for Active; 'I' for Inactive)
REMARK    1  A    between atoms: C_1  and  C_2
REMARK    2  A    between atoms: C_3  and  C_12
REMARK    3  A    between atoms: C_5  and  C_7
REMARK    4  A    between atoms: C_12  and  C_13
REMARK    5  A    between atoms: N_15  and  N_16
REMARK    6  A    between atoms: C_17  and  C_19
REMARK                            x       y       z     vdW  Elec       q    Type
REMARK                         _______ _______ _______ _____ _____    ______ ____
ROOT
ATOM      1  C   UNL     1      -3.000  -0.226  -1.406  0.00  0.00    +0.235 C 
ATOM      2  O   UNL     1      -2.250  -0.449  -2.333  0.00  0.00    -0.274 OA
ATOM      3  N   UNL     1      -4.269   0.159  -1.645  0.00  0.00    -0.234 N 
ATOM      4  H   UNL     1      -4.869   0.338  -0.904  0.00  0.00    +0.173 HD
ENDROOT
BRANCH   3   5
ATOM      5  N   UNL     1      -4.722   0.302  -2.963  0.00  0.00    -0.230 N 
ATOM      6  C   UNL     1      -5.992   0.687  -3.201  0.00  0.00    +0.267 C 
ATOM      7  O   UNL     1      -6.745   0.911  -2.272  0.00  0.00    -0.268 OA
ATOM      8  H   UNL     1      -4.122   0.123  -3.704  0.00  0.00    +0.173 HD
BRANCH   6   9
ATOM      9  C   UNL     1      -6.466   0.836  -4.580  0.00  0.00    +0.076 A 
ATOM     10  C   UNL     1      -7.707   1.219  -5.039  0.00  0.00    +0.024 A 
ATOM     11  C   UNL     1      -7.891   1.251  -6.424  0.00  0.00    -0.036 A 
ATOM     12  C   UNL     1      -6.850   0.864  -7.186  0.00  0.00    -0.006 A 
ATOM     13  S   UNL     1      -5.588   0.577  -6.107  0.00  0.00    -0.088 S 
ATOM     14  C   UNL     1      -6.710   0.612  -8.667  0.00  0.00    +0.043 C 
ATOM     15  C   UNL     1      -8.022   0.831  -9.420  0.00  0.00    +0.005 C 
ATOM     16  C   UNL     1      -8.268   2.310  -9.665  0.00  0.00    +0.000 C 
ATOM     17  C   UNL     1      -7.840   3.179  -8.500  0.00  0.00    +0.000 C 
ATOM     18  C   UNL     1      -9.001   3.187  -7.500  0.00  0.00    +0.005 C 
ATOM     19  C   UNL     1      -9.212   1.766  -6.976  0.00  0.00    +0.036 C 
ENDBRANCH   6   9
ENDBRANCH   3   5
BRANCH   1  20
ATOM     20  C   UNL     1      -2.513  -0.379   0.011  0.00  0.00    +0.156 C 
BRANCH  20  23
ATOM     21  C   UNL     1      -0.018   1.503   0.010  0.00  0.00    +0.088 C 
ATOM     22  C   UNL     1       0.002  -0.004   0.002  0.00  0.00    +0.126 A 
ATOM     23  C   UNL     1      -1.070  -0.815   0.003  0.00  0.00    +0.092 A 
ATOM     24  N   UNL     1      -0.628  -2.083  -0.006  0.00  0.00    -0.213 NA
ATOM     25  C   UNL     1       0.687  -2.069  -0.012  0.00  0.00    +0.234 A 
ATOM     26  O   UNL     1       1.099  -0.788  -0.013  0.00  0.00    -0.440 OA
BRANCH  25  27
ATOM     27  C   UNL     1       1.558  -3.253  -0.023  0.00  0.00    +0.074 A 
ATOM     28  C   UNL     1       2.939  -3.318  -0.024  0.00  0.00    +0.021 A 
ATOM     29  C   UNL     1       3.535  -4.558  -0.035  0.00  0.00    +0.008 A 
ATOM     30  C   UNL     1       2.756  -5.671  -0.044  0.00  0.00    +0.046 A 
ATOM     31  S   UNL     1       1.110  -4.981  -0.029  0.00  0.00    -0.092 S 
ENDBRANCH  25  27
ENDBRANCH  20  23
ENDBRANCH   1  20
TORSDOF 5
