REMARK  Name = ZINC21102873
REMARK  11 active torsions:
REMARK  status: ('A' for Active; 'I' for Inactive)
REMARK    1  A    between atoms: C_1  and  C_2
REMARK    2  A    between atoms: C_5  and  C_37
REMARK    3  A    between atoms: N_6  and  C_7
REMARK    4  A    between atoms: C_8  and  C_36
REMARK    5  A    between atoms: N_10  and  C_30
REMARK    6  A    between atoms: C_11  and  N_12
REMARK    7  A    between atoms: C_15  and  C_18
REMARK    8  A    between atoms: N_20  and  C_21
REMARK    9  A    between atoms: C_21  and  C_23
REMARK   10  A    between atoms: C_21  and  C_24
REMARK   11  A    between atoms: C_24  and  C_25
REMARK                            x       y       z     vdW  Elec       q    Type
REMARK                         _______ _______ _______ _____ _____    ______ ____
ROOT
ATOM      1  C   UNL     1      -1.128   2.183   0.019  0.00  0.00    +0.110 A 
ATOM      2  C   UNL     1      -0.700   3.517   0.026  0.00  0.00    +0.086 A 
ATOM      3  N   UNL     1       0.609   3.533   0.014  0.00  0.00    -0.168 NA
ATOM      4  N   UNL     1       1.070   2.211   0.004  0.00  0.00    -0.216 N 
ATOM      5  C   UNL     1      -0.017   1.389   0.010  0.00  0.00    +0.149 A 
ATOM      6  C   UNL     1      -1.596   4.729   0.040  0.00  0.00    +0.070 C 
ENDROOT
BRANCH   1  12
ATOM      7  C   UNL     1      -2.784   1.664  -2.514  0.00  0.00    +0.064 C 
ATOM      8  C   UNL     1      -3.228   1.500  -1.084  0.00  0.00    +0.021 A 
ATOM      9  C   UNL     1      -4.447   1.087  -0.676  0.00  0.00    +0.023 A 
ATOM     10  C   UNL     1      -4.441   1.080   0.732  0.00  0.00    +0.023 A 
ATOM     11  C   UNL     1      -3.217   1.483   1.133  0.00  0.00    +0.021 A 
ATOM     12  N   UNL     1      -2.467   1.739   0.022  0.00  0.00    -0.313 N 
ATOM     13  C   UNL     1      -2.757   1.626   2.561  0.00  0.00    +0.064 C 
ENDBRANCH   1  12
BRANCH   5  14
ATOM     14  N   UNL     1       0.002  -0.004   0.002  0.00  0.00    -0.313 N 
ATOM     15  C   UNL     1      -1.357  -0.549   0.112  0.00  0.00    +0.107 C 
ATOM     16  C   UNL     1      -1.288  -2.072   0.247  0.00  0.00    +0.031 C 
ATOM     17  C   UNL     1      -0.581  -2.657  -0.979  0.00  0.00    +0.078 C 
ATOM     18  C   UNL     1       0.814  -2.036  -1.098  0.00  0.00    +0.031 C 
ATOM     19  C   UNL     1       0.684  -0.515  -1.194  0.00  0.00    +0.107 C 
BRANCH  17  20
ATOM     20  C   UNL     1      -0.456  -4.151  -0.824  0.00  0.00    +0.216 C 
ATOM     21  O   UNL     1       0.640  -4.669  -0.810  0.00  0.00    -0.276 OA
ATOM     22  N   UNL     1      -1.563  -4.910  -0.701  0.00  0.00    -0.312 N 
ATOM     23  H   UNL     1      -2.557  -4.439  -0.714  0.00  0.00    +0.149 HD
BRANCH  22  24
ATOM     24  C   UNL     1      -1.441  -6.362  -0.550  0.00  0.00    +0.077 C 
ATOM     25  C   UNL     1      -1.220  -6.705   0.924  0.00  0.00    +0.028 C 
BRANCH  24  26
ATOM     26  C   UNL     1      -2.724  -7.035  -1.043  0.00  0.00    +0.096 C 
BRANCH  26  27
ATOM     27  C   UNL     1      -2.878  -6.799  -2.524  0.00  0.00    +0.107 A 
ATOM     28  C   UNL     1      -2.395  -7.588  -3.500  0.00  0.00    +0.045 A 
ATOM     29  C   UNL     1      -2.771  -6.997  -4.728  0.00  0.00    +0.041 A 
ATOM     30  C   UNL     1      -3.454  -5.877  -4.429  0.00  0.00    +0.195 A 
ATOM     31  O   UNL     1      -3.515  -5.762  -3.092  0.00  0.00    -0.468 OA
ENDBRANCH  26  27
ENDBRANCH  24  26
ENDBRANCH  22  24
ENDBRANCH  17  20
ENDBRANCH   5  14
BRANCH   4  32
ATOM     32  C   UNL     1       2.411   1.805  -0.011  0.00  0.00    +0.067 A 
ATOM     33  C   UNL     1       2.799   0.661   0.673  0.00  0.00    +0.028 A 
ATOM     34  C   UNL     1       4.121   0.261   0.653  0.00  0.00    +0.002 A 
ATOM     35  C   UNL     1       5.059   1.004  -0.039  0.00  0.00    +0.000 A 
ATOM     36  C   UNL     1       4.677   2.147  -0.718  0.00  0.00    +0.002 A 
ATOM     37  C   UNL     1       3.356   2.549  -0.705  0.00  0.00    +0.028 A 
ENDBRANCH   4  32
TORSDOF 7
