REMARK  Name = ZINC48325432
REMARK  13 active torsions:
REMARK  status: ('A' for Active; 'I' for Inactive)
REMARK    1  A    between atoms: C_1  and  C_2
REMARK    2  A    between atoms: C_2  and  C_4
REMARK    3  A    between atoms: C_2  and  S_17
REMARK    4  A    between atoms: N_6  and  C_7
REMARK    5  A    between atoms: C_12  and  C_13
REMARK    6  A    between atoms: S_17  and  C_18
REMARK    7  A    between atoms: C_22  and  C_33
REMARK    8  A    between atoms: N_28  and  C_29
REMARK    9  A    between atoms: C_29  and  C_30
REMARK   10  A    between atoms: C_30  and  C_31
REMARK   11  A    between atoms: C_30  and  C_32
REMARK   12  A    between atoms: C_33  and  O_35
REMARK   13  A    between atoms: O_35  and  C_36
REMARK                            x       y       z     vdW  Elec       q    Type
REMARK                         _______ _______ _______ _____ _____    ______ ____
ROOT
ATOM      1  C   UNL     1      -0.194  -0.088  -2.812  0.00  0.00    +0.173 A 
ATOM      2  N   UNL     1      -1.288   0.570  -2.522  0.00  0.00    -0.223 NA
ATOM      3  C   UNL     1      -2.135   0.999  -3.488  0.00  0.00    +0.080 A 
ATOM      4  C   UNL     1      -3.302   1.701  -3.176  0.00  0.00    +0.043 A 
ATOM      5  C   UNL     1      -4.141   2.122  -4.200  0.00  0.00    +0.061 A 
ATOM      6  C   UNL     1      -3.823   1.846  -5.537  0.00  0.00    +0.016 A 
ATOM      7  C   UNL     1      -2.686   1.160  -5.854  0.00  0.00    +0.016 A 
ATOM      8  C   UNL     1      -1.829   0.729  -4.841  0.00  0.00    +0.065 A 
ATOM      9  C   UNL     1      -0.593  -0.013  -5.138  0.00  0.00    +0.262 A 
ATOM     10  O   UNL     1      -0.275  -0.276  -6.283  0.00  0.00    -0.267 OA
ATOM     11  N   UNL     1       0.179  -0.387  -4.092  0.00  0.00    -0.287 N 
ENDROOT
BRANCH   5  12
ATOM     12  C   UNL     1      -5.378   2.865  -3.878  0.00  0.00    +0.339 C 
ATOM     13  O   UNL     1      -5.658   3.107  -2.721  0.00  0.00    -0.245 OA
BRANCH  12  14
ATOM     14  O   UNL     1      -6.195   3.275  -4.868  0.00  0.00    -0.464 OA
ATOM     15  C   UNL     1      -7.372   3.988  -4.485  0.00  0.00    +0.280 C 
ENDBRANCH  12  14
ENDBRANCH   5  12
BRANCH   1  16
ATOM     16  S   UNL     1       0.850  -0.607  -1.491  0.00  0.00    -0.075 S 
BRANCH  16  18
ATOM     17  C   UNL     1      -0.031   1.511  -0.002  0.00  0.00    +0.029 C 
ATOM     18  C   UNL     1      -0.002  -0.018  -0.002  0.00  0.00    +0.137 C 
BRANCH  18  19
ATOM     19  C   UNL     1       0.730  -0.506   1.222  0.00  0.00    +0.230 C 
ATOM     20  O   UNL     1       1.911  -0.772   1.156  0.00  0.00    -0.274 OA
ATOM     21  N   UNL     1       0.071  -0.647   2.389  0.00  0.00    -0.284 N 
ATOM     22  H   UNL     1      -0.852  -0.360   2.463  0.00  0.00    +0.155 HD
BRANCH  21  23
ATOM     23  C   UNL     1       0.720  -1.209   3.495  0.00  0.00    +0.045 A 
ATOM     24  C   UNL     1       1.795  -2.068   3.309  0.00  0.00    +0.024 A 
ATOM     25  C   UNL     1       2.433  -2.620   4.402  0.00  0.00    +0.002 A 
ATOM     26  C   UNL     1       2.002  -2.319   5.681  0.00  0.00    +0.001 A 
ATOM     27  C   UNL     1       0.932  -1.465   5.870  0.00  0.00    +0.014 A 
ATOM     28  C   UNL     1       0.293  -0.904   4.781  0.00  0.00    +0.076 A 
BRANCH  28  29
ATOM     29  C   UNL     1      -0.869   0.033   4.987  0.00  0.00    +0.419 C 
ATOM     30  F   UNL     1      -1.108   0.184   6.358  0.00  0.00    -0.166 F 
ATOM     31  F   UNL     1      -0.568   1.279   4.427  0.00  0.00    -0.166 F 
ATOM     32  F   UNL     1      -2.008  -0.493   4.370  0.00  0.00    -0.166 F 
ENDBRANCH  28  29
ENDBRANCH  21  23
ENDBRANCH  18  19
ENDBRANCH  16  18
ENDBRANCH   1  16
BRANCH  11  33
ATOM     33  C   UNL     1       1.423  -1.122  -4.333  0.00  0.00    +0.130 C 
BRANCH  33  34
ATOM     34  C   UNL     1       1.134  -2.625  -4.338  0.00  0.00    +0.003 C 
ATOM     35  C   UNL     1       2.406  -3.388  -4.713  0.00  0.00    +0.009 C 
ATOM     36  C   UNL     1       0.671  -3.059  -2.946  0.00  0.00    +0.009 C 
ENDBRANCH  33  34
ENDBRANCH  11  33
TORSDOF 9
