REMARK  Name = ZINC63830546
REMARK  9 active torsions:
REMARK  status: ('A' for Active; 'I' for Inactive)
REMARK    1  A    between atoms: C_1  and  N_2
REMARK    2  A    between atoms: N_2  and  C_3
REMARK    3  A    between atoms: N_2  and  C_4
REMARK    4  A    between atoms: C_7  and  C_10
REMARK    5  A    between atoms: C_10  and  C_12
REMARK    6  A    between atoms: C_10  and  C_29
REMARK    7  A    between atoms: C_12  and  N_13
REMARK    8  A    between atoms: C_14  and  C_16
REMARK    9  A    between atoms: C_19  and  N_23
REMARK                            x       y       z     vdW  Elec       q    Type
REMARK                         _______ _______ _______ _____ _____    ______ ____
ROOT
ATOM      1  C   UNL     1       0.254  -3.078  -4.727  0.00  0.00    +0.064 C 
ENDROOT
BRANCH   1   2
ATOM      2  C   UNL     1      -0.929  -2.428  -5.398  0.00  0.00    -0.033 C 
ATOM      3  C   UNL     1      -2.028  -3.046  -5.886  0.00  0.00    -0.000 A 
ATOM      4  C   UNL     1      -2.436  -4.456  -5.937  0.00  0.00    +0.010 A 
ATOM      5  C   UNL     1      -3.622  -4.775  -6.503  0.00  0.00    +0.001 A 
ATOM      6  C   UNL     1      -4.469  -3.797  -7.041  0.00  0.00    +0.002 A 
ATOM      7  C   UNL     1      -4.164  -2.482  -7.031  0.00  0.00    +0.026 A 
ATOM      8  C   UNL     1      -2.941  -2.033  -6.461  0.00  0.00    +0.043 A 
ATOM      9  N   UNL     1      -2.426  -0.834  -6.333  0.00  0.00    -0.380 N 
ATOM     10  C   UNL     1      -1.129  -0.951  -5.657  0.00  0.00    +0.145 C 
ATOM     11  H   UNL     1      -2.836  -0.007  -6.632  0.00  0.00    +0.160 HD
ENDBRANCH   1   2
BRANCH   1  15
ATOM     12  C   UNL     1       0.651  -1.555  -0.753  0.00  0.00    +0.029 A 
ATOM     13  C   UNL     1       0.449  -2.913  -0.961  0.00  0.00    +0.023 A 
ATOM     14  C   UNL     1       0.320  -3.402  -2.246  0.00  0.00    +0.006 A 
ATOM     15  C   UNL     1       0.393  -2.541  -3.325  0.00  0.00    -0.039 A 
ATOM     16  C   UNL     1       0.595  -1.188  -3.122  0.00  0.00    +0.006 A 
ATOM     17  C   UNL     1       0.718  -0.692  -1.839  0.00  0.00    +0.023 A 
BRANCH  12  19
ATOM     18  C   UNL     1       0.988   0.376   0.764  0.00  0.00    +0.129 C 
ATOM     19  N   UNL     1       0.781  -1.058   0.546  0.00  0.00    -0.336 N 
ATOM     20  C   UNL     1       0.710  -1.970   1.690  0.00  0.00    +0.129 C 
ENDBRANCH  12  19
ENDBRANCH   1  15
BRANCH   1  21
ATOM     21  C   UNL     1       1.524  -2.768  -5.520  0.00  0.00    +0.117 C 
BRANCH  21  22
ATOM     22  N   UNL     1       1.438  -3.392  -6.843  0.00  0.00    -0.311 N 
ATOM     23  C   UNL     1       2.451  -3.253  -7.721  0.00  0.00    +0.238 C 
ATOM     24  O   UNL     1       3.438  -2.608  -7.415  0.00  0.00    -0.271 OA
ATOM     25  H   UNL     1       0.652  -3.906  -7.087  0.00  0.00    +0.149 HD
BRANCH  23  26
ATOM     26  C   UNL     1       2.368  -3.856  -8.998  0.00  0.00    +0.086 C 
ATOM     27  C   UNL     1       3.325  -3.620  -9.919  0.00  0.00    +0.021 C 
ATOM     28  N   UNL     1       4.304  -2.716  -9.705  0.00  0.00    -0.320 N 
ATOM     29  C   UNL     1       5.558  -2.895 -10.469  0.00  0.00    +0.222 C 
ATOM     30  S   UNL     1       4.907  -3.709 -11.991  0.00  0.00    -0.113 S 
ATOM     31  C   UNL     1       3.356  -4.364 -11.244  0.00  0.00    +0.123 C 
ATOM     32  H   UNL     1       4.190  -1.983  -9.080  0.00  0.00    +0.148 HD
BRANCH  29  33
ATOM     33  N   UNL     1       6.179  -1.605 -10.780  0.00  0.00    -0.274 N 
ATOM     34  C   UNL     1       7.561  -1.441 -11.245  0.00  0.00    +0.111 C 
ATOM     35  C   UNL     1       7.628  -0.020 -11.846  0.00  0.00    +0.028 C 
ATOM     36  C   UNL     1       6.489   0.698 -11.086  0.00  0.00    +0.097 C 
ATOM     37  C   UNL     1       5.553  -0.419 -10.682  0.00  0.00    +0.218 C 
ATOM     38  O   UNL     1       4.406  -0.267 -10.319  0.00  0.00    -0.276 OA
ENDBRANCH  29  33
ENDBRANCH  23  26
ENDBRANCH  21  22
ENDBRANCH   1  21
TORSDOF 7
