REMARK  Name = ZINC49765544
REMARK  12 active torsions:
REMARK  status: ('A' for Active; 'I' for Inactive)
REMARK    1  A    between atoms: C_1  and  C_2
REMARK    2  A    between atoms: C_2  and  N_3
REMARK    3  A    between atoms: N_3  and  C_4
REMARK    4  A    between atoms: N_3  and  C_6
REMARK    5  A    between atoms: C_4  and  C_5
REMARK    6  A    between atoms: C_6  and  C_7
REMARK    7  A    between atoms: C_7  and  N_8
REMARK    8  A    between atoms: N_17  and  C_18
REMARK    9  A    between atoms: C_18  and  C_20
REMARK   10  A    between atoms: C_23  and  N_29
REMARK   11  A    between atoms: C_24  and  N_26
REMARK   12  A    between atoms: N_29  and  C_30
REMARK                            x       y       z     vdW  Elec       q    Type
REMARK                         _______ _______ _______ _____ _____    ______ ____
ROOT
ATOM      1  N   UNL     1       1.879  -3.983   1.857  0.00  0.00    -0.314 N 
ATOM      2  C   UNL     1       0.876  -4.864   2.249  0.00  0.00    +0.068 A 
ATOM      3  C   UNL     1      -0.359  -4.684   2.855  0.00  0.00    +0.028 A 
ATOM      4  C   UNL     1      -1.158  -5.777   3.128  0.00  0.00    +0.002 A 
ATOM      5  C   UNL     1      -0.731  -7.053   2.800  0.00  0.00    +0.002 A 
ATOM      6  C   UNL     1       0.496  -7.243   2.197  0.00  0.00    +0.028 A 
ATOM      7  C   UNL     1       1.306  -6.151   1.917  0.00  0.00    +0.066 A 
ATOM      8  N   UNL     1       2.562  -6.026   1.331  0.00  0.00    -0.326 N 
ATOM      9  C   UNL     1       2.888  -4.705   1.300  0.00  0.00    +0.201 A 
ATOM     10  N   UNL     1       4.013  -4.202   0.806  0.00  0.00    -0.142 NA
ATOM     11  H   UNL     1       3.109  -6.754   0.999  0.00  0.00    +0.169 HD
ENDROOT
BRANCH  10  12
ATOM     12  C   UNL     1       4.880  -4.999   0.171  0.00  0.00    +0.270 C 
ATOM     13  O   UNL     1       4.598  -6.167  -0.033  0.00  0.00    -0.268 OA
BRANCH  12  14
ATOM     14  C   UNL     1       6.181  -4.463  -0.283  0.00  0.00    +0.041 A 
ATOM     15  C   UNL     1       6.508  -3.126  -0.044  0.00  0.00    +0.015 A 
ATOM     16  C   UNL     1       7.720  -2.629  -0.467  0.00  0.00    +0.026 A 
ATOM     17  C   UNL     1       8.620  -3.458  -1.133  0.00  0.00    +0.058 A 
ATOM     18  C   UNL     1       8.296  -4.790  -1.372  0.00  0.00    +0.148 A 
ATOM     19  C   UNL     1       7.087  -5.293  -0.946  0.00  0.00    +0.047 A 
BRANCH  18  20
ATOM     20  N   UNL     1       9.254  -5.668  -2.080  0.00  0.00    +0.058 N 
ATOM     21  O   UNL     1       8.931  -6.792  -2.387  0.00  0.00    -0.126 OA
ATOM     22  O   UNL     1      10.359  -5.261  -2.353  0.00  0.00    -0.126 OA
ENDBRANCH  18  20
BRANCH  17  23
ATOM     23  N   UNL     1       9.844  -2.953  -1.559  0.00  0.00    -0.339 N 
ATOM     24  H   UNL     1      10.430  -3.500  -2.106  0.00  0.00    +0.146 HD
BRANCH  23  25
ATOM     25  C   UNL     1      10.248  -1.596  -1.184  0.00  0.00    +0.071 C 
ATOM     26  C   UNL     1      10.766  -0.680  -2.295  0.00  0.00    +0.024 C 
ATOM     27  C   UNL     1      11.737  -1.255  -1.262  0.00  0.00    +0.024 C 
ENDBRANCH  23  25
ENDBRANCH  17  23
ENDBRANCH  12  14
ENDBRANCH  10  12
BRANCH   1  28
ATOM     28  C   UNL     1       1.850  -2.526   2.013  0.00  0.00    +0.106 C 
BRANCH  28  29
ATOM     29  C   UNL     1       1.216  -1.893   0.773  0.00  0.00    -0.057 C 
BRANCH  29  30
ATOM     30  N   UNL     1       1.073  -0.446   0.981  0.00  0.00    +0.380 N 
ATOM     31  H   UNL     1       0.538  -0.278   1.820  0.00  0.00    -0.082 HD
BRANCH  30  33
ATOM     32  C   UNL     1       2.252   1.647   1.457  0.00  0.00    -0.017 C 
ATOM     33  C   UNL     1       2.403   0.163   1.117  0.00  0.00    -0.082 C 
ENDBRANCH  30  33
BRANCH  30  34
ATOM     34  C   UNL     1       0.378   0.148  -0.169  0.00  0.00    -0.082 C 
ATOM     35  C   UNL     1      -1.050  -0.397  -0.239  0.00  0.00    -0.017 C 
ENDBRANCH  30  34
ENDBRANCH  29  30
ENDBRANCH  28  29
ENDBRANCH   1  28
TORSDOF 10
