REMARK  Name = ZINC08413809
REMARK  5 active torsions:
REMARK  status: ('A' for Active; 'I' for Inactive)
REMARK    1  A    between atoms: C_4  and  C_7
REMARK    2  A    between atoms: C_13  and  C_15
REMARK    3  A    between atoms: C_16  and  N_33
REMARK    4  A    between atoms: C_18  and  C_29
REMARK    5  A    between atoms: C_20  and  C_24
REMARK                            x       y       z     vdW  Elec       q    Type
REMARK                         _______ _______ _______ _____ _____    ______ ____
ROOT
ATOM      1  C   UNL     1       1.018  10.036   0.042  0.00  0.00    +0.097 A 
ATOM      2  C   UNL     1       2.091   9.168   0.029  0.00  0.00    +0.054 A 
ATOM      3  C   UNL     1       1.822   7.740   0.025  0.00  0.00    +0.041 A 
ATOM      4  C   UNL     1       2.752   6.666   0.011  0.00  0.00    +0.068 A 
ATOM      5  C   UNL     1       2.291   5.387   0.009  0.00  0.00    +0.042 A 
ATOM      6  C   UNL     1       0.913   5.129   0.021  0.00  0.00    +0.079 A 
ATOM      7  N   UNL     1       0.045   6.136   0.028  0.00  0.00    -0.239 NA
ATOM      8  C   UNL     1       0.453   7.386   0.035  0.00  0.00    +0.112 A 
ATOM      9  S   UNL     1      -0.393   8.948   0.050  0.00  0.00    -0.062 S 
ENDROOT
BRANCH   1  16
ATOM     10  C   UNL     1      -0.452  16.168   0.080  0.00  0.00    +0.134 A 
ATOM     11  N   UNL     1       0.756  15.618   0.067  0.00  0.00    -0.140 NA
ATOM     12  N   UNL     1       0.919  14.367   0.066  0.00  0.00    -0.125 NA
ATOM     13  C   UNL     1      -0.108  13.527   0.066  0.00  0.00    +0.188 A 
ATOM     14  S   UNL     1      -1.466  14.693   0.083  0.00  0.00    -0.030 S 
ATOM     15  N   UNL     1      -0.124  12.139   0.061  0.00  0.00    -0.259 N 
ATOM     16  C   UNL     1       1.035  11.451   0.048  0.00  0.00    +0.258 C 
ATOM     17  O   UNL     1       2.097  12.048   0.041  0.00  0.00    -0.269 OA
ATOM     18  H   UNL     1      -0.970  11.664   0.067  0.00  0.00    +0.157 HD
BRANCH  10  22
ATOM     19  C   UNL     1      -1.587  20.261   0.105  0.00  0.00    +0.000 A 
ATOM     20  C   UNL     1      -0.246  19.918   0.092  0.00  0.00    +0.001 A 
ATOM     21  C   UNL     1       0.129  18.590   0.084  0.00  0.00    +0.010 A 
ATOM     22  C   UNL     1      -0.847  17.593   0.089  0.00  0.00    +0.009 A 
ATOM     23  C   UNL     1      -2.197  17.945   0.097  0.00  0.00    +0.010 A 
ATOM     24  C   UNL     1      -2.559  19.277   0.110  0.00  0.00    +0.001 A 
ENDBRANCH  10  22
ENDBRANCH   1  16
BRANCH   6  25
ATOM     25  C   UNL     1       0.425   3.737   0.018  0.00  0.00    +0.038 A 
ATOM     26  C   UNL     1      -0.866   3.275   0.028  0.00  0.00    +0.017 A 
ATOM     27  C   UNL     1      -1.081   1.916   0.017  0.00  0.00    +0.008 A 
ATOM     28  C   UNL     1      -0.013   1.076   0.008  0.00  0.00    +0.046 A 
ATOM     29  S   UNL     1       1.360   2.217   0.001  0.00  0.00    -0.095 S 
ENDBRANCH   6  25
BRANCH   4  30
ATOM     30  C   UNL     1       4.234   6.942  -0.001  0.00  0.00    +0.418 C 
ATOM     31  F   UNL     1       4.933   5.731  -0.013  0.00  0.00    -0.166 F 
ATOM     32  F   UNL     1       4.561   7.681  -1.142  0.00  0.00    -0.166 F 
ATOM     33  F   UNL     1       4.581   7.670   1.142  0.00  0.00    -0.166 F 
ENDBRANCH   4  30
BRANCH   2  34
ATOM     34  N   UNL     1       3.393   9.648   0.020  0.00  0.00    -0.356 N 
ATOM     35  H   UNL     1       4.138   9.027   0.010  0.00  0.00    +0.142 HD
ATOM     36  H   UNL     1       3.558  10.604   0.022  0.00  0.00    +0.142 HD
ENDBRANCH   2  34
TORSDOF 5
