REMARK  Name = ZINC44317958
REMARK  4 active torsions:
REMARK  status: ('A' for Active; 'I' for Inactive)
REMARK    1  A    between atoms: C_1  and  C_2
REMARK    2  A    between atoms: C_5  and  C_17
REMARK    3  A    between atoms: C_7  and  N_8
REMARK    4  A    between atoms: C_9  and  C_11
REMARK                            x       y       z     vdW  Elec       q    Type
REMARK                         _______ _______ _______ _____ _____    ______ ____
ROOT
ATOM      1  C   UNL     1      -0.022   1.495   0.005  0.00  0.00    +0.045 C 
ATOM      2  C   UNL     1      -0.010  -0.012   0.002  0.00  0.00    -0.029 A 
ATOM      3  C   UNL     1      -0.016  -0.699  -1.198  0.00  0.00    +0.006 A 
ATOM      4  C   UNL     1      -0.005  -2.078  -1.209  0.00  0.00    +0.013 A 
ATOM      5  C   UNL     1       0.012  -2.786  -0.005  0.00  0.00    +0.040 A 
ATOM      6  C   UNL     1       0.018  -2.094   1.205  0.00  0.00    +0.036 A 
ATOM      7  C   UNL     1       0.013  -0.707   1.205  0.00  0.00    +0.037 A 
ENDROOT
BRANCH   5   8
ATOM      8  C   UNL     1       0.023  -4.264  -0.014  0.00  0.00    +0.248 A 
ATOM      9  N   UNL     1       0.033  -5.049   1.037  0.00  0.00    -0.108 NA
ATOM     10  N   UNL     1       0.040  -6.276   0.651  0.00  0.00    -0.116 NA
ATOM     11  C   UNL     1       0.035  -6.323  -0.652  0.00  0.00    +0.332 A 
ATOM     12  O   UNL     1       0.018  -5.057  -1.104  0.00  0.00    -0.423 OA
ENDBRANCH   5   8
BRANCH   7  13
ATOM     13  N   UNL     1       0.025  -0.008   2.417  0.00  0.00    -0.279 N 
ATOM     14  C   UNL     1       0.532  -0.587   3.523  0.00  0.00    +0.284 C 
ATOM     15  O   UNL     1       1.069  -1.676   3.449  0.00  0.00    -0.266 OA
ATOM     16  H   UNL     1      -0.331   0.893   2.460  0.00  0.00    +0.155 HD
BRANCH  14  17
ATOM     17  C   UNL     1       0.436   0.096   4.816  0.00  0.00    +0.191 A 
ATOM     18  C   UNL     1       0.910  -0.373   6.009  0.00  0.00    +0.056 A 
ATOM     19  C   UNL     1       0.603   0.597   6.975  0.00  0.00    +0.058 A 
ATOM     20  C   UNL     1      -0.038   1.604   6.338  0.00  0.00    +0.171 A 
ATOM     21  O   UNL     1      -0.131   1.301   5.037  0.00  0.00    -0.444 OA
ATOM     22 BR   UNL     1      -0.688   3.183   7.151  0.00  0.00    -0.008 Br
ENDBRANCH  14  17
ENDBRANCH   7  13
TORSDOF 3
