REMARK  Name = ZINC35780611
REMARK  12 active torsions:
REMARK  status: ('A' for Active; 'I' for Inactive)
REMARK    1  A    between atoms: C_1  and  C_2
REMARK    2  A    between atoms: C_2  and  C_3
REMARK    3  A    between atoms: N_5  and  C_6
REMARK    4  A    between atoms: N_5  and  C_11
REMARK    5  A    between atoms: C_6  and  C_7
REMARK    6  A    between atoms: C_7  and  N_8
REMARK    7  A    between atoms: N_8  and  C_9
REMARK    8  A    between atoms: N_8  and  C_10
REMARK    9  A    between atoms: C_11  and  C_12
REMARK   10  A    between atoms: C_13  and  C_25
REMARK   11  A    between atoms: C_16  and  N_17
REMARK   12  A    between atoms: C_22  and  C_24
REMARK                            x       y       z     vdW  Elec       q    Type
REMARK                         _______ _______ _______ _____ _____    ______ ____
ROOT
ATOM      1  C   UNL     1      -0.278  -3.368   1.926  0.00  0.00    +0.059 A 
ATOM      2  C   UNL     1       0.617  -2.636   2.734  0.00  0.00    +0.120 A 
ATOM      3  N   UNL     1       0.411  -2.984   3.983  0.00  0.00    -0.076 NA
ATOM      4  O   UNL     1      -0.623  -3.951   4.004  0.00  0.00    -0.339 OA
ATOM      5  C   UNL     1      -1.024  -4.159   2.739  0.00  0.00    +0.226 A 
ENDROOT
BRANCH   5   6
ATOM      6  N   UNL     1      -2.021  -5.028   2.334  0.00  0.00    -0.296 N 
ATOM      7  C   UNL     1      -1.684  -6.322   1.725  0.00  0.00    +0.108 C 
ATOM      8  C   UNL     1      -2.403  -7.433   2.496  0.00  0.00    +0.019 C 
ATOM      9  C   UNL     1      -3.903  -7.129   2.539  0.00  0.00    +0.003 C 
ATOM     10  C   UNL     1      -4.136  -5.805   3.269  0.00  0.00    +0.022 C 
ATOM     11  C   UNL     1      -3.436  -4.678   2.512  0.00  0.00    +0.073 C 
ATOM     12  C   UNL     1      -3.547  -3.379   3.313  0.00  0.00    +0.028 C 
ENDBRANCH   5   6
BRANCH   2  13
ATOM     13  C   UNL     1       1.615  -1.645   2.256  0.00  0.00    +0.004 A 
ATOM     14  C   UNL     1       2.380  -1.915   1.124  0.00  0.00    +0.010 A 
ATOM     15  C   UNL     1       3.306  -0.991   0.684  0.00  0.00    +0.001 A 
ATOM     16  C   UNL     1       3.474   0.201   1.365  0.00  0.00    +0.000 A 
ATOM     17  C   UNL     1       2.717   0.474   2.490  0.00  0.00    +0.001 A 
ATOM     18  C   UNL     1       1.785  -0.441   2.935  0.00  0.00    +0.010 A 
ENDBRANCH   2  13
BRANCH   1  19
ATOM     19  C   UNL     1      -0.389  -3.283   0.426  0.00  0.00    +0.150 C 
BRANCH  19  22
ATOM     20  C   UNL     1      -1.625  -1.221   0.029  0.00  0.00    +0.216 C 
ATOM     21  O   UNL     1      -2.662  -0.626  -0.173  0.00  0.00    -0.276 OA
ATOM     22  N   UNL     1      -1.617  -2.568   0.067  0.00  0.00    -0.299 N 
BRANCH  20  24
ATOM     23  C   UNL     1      -0.598   1.036  -0.006  0.00  0.00    +0.013 C 
ATOM     24  C   UNL     1      -0.344  -0.453   0.236  0.00  0.00    +0.092 C 
ENDBRANCH  20  24
BRANCH  22  25
ATOM     25  C   UNL     1      -2.835  -3.317  -0.250  0.00  0.00    +0.089 C 
BRANCH  25  26
ATOM     26  C   UNL     1      -2.914  -3.548  -1.760  0.00  0.00    -0.060 C 
BRANCH  26  27
ATOM     27  N   UNL     1      -4.135  -4.299  -2.078  0.00  0.00    +0.377 N 
ATOM     28  C   UNL     1      -5.312  -3.484  -1.747  0.00  0.00    -0.097 C 
ATOM     29  C   UNL     1      -4.152  -4.624  -3.510  0.00  0.00    -0.097 C 
ATOM     30  H   UNL     1      -4.155  -5.152  -1.539  0.00  0.00    -0.083 HD
ENDBRANCH  26  27
ENDBRANCH  25  26
ENDBRANCH  22  25
ENDBRANCH  19  22
ENDBRANCH   1  19
TORSDOF 8
