REMARK  Name = ZINC64605635
REMARK  7 active torsions:
REMARK  status: ('A' for Active; 'I' for Inactive)
REMARK    1  A    between atoms: C_1  and  C_2
REMARK    2  A    between atoms: C_7  and  C_12
REMARK    3  A    between atoms: C_12  and  C_13
REMARK    4  A    between atoms: C_13  and  N_14
REMARK    5  A    between atoms: C_15  and  C_17
REMARK    6  A    between atoms: C_17  and  N_18
REMARK    7  A    between atoms: C_25  and  C_28
REMARK                            x       y       z     vdW  Elec       q    Type
REMARK                         _______ _______ _______ _____ _____    ______ ____
ROOT
ATOM      1  N   UNL     1       2.321  -7.657   2.899  0.00  0.00    -0.314 N 
ATOM      2  C   UNL     1       2.584  -8.745   2.149  0.00  0.00    +0.232 C 
ATOM      3  O   UNL     1       1.753  -9.160   1.369  0.00  0.00    -0.274 OA
ATOM      4  H   UNL     1       2.986  -7.325   3.523  0.00  0.00    +0.149 HD
ENDROOT
BRANCH   1   5
ATOM      5  C   UNL     1       1.031  -6.974   2.772  0.00  0.00    +0.108 C 
BRANCH   5   6
ATOM      6  C   UNL     1       0.990  -5.779   3.726  0.00  0.00    +0.065 C 
BRANCH   6  13
ATOM      7  C   UNL     1      -0.983   0.932   3.344  0.00  0.00    +0.044 C 
ATOM      8  C   UNL     1      -0.863  -0.534   3.016  0.00  0.00    -0.048 A 
ATOM      9  C   UNL     1      -0.940  -0.932   1.669  0.00  0.00    +0.005 A 
ATOM     10  C   UNL     1      -0.843  -2.221   1.286  0.00  0.00    +0.027 A 
ATOM     11  C   UNL     1      -0.650  -3.266   2.300  0.00  0.00    +0.060 A 
ATOM     12  N   UNL     1      -0.527  -4.560   2.225  0.00  0.00    -0.363 N 
ATOM     13  C   UNL     1      -0.358  -5.066   3.593  0.00  0.00    +0.175 C 
ATOM     14  N   UNL     1      -0.399  -3.894   4.476  0.00  0.00    -0.363 N 
ATOM     15  C   UNL     1      -0.569  -2.845   3.725  0.00  0.00    +0.060 A 
ATOM     16  C   UNL     1      -0.682  -1.411   4.024  0.00  0.00    +0.030 A 
ATOM     17  H   UNL     1      -0.544  -5.092   1.414  0.00  0.00    +0.162 HD
ATOM     18  H   UNL     1      -0.314  -3.901   5.443  0.00  0.00    +0.162 HD
ENDBRANCH   6  13
ENDBRANCH   5   6
ENDBRANCH   1   5
BRANCH   2  19
ATOM     19  C   UNL     1       3.911  -9.447   2.280  0.00  0.00    +0.219 C 
BRANCH  19  20
ATOM     20  N   UNL     1       3.951 -10.591   1.366  0.00  0.00    -0.257 N 
ATOM     21  C   UNL     1       4.415 -10.530   0.054  0.00  0.00    +0.050 A 
ATOM     22  C   UNL     1       4.924  -9.468  -0.690  0.00  0.00    +0.025 A 
ATOM     23  C   UNL     1       5.323  -9.668  -1.996  0.00  0.00    +0.002 A 
ATOM     24  C   UNL     1       5.221 -10.921  -2.573  0.00  0.00    +0.000 A 
ATOM     25  C   UNL     1       4.718 -11.980  -1.839  0.00  0.00    +0.007 A 
ATOM     26  C   UNL     1       4.318 -11.784  -0.536  0.00  0.00    +0.002 A 
ATOM     27  C   UNL     1       3.739 -12.705   0.512  0.00  0.00    +0.190 C 
ATOM     28  N   UNL     1       3.543 -11.849   1.696  0.00  0.00    -0.223 NA
ATOM     29  H   UNL     1       4.060 -12.200   2.488  0.00  0.00    +0.146 HD
BRANCH  27  30
ATOM     30  C   UNL     1       2.424 -13.273   0.043  0.00  0.00    +0.239 C 
ATOM     31  O   UNL     1       1.388 -12.701   0.307  0.00  0.00    -0.273 OA
ATOM     32  N   UNL     1       2.400 -14.416  -0.671  0.00  0.00    -0.300 N 
ATOM     33  C   UNL     1       3.562 -15.268  -0.964  0.00  0.00    +0.108 C 
ATOM     34  C   UNL     1       3.061 -16.445  -1.827  0.00  0.00    +0.020 C 
ATOM     35  C   UNL     1       1.750 -15.890  -2.445  0.00  0.00    +0.020 C 
ATOM     36  C   UNL     1       1.203 -15.023  -1.281  0.00  0.00    +0.108 C 
ENDBRANCH  27  30
ENDBRANCH  19  20
ENDBRANCH   2  19
TORSDOF 6
