REMARK  Name = ZINC12810454
REMARK  9 active torsions:
REMARK  status: ('A' for Active; 'I' for Inactive)
REMARK    1  A    between atoms: C_1  and  C_2
REMARK    2  A    between atoms: C_2  and  C_3
REMARK    3  A    between atoms: C_2  and  C_4
REMARK    4  A    between atoms: C_4  and  O_35
REMARK    5  A    between atoms: C_5  and  C_31
REMARK    6  A    between atoms: C_7  and  C_23
REMARK    7  A    between atoms: N_12  and  C_13
REMARK    8  A    between atoms: C_31  and  O_33
REMARK    9  A    between atoms: O_33  and  C_34
REMARK                            x       y       z     vdW  Elec       q    Type
REMARK                         _______ _______ _______ _____ _____    ______ ____
ROOT
ATOM      1  C   UNL     1      -0.480  -1.110   0.430  0.00  0.00    +0.156 C 
ATOM      2  C   UNL     1      -1.403  -2.157   1.062  0.00  0.00    +0.173 C 
ATOM      3  C   UNL     1      -2.854  -1.794   0.728  0.00  0.00    +0.123 C 
ATOM      4  N   UNL     1      -3.122  -0.426   1.175  0.00  0.00    -0.318 N 
ATOM      5  C   UNL     1      -2.146   0.493   1.230  0.00  0.00    +0.140 C 
ATOM      6  S   UNL     1      -2.538   2.077   1.749  0.00  0.00    -0.018 S 
ATOM      7  N   UNL     1      -0.877   0.221   0.894  0.00  0.00    -0.253 N 
ATOM      8  H   UNL     1      -4.022  -0.179   1.438  0.00  0.00    +0.148 HD
ENDROOT
BRANCH   7   9
ATOM      9  C   UNL     1       0.090   1.231   0.988  0.00  0.00    +0.042 A 
ATOM     10  C   UNL     1       0.396   2.005  -0.124  0.00  0.00    +0.027 A 
ATOM     11  C   UNL     1       1.349   3.000  -0.031  0.00  0.00    +0.051 A 
ATOM     12  C   UNL     1       2.003   3.231   1.171  0.00  0.00    +0.162 A 
ATOM     13  C   UNL     1       1.697   2.459   2.285  0.00  0.00    +0.164 A 
ATOM     14  C   UNL     1       0.737   1.462   2.193  0.00  0.00    +0.073 A 
ATOM     15  O   UNL     1       2.324   2.672   3.474  0.00  0.00    -0.485 OA
ATOM     16  C   UNL     1       3.539   3.429   3.434  0.00  0.00    +0.270 C 
ATOM     17  C   UNL     1       3.308   4.662   2.551  0.00  0.00    +0.270 C 
ATOM     18  O   UNL     1       2.942   4.214   1.241  0.00  0.00    -0.485 OA
ENDBRANCH   7   9
BRANCH   3  19
ATOM     19  C   UNL     1      -3.786  -2.745   1.433  0.00  0.00    +0.009 A 
ATOM     20  C   UNL     1      -4.410  -2.361   2.605  0.00  0.00    +0.011 A 
ATOM     21  C   UNL     1      -5.265  -3.232   3.252  0.00  0.00    +0.039 A 
ATOM     22  C   UNL     1      -5.497  -4.493   2.728  0.00  0.00    +0.126 A 
ATOM     23  C   UNL     1      -4.874  -4.879   1.554  0.00  0.00    +0.077 A 
ATOM     24  C   UNL     1      -4.022  -4.003   0.903  0.00  0.00    +0.131 A 
ATOM     25  F   UNL     1      -3.417  -4.377  -0.245  0.00  0.00    -0.205 F 
ATOM     26  F   UNL     1      -6.333  -5.345   3.361  0.00  0.00    -0.205 F 
ENDBRANCH   3  19
BRANCH   1  28
ATOM     27  C   UNL     1       1.907  -0.478   0.050  0.00  0.00    +0.012 C 
ATOM     28  C   UNL     1       0.966  -1.386   0.845  0.00  0.00    +0.034 C 
ATOM     29  C   UNL     1       1.308  -2.849   0.560  0.00  0.00    +0.012 C 
ENDBRANCH   1  28
BRANCH   2  30
ATOM     30  C   UNL     1      -1.211  -2.166   2.556  0.00  0.00    +0.317 C 
ATOM     31  O   UNL     1      -0.973  -1.136   3.141  0.00  0.00    -0.250 OA
BRANCH  30  32
ATOM     32  O   UNL     1      -1.303  -3.319   3.238  0.00  0.00    -0.468 OA
ATOM     33  C   UNL     1      -1.106  -3.252   4.675  0.00  0.00    +0.280 C 
ENDBRANCH  30  32
ENDBRANCH   2  30
BRANCH   1  34
ATOM     34  O   UNL     1      -0.590  -1.173  -0.993  0.00  0.00    -0.370 OA
ATOM     35  H   UNL     1      -0.033  -0.534  -1.459  0.00  0.00    +0.212 HD
ENDBRANCH   1  34
TORSDOF 6
