REMARK  Name = ZINC39361420
REMARK  6 active torsions:
REMARK  status: ('A' for Active; 'I' for Inactive)
REMARK    1  A    between atoms: C_1  and  C_2
REMARK    2  A    between atoms: C_2  and  C_33
REMARK    3  A    between atoms: C_6  and  C_21
REMARK    4  A    between atoms: C_12  and  S_16
REMARK    5  A    between atoms: S_16  and  C_17
REMARK    6  A    between atoms: C_17  and  C_18
REMARK                            x       y       z     vdW  Elec       q    Type
REMARK                         _______ _______ _______ _____ _____    ______ ____
ROOT
ATOM      1  C   UNL     1      -0.019   1.526   0.010  0.00  0.00    +0.011 C 
ATOM      2  C   UNL     1       0.002  -0.004   0.002  0.00  0.00    -0.023 C 
ATOM      3  C   UNL     1       0.741  -0.503  -1.241  0.00  0.00    +0.058 C 
ATOM      4  C   UNL     1       2.168  -0.008  -1.216  0.00  0.00    +0.017 C 
ATOM      5  C   UNL     1       2.818   0.177  -0.051  0.00  0.00    +0.021 C 
ATOM      6  C   UNL     1       4.254   0.645   0.006  0.00  0.00    +0.073 C 
ATOM      7  C   UNL     1       4.631   1.362  -1.292  0.00  0.00    +0.152 C 
ATOM      8  C   UNL     1       4.108   0.528  -2.438  0.00  0.00    +0.115 C 
ATOM      9  N   UNL     1       4.887   0.079  -3.374  0.00  0.00    -0.213 NA
ATOM     10  C   UNL     1       6.208   0.300  -3.371  0.00  0.00    +0.182 C 
ATOM     11  N   UNL     1       6.802   0.980  -2.400  0.00  0.00    -0.154 NA
ATOM     12  C   UNL     1       6.122   1.510  -1.386  0.00  0.00    +0.250 C 
ATOM     13  O   UNL     1       6.713   2.120  -0.517  0.00  0.00    -0.273 OA
ATOM     14  N   UNL     1       2.769   0.253  -2.428  0.00  0.00    -0.305 N 
ATOM     15  C   UNL     1       2.173  -0.060   1.180  0.00  0.00    +0.162 C 
ATOM     16  O   UNL     1       2.788   0.107   2.215  0.00  0.00    -0.292 OA
ATOM     17  C   UNL     1       0.742  -0.517   1.242  0.00  0.00    +0.086 C 
ATOM     18  C   UNL     1      -1.431  -0.539  -0.001  0.00  0.00    +0.011 C 
ATOM     19  H   UNL     1       2.256   0.242  -3.251  0.00  0.00    +0.153 HD
ENDROOT
BRANCH   6  20
ATOM     20  C   UNL     1       5.159  -0.545   0.195  0.00  0.00    -0.035 A 
ATOM     21  C   UNL     1       5.175  -1.556  -0.749  0.00  0.00    +0.008 A 
ATOM     22  C   UNL     1       6.004  -2.649  -0.580  0.00  0.00    +0.050 A 
ATOM     23  C   UNL     1       6.820  -2.735   0.536  0.00  0.00    +0.166 A 
ATOM     24  C   UNL     1       6.804  -1.718   1.486  0.00  0.00    +0.167 A 
ATOM     25  C   UNL     1       5.975  -0.622   1.308  0.00  0.00    +0.053 A 
ATOM     26  O   UNL     1       7.686  -2.033   2.479  0.00  0.00    -0.453 OA
ATOM     27  C   UNL     1       7.940  -3.443   2.333  0.00  0.00    +0.466 C 
ATOM     28  O   UNL     1       7.713  -3.689   0.933  0.00  0.00    -0.453 OA
ENDBRANCH   6  20
BRANCH  10  29
ATOM     29  S   UNL     1       7.185  -0.334  -4.693  0.00  0.00    -0.084 S 
BRANCH  29  30
ATOM     30  C   UNL     1       8.873   0.191  -4.283  0.00  0.00    +0.103 C 
BRANCH  30  31
ATOM     31  C   UNL     1       9.822  -0.292  -5.348  0.00  0.00    -0.023 C 
ATOM     32  C   UNL     1      10.457   0.572  -6.101  0.00  0.00    +0.005 C 
ENDBRANCH  30  31
ENDBRANCH  29  30
ENDBRANCH  10  29
TORSDOF 4
