REMARK  Name = ZINC38905811
REMARK  13 active torsions:
REMARK  status: ('A' for Active; 'I' for Inactive)
REMARK    1  A    between atoms: C_1  and  C_2
REMARK    2  A    between atoms: C_5  and  N_9
REMARK    3  A    between atoms: C_6  and  C_8
REMARK    4  A    between atoms: N_9  and  C_10
REMARK    5  A    between atoms: C_10  and  C_11
REMARK    6  A    between atoms: C_18  and  C_23
REMARK    7  A    between atoms: C_24  and  C_26
REMARK    8  A    between atoms: C_28  and  O_36
REMARK    9  A    between atoms: C_29  and  O_34
REMARK   10  A    between atoms: C_30  and  O_32
REMARK   11  A    between atoms: O_32  and  C_33
REMARK   12  A    between atoms: O_34  and  C_35
REMARK   13  A    between atoms: O_36  and  C_37
REMARK                            x       y       z     vdW  Elec       q    Type
REMARK                         _______ _______ _______ _____ _____    ______ ____
ROOT
ATOM      1  N   UNL     1      -0.127  -4.674   0.091  0.00  0.00    -0.266 N 
ATOM      2  C   UNL     1      -1.102  -5.593  -0.061  0.00  0.00    +0.251 C 
ATOM      3  O   UNL     1      -0.818  -6.736  -0.364  0.00  0.00    -0.270 OA
ENDROOT
BRANCH   1   8
ATOM      4  C   UNL     1      -1.465   0.738   1.137  0.00  0.00    +0.044 C 
ATOM      5  C   UNL     1      -1.109  -0.700   0.859  0.00  0.00    -0.050 A 
ATOM      6  C   UNL     1      -1.442  -1.683   1.774  0.00  0.00    +0.005 A 
ATOM      7  C   UNL     1      -1.118  -3.001   1.522  0.00  0.00    +0.024 A 
ATOM      8  C   UNL     1      -0.457  -3.340   0.349  0.00  0.00    +0.040 A 
ATOM      9  C   UNL     1      -0.124  -2.351  -0.568  0.00  0.00    -0.029 A 
ATOM     10  C   UNL     1      -0.456  -1.035  -0.312  0.00  0.00    +0.008 A 
ATOM     11  C   UNL     1       0.593  -2.715  -1.842  0.00  0.00    +0.045 C 
ENDBRANCH   1   8
BRANCH   2  12
ATOM     12  C   UNL     1      -2.513  -5.211   0.140  0.00  0.00    +0.044 A 
ATOM     13  C   UNL     1      -2.997  -4.013  -0.393  0.00  0.00    +0.062 A 
ATOM     14  C   UNL     1      -4.319  -3.658  -0.203  0.00  0.00    +0.166 A 
ATOM     15  C   UNL     1      -5.168  -4.492   0.519  0.00  0.00    +0.204 A 
ATOM     16  C   UNL     1      -4.689  -5.686   1.051  0.00  0.00    +0.166 A 
ATOM     17  C   UNL     1      -3.369  -6.049   0.860  0.00  0.00    +0.062 A 
BRANCH  16  18
ATOM     18  O   UNL     1      -5.521  -6.498   1.757  0.00  0.00    -0.491 OA
ATOM     19  C   UNL     1      -4.962  -7.707   2.275  0.00  0.00    +0.277 C 
ENDBRANCH  16  18
BRANCH  15  20
ATOM     20  O   UNL     1      -6.468  -4.140   0.705  0.00  0.00    -0.488 OA
ATOM     21  C   UNL     1      -7.406  -4.578  -0.281  0.00  0.00    +0.277 C 
ENDBRANCH  15  20
BRANCH  14  22
ATOM     22  O   UNL     1      -4.790  -2.493  -0.722  0.00  0.00    -0.491 OA
ATOM     23  C   UNL     1      -3.901  -1.746  -1.554  0.00  0.00    +0.277 C 
ENDBRANCH  14  22
ENDBRANCH   2  12
BRANCH   1  24
ATOM     24  C   UNL     1       1.279  -5.074  -0.014  0.00  0.00    +0.131 C 
BRANCH  24  25
ATOM     25  C   UNL     1       1.741  -5.669   1.317  0.00  0.00    +0.116 C 
ATOM     26  C   UNL     1       2.993  -6.482   1.054  0.00  0.00    -0.003 C 
ATOM     27  C   UNL     1       4.119  -6.136   1.741  0.00  0.00    -0.007 A 
ATOM     28  C   UNL     1       5.371  -6.868   1.547  0.00  0.00    +0.009 A 
ATOM     29  C   UNL     1       6.467  -6.488   2.253  0.00  0.00    +0.001 A 
ATOM     30  C   UNL     1       6.419  -5.421   3.152  0.00  0.00    +0.005 A 
ATOM     31  C   UNL     1       5.288  -4.703   3.377  0.00  0.00    -0.029 A 
ATOM     32  C   UNL     1       4.097  -5.014   2.695  0.00  0.00    +0.043 A 
ATOM     33  N   UNL     1       2.994  -4.301   2.923  0.00  0.00    -0.284 N 
ATOM     34  C   UNL     1       1.843  -4.541   2.319  0.00  0.00    +0.226 C 
ATOM     35  O   UNL     1       0.869  -3.856   2.568  0.00  0.00    -0.275 OA
ATOM     36  C   UNL     1       5.310  -3.563   4.363  0.00  0.00    +0.045 C 
ATOM     37  H   UNL     1       3.038  -3.573   3.562  0.00  0.00    +0.155 HD
ENDBRANCH  24  25
ENDBRANCH   1  24
TORSDOF 7
