REMARK  Name = ZINC45168795
REMARK  10 active torsions:
REMARK  status: ('A' for Active; 'I' for Inactive)
REMARK    1  A    between atoms: C_4  and  C_7
REMARK    2  A    between atoms: C_7  and  C_8
REMARK    3  A    between atoms: N_11  and  C_14
REMARK    4  A    between atoms: C_21  and  C_33
REMARK    5  A    between atoms: N_22  and  C_23
REMARK    6  A    between atoms: C_23  and  C_24
REMARK    7  A    between atoms: C_24  and  N_25
REMARK    8  A    between atoms: N_25  and  C_26
REMARK    9  A    between atoms: C_26  and  C_27
REMARK   10  A    between atoms: C_35  and  C_39
REMARK                            x       y       z     vdW  Elec       q    Type
REMARK                         _______ _______ _______ _____ _____    ______ ____
ROOT
ATOM      1  C   UNL     1       7.519  -0.945   4.120  0.00  0.00    +0.058 A 
ATOM      2  C   UNL     1       7.798  -1.360   5.409  0.00  0.00    +0.025 A 
ATOM      3  C   UNL     1       8.911  -0.873   6.078  0.00  0.00    +0.004 A 
ATOM      4  C   UNL     1       9.755   0.032   5.469  0.00  0.00    +0.028 A 
ATOM      5  C   UNL     1       9.494   0.462   4.175  0.00  0.00    +0.071 A 
ATOM      6  C   UNL     1       8.373  -0.028   3.485  0.00  0.00    +0.111 A 
ATOM      7  N   UNL     1       8.371   0.550   2.259  0.00  0.00    -0.226 NA
ATOM      8  C   UNL     1       9.403   1.348   2.147  0.00  0.00    +0.143 A 
ATOM      9  N   UNL     1      10.126   1.335   3.311  0.00  0.00    -0.325 N 
ENDROOT
BRANCH   1  13
ATOM     10  C   UNL     1       4.548  -1.777   1.337  0.00  0.00    -0.004 C 
ATOM     11  C   UNL     1       4.592  -0.467   2.128  0.00  0.00    +0.023 C 
ATOM     12  C   UNL     1       5.105  -0.747   3.544  0.00  0.00    +0.105 C 
ATOM     13  N   UNL     1       6.397  -1.439   3.450  0.00  0.00    -0.328 N 
ATOM     14  C   UNL     1       6.488  -2.661   2.639  0.00  0.00    +0.105 C 
ATOM     15  C   UNL     1       5.959  -2.360   1.233  0.00  0.00    +0.023 C 
BRANCH  10  16
ATOM     16  C   UNL     1       4.004  -1.506  -0.067  0.00  0.00    +0.038 C 
BRANCH  16  20
ATOM     17  C   UNL     1      -0.057  -0.209   0.203  0.00  0.00    +0.000 A 
ATOM     18  C   UNL     1       0.968   0.718   0.237  0.00  0.00    +0.000 A 
ATOM     19  C   UNL     1       2.282   0.298   0.149  0.00  0.00    +0.003 A 
ATOM     20  C   UNL     1       2.571  -1.049   0.029  0.00  0.00    -0.047 A 
ATOM     21  C   UNL     1       1.546  -1.975  -0.003  0.00  0.00    +0.003 A 
ATOM     22  C   UNL     1       0.232  -1.555   0.083  0.00  0.00    +0.000 A 
ENDBRANCH  16  20
ENDBRANCH  10  16
ENDBRANCH   1  13
BRANCH   8  23
ATOM     23  C   UNL     1       9.733   2.151   0.950  0.00  0.00    +0.037 A 
ATOM     24  C   UNL     1      11.032   2.625   0.749  0.00  0.00    +0.033 A 
ATOM     25  C   UNL     1      11.289   3.379  -0.400  0.00  0.00    +0.070 A 
ATOM     26  C   UNL     1      10.246   3.627  -1.295  0.00  0.00    +0.129 A 
ATOM     27  N   UNL     1       9.035   3.161  -1.067  0.00  0.00    -0.261 NA
ATOM     28  C   UNL     1       8.752   2.442   0.000  0.00  0.00    +0.122 A 
BRANCH  25  29
ATOM     29  C   UNL     1      12.603   3.889  -0.655  0.00  0.00    +0.101 C 
ATOM     30  N   UNL     1      13.645   4.295  -0.857  0.00  0.00    -0.191 NA
ENDBRANCH  25  29
ENDBRANCH   8  23
BRANCH   9  31
ATOM     31  C   UNL     1      11.350   2.094   3.583  0.00  0.00    +0.105 C 
BRANCH  31  32
ATOM     32  C   UNL     1      12.569   1.223   3.274  0.00  0.00    -0.060 C 
BRANCH  32  33
ATOM     33  N   UNL     1      13.796   1.983   3.547  0.00  0.00    +0.383 N 
ATOM     34  H   UNL     1      13.816   2.808   2.966  0.00  0.00    -0.085 HD
ATOM     35  H   UNL     1      13.814   2.255   4.519  0.00  0.00    -0.085 HD
BRANCH  33  36
ATOM     36  C   UNL     1      14.967   1.147   3.250  0.00  0.00    -0.047 C 
BRANCH  36  37
ATOM     37  C   UNL     1      16.225   1.927   3.530  0.00  0.00    -0.064 A 
ATOM     38  C   UNL     1      16.801   2.692   2.532  0.00  0.00    +0.002 A 
ATOM     39  C   UNL     1      17.955   3.407   2.789  0.00  0.00    +0.000 A 
ATOM     40  C   UNL     1      18.534   3.359   4.044  0.00  0.00    +0.000 A 
ATOM     41  C   UNL     1      17.958   2.595   5.042  0.00  0.00    +0.000 A 
ATOM     42  C   UNL     1      16.801   1.883   4.786  0.00  0.00    +0.002 A 
ENDBRANCH  36  37
ENDBRANCH  33  36
ENDBRANCH  32  33
ENDBRANCH  31  32
ENDBRANCH   9  31
TORSDOF 10
