REMARK  Name = ZINC64581213
REMARK  14 active torsions:
REMARK  status: ('A' for Active; 'I' for Inactive)
REMARK    1  A    between atoms: C_1  and  C_2
REMARK    2  A    between atoms: C_2  and  C_3
REMARK    3  A    between atoms: C_3  and  C_5
REMARK    4  A    between atoms: C_3  and  N_6
REMARK    5  A    between atoms: C_7  and  C_9
REMARK    6  A    between atoms: N_18  and  C_21
REMARK    7  A    between atoms: C_21  and  C_22
REMARK    8  A    between atoms: N_24  and  C_25
REMARK    9  A    between atoms: C_28  and  C_32
REMARK   10  A    between atoms: C_30  and  C_31
REMARK   11  A    between atoms: N_33  and  C_36
REMARK   12  A    between atoms: C_36  and  C_37
REMARK   13  A    between atoms: C_37  and  C_38
REMARK   14  A    between atoms: C_37  and  C_39
REMARK                            x       y       z     vdW  Elec       q    Type
REMARK                         _______ _______ _______ _____ _____    ______ ____
ROOT
ATOM      1  C   UNL     1      -4.120   0.369  -2.495  0.00  0.00    +0.039 A 
ATOM      2  C   UNL     1      -3.365   0.612  -3.647  0.00  0.00    +0.014 A 
ATOM      3  C   UNL     1      -3.990   0.964  -4.823  0.00  0.00    +0.016 A 
ATOM      4  C   UNL     1      -5.379   1.078  -4.863  0.00  0.00    +0.064 A 
ATOM      5  C   UNL     1      -6.140   0.836  -3.710  0.00  0.00    +0.067 A 
ATOM      6  C   UNL     1      -5.508   0.476  -2.531  0.00  0.00    +0.040 A 
ATOM      7  N   UNL     1      -7.529   0.955  -3.770  0.00  0.00    -0.229 N 
ATOM      8  C   UNL     1      -8.150   1.308  -4.947  0.00  0.00    +0.240 A 
ATOM      9  N   UNL     1      -9.438   1.350  -4.736  0.00  0.00    -0.129 NA
ATOM     10  N   UNL     1      -9.672   1.019  -3.396  0.00  0.00    -0.202 N 
ATOM     11  C   UNL     1      -8.475   0.781  -2.824  0.00  0.00    +0.353 A 
ATOM     12  O   UNL     1      -8.283   0.464  -1.663  0.00  0.00    -0.244 OA
ATOM     13  N   UNL     1      -7.420   1.553  -6.102  0.00  0.00    -0.276 N 
ATOM     14  C   UNL     1      -6.076   1.454  -6.109  0.00  0.00    +0.263 A 
ATOM     15  O   UNL     1      -5.447   1.672  -7.127  0.00  0.00    -0.267 OA
ENDROOT
BRANCH   1  17
ATOM     16  N   UNL     1      -2.098  -0.113  -1.198  0.00  0.00    -0.309 N 
ATOM     17  C   UNL     1      -3.441  -0.009  -1.235  0.00  0.00    +0.244 C 
ATOM     18  O   UNL     1      -4.095  -0.225  -0.234  0.00  0.00    -0.270 OA
ATOM     19  H   UNL     1      -1.576   0.059  -1.997  0.00  0.00    +0.149 HD
BRANCH  16  20
ATOM     20  C   UNL     1      -1.426  -0.487   0.049  0.00  0.00    +0.070 C 
ATOM     21  C   UNL     1      -1.401  -2.012   0.177  0.00  0.00    +0.028 C 
BRANCH  20  23
ATOM     22  C   UNL     1      -0.018   1.576   0.033  0.00  0.00    +0.005 C 
ATOM     23  C   UNL     1       0.008   0.047   0.036  0.00  0.00    +0.018 C 
ENDBRANCH  20  23
ENDBRANCH  16  20
ENDBRANCH   1  17
BRANCH  10  24
ATOM     24  C   UNL     1     -10.978   0.946  -2.736  0.00  0.00    +0.245 C 
BRANCH  24  25
ATOM     25  C   UNL     1     -11.324   2.292  -2.155  0.00  0.00    +0.239 C 
ATOM     26  O   UNL     1     -10.554   3.222  -2.278  0.00  0.00    -0.273 OA
ATOM     27  N   UNL     1     -12.487   2.464  -1.496  0.00  0.00    -0.284 N 
ATOM     28  H   UNL     1     -13.138   1.745  -1.466  0.00  0.00    +0.155 HD
BRANCH  27  29
ATOM     29  C   UNL     1     -12.757   3.679  -0.857  0.00  0.00    +0.036 A 
ATOM     30  C   UNL     1     -11.712   4.495  -0.443  0.00  0.00    +0.024 A 
ATOM     31  C   UNL     1     -11.981   5.693   0.188  0.00  0.00    +0.005 A 
ATOM     32  C   UNL     1     -13.290   6.081   0.408  0.00  0.00    -0.050 A 
ATOM     33  C   UNL     1     -14.333   5.271  -0.002  0.00  0.00    +0.008 A 
ATOM     34  C   UNL     1     -14.070   4.074  -0.640  0.00  0.00    -0.029 A 
ATOM     35  C   UNL     1     -15.207   3.196  -1.093  0.00  0.00    +0.045 C 
ATOM     36  C   UNL     1     -13.581   7.390   1.097  0.00  0.00    +0.044 C 
ENDBRANCH  27  29
ENDBRANCH  24  25
ENDBRANCH  10  24
BRANCH  13  37
ATOM     37  C   UNL     1      -8.122   1.926  -7.332  0.00  0.00    +0.131 C 
BRANCH  37  38
ATOM     38  C   UNL     1      -8.261   3.448  -7.399  0.00  0.00    +0.003 C 
ATOM     39  C   UNL     1      -6.874   4.082  -7.517  0.00  0.00    +0.009 C 
ATOM     40  C   UNL     1      -9.102   3.830  -8.619  0.00  0.00    +0.009 C 
ENDBRANCH  37  38
ENDBRANCH  13  37
TORSDOF 8
