REMARK  Name = ZINC08789536
REMARK  6 active torsions:
REMARK  status: ('A' for Active; 'I' for Inactive)
REMARK    1  A    between atoms: C_1  and  O_2
REMARK    2  A    between atoms: O_2  and  C_3
REMARK    3  A    between atoms: C_8  and  C_9
REMARK    4  A    between atoms: C_9  and  N_10
REMARK    5  A    between atoms: C_15  and  C_31
REMARK    6  A    between atoms: C_31  and  C_32
REMARK                            x       y       z     vdW  Elec       q    Type
REMARK                         _______ _______ _______ _____ _____    ______ ____
ROOT
ATOM      1  N   UNL     1      -1.613  -2.951  -0.195  0.00  0.00    -0.237 N 
ATOM      2  C   UNL     1      -2.176  -3.861  -0.997  0.00  0.00    +0.224 C 
ATOM      3  O   UNL     1      -1.576  -4.699  -1.635  0.00  0.00    -0.275 OA
ATOM      4  C   UNL     1      -3.678  -3.683  -0.983  0.00  0.00    +0.073 C 
ATOM      5  C   UNL     1      -4.137  -3.150  -2.356  0.00  0.00    -0.053 C 
ATOM      6  C   UNL     1      -4.494  -1.383  -0.868  0.00  0.00    +0.050 C 
ATOM      7  C   UNL     1      -3.888  -2.495  -0.004  0.00  0.00    +0.088 C 
ATOM      8  C   UNL     1      -2.481  -2.135   0.414  0.00  0.00    +0.225 C 
ATOM      9  O   UNL     1      -2.184  -1.243   1.181  0.00  0.00    -0.275 OA
ATOM     10  C   UNL     1      -3.457  -0.380  -1.288  0.00  0.00    -0.028 A 
ATOM     11  C   UNL     1      -2.286  -0.471  -2.007  0.00  0.00    +0.004 A 
ATOM     12  C   UNL     1      -1.525   0.662  -2.237  0.00  0.00    +0.000 A 
ATOM     13  C   UNL     1      -1.944   1.885  -1.746  0.00  0.00    +0.002 A 
ATOM     14  C   UNL     1      -3.117   1.980  -1.026  0.00  0.00    +0.023 A 
ATOM     15  C   UNL     1      -3.889   0.845  -0.789  0.00  0.00    +0.036 A 
ATOM     16  N   UNL     1      -5.094   0.689  -0.101  0.00  0.00    -0.286 N 
ATOM     17  C   UNL     1      -5.518  -0.589  -0.102  0.00  0.00    +0.211 C 
ATOM     18  O   UNL     1      -6.527  -1.018   0.415  0.00  0.00    -0.277 OA
ATOM     19  H   UNL     1      -5.571   1.417   0.327  0.00  0.00    +0.155 HD
ATOM     20  N   UNL     1      -5.068  -2.065  -2.014  0.00  0.00    +0.394 N 
ATOM     21  H   UNL     1      -5.989  -2.450  -1.774  0.00  0.00    -0.083 HD
ATOM     22  H   UNL     1      -5.163  -1.416  -2.803  0.00  0.00    -0.083 HD
ENDROOT
BRANCH   1  23
ATOM     23  C   UNL     1      -0.164  -2.859   0.005  0.00  0.00    +0.155 C 
BRANCH  23  29
ATOM     24  C   UNL     1       0.356  -4.992   1.216  0.00  0.00    +0.125 A 
ATOM     25  C   UNL     1       0.704  -5.683   2.367  0.00  0.00    +0.046 A 
ATOM     26  C   UNL     1       0.923  -4.995   3.545  0.00  0.00    +0.004 A 
ATOM     27  C   UNL     1       0.787  -3.620   3.579  0.00  0.00    +0.001 A 
ATOM     28  C   UNL     1       0.435  -2.929   2.434  0.00  0.00    +0.009 A 
ATOM     29  C   UNL     1       0.220  -3.612   1.252  0.00  0.00    +0.012 A 
BRANCH  24  31
ATOM     30  C   UNL     1       0.187  -7.093   0.116  0.00  0.00    +0.277 C 
ATOM     31  O   UNL     1       0.144  -5.666   0.055  0.00  0.00    -0.495 OA
ENDBRANCH  24  31
ENDBRANCH  23  29
ENDBRANCH   1  23
BRANCH   5  32
ATOM     32  C   UNL     1      -4.850  -4.251  -3.144  0.00  0.00    +0.022 C 
BRANCH  32  33
ATOM     33  C   UNL     1      -5.180  -3.747  -4.525  0.00  0.00    -0.024 A 
ATOM     34  C   UNL     1      -6.345  -3.210  -4.922  0.00  0.00    +0.087 A 
ATOM     35  N   UNL     1      -6.274  -2.867  -6.245  0.00  0.00    -0.360 N 
ATOM     36  H   UNL     1      -6.992  -2.460  -6.754  0.00  0.00    +0.165 HD
ATOM     37  C   UNL     1      -5.033  -3.191  -6.746  0.00  0.00    +0.047 A 
ATOM     38  C   UNL     1      -4.293  -3.756  -5.691  0.00  0.00    +0.003 A 
ATOM     39  C   UNL     1      -2.982  -4.183  -5.910  0.00  0.00    +0.010 A 
ATOM     40  C   UNL     1      -2.424  -4.050  -7.150  0.00  0.00    +0.001 A 
ATOM     41  C   UNL     1      -3.149  -3.493  -8.194  0.00  0.00    +0.002 A 
ATOM     42  C   UNL     1      -4.444  -3.064  -8.000  0.00  0.00    +0.026 A 
ENDBRANCH  32  33
ENDBRANCH   5  32
TORSDOF 5
