REMARK  Name = ZINC27668938
REMARK  12 active torsions:
REMARK  status: ('A' for Active; 'I' for Inactive)
REMARK    1  A    between atoms: C_1  and  C_2
REMARK    2  A    between atoms: C_2  and  N_3
REMARK    3  A    between atoms: N_3  and  S_4
REMARK    4  A    between atoms: S_4  and  C_7
REMARK    5  A    between atoms: C_10  and  C_33
REMARK    6  A    between atoms: C_11  and  C_13
REMARK    7  A    between atoms: N_15  and  C_16
REMARK    8  A    between atoms: C_16  and  C_17
REMARK    9  A    between atoms: C_17  and  C_19
REMARK   10  A    between atoms: C_17  and  N_27
REMARK   11  A    between atoms: C_22  and  O_25
REMARK   12  A    between atoms: O_25  and  C_26
REMARK                            x       y       z     vdW  Elec       q    Type
REMARK                         _______ _______ _______ _____ _____    ______ ____
ROOT
ATOM      1  C   UNL     1      -4.929  -0.635  -1.853  0.00  0.00    +0.244 C 
ATOM      2  O   UNL     1      -4.545  -0.479  -2.995  0.00  0.00    -0.270 OA
ATOM      3  N   UNL     1      -4.276  -0.041  -0.835  0.00  0.00    -0.313 N 
ATOM      4  H   UNL     1      -4.623  -0.182   0.199  0.00  0.00    +0.149 HD
ENDROOT
BRANCH   1   9
ATOM      5  C   UNL     1      -7.582  -2.556  -0.015  0.00  0.00    +0.106 A 
ATOM      6  C   UNL     1      -8.331  -3.055  -1.067  0.00  0.00    +0.029 A 
ATOM      7  C   UNL     1      -7.975  -2.770  -2.373  0.00  0.00    +0.006 A 
ATOM      8  C   UNL     1      -6.875  -1.980  -2.635  0.00  0.00    -0.038 A 
ATOM      9  C   UNL     1      -6.113  -1.478  -1.579  0.00  0.00    +0.041 A 
ATOM     10  C   UNL     1      -6.477  -1.770  -0.264  0.00  0.00    +0.041 A 
ATOM     11  C   UNL     1      -6.492  -1.665  -4.059  0.00  0.00    +0.044 C 
BRANCH   5  12
ATOM     12  S   UNL     1      -8.043  -2.926   1.645  0.00  0.00    +0.058 S 
ATOM     13  O   UNL     1      -8.797  -4.130   1.598  0.00  0.00    -0.153 OA
ATOM     14  O   UNL     1      -6.868  -2.793   2.432  0.00  0.00    -0.153 OA
BRANCH  12  15
ATOM     15  N   UNL     1      -9.083  -1.736   2.141  0.00  0.00    -0.190 NA
ATOM     16  H   UNL     1      -8.723  -0.963   2.835  0.00  0.00    +0.148 HD
BRANCH  15  18
ATOM     17  C   UNL     1     -11.287  -0.698   2.357  0.00  0.00    +0.022 C 
ATOM     18  C   UNL     1     -10.391  -1.591   1.496  0.00  0.00    +0.102 C 
ENDBRANCH  15  18
ENDBRANCH  12  15
ENDBRANCH   5  12
ENDBRANCH   1   9
BRANCH   3  19
ATOM     19  C   UNL     1      -3.103   0.794  -1.106  0.00  0.00    +0.094 C 
BRANCH  19  20
ATOM     20  C   UNL     1      -2.554   1.345   0.212  0.00  0.00    -0.020 C 
BRANCH  20  21
ATOM     21  N   UNL     1      -3.623   2.052   0.930  0.00  0.00    +0.385 N 
ATOM     22  C   UNL     1      -3.955   3.319   0.266  0.00  0.00    -0.078 C 
ATOM     23  C   UNL     1      -5.165   3.955   0.954  0.00  0.00    -0.019 C 
ATOM     24  C   UNL     1      -4.836   4.202   2.428  0.00  0.00    -0.004 C 
ATOM     25  C   UNL     1      -4.446   2.875   3.085  0.00  0.00    -0.019 C 
ATOM     26  C   UNL     1      -3.257   2.270   2.336  0.00  0.00    -0.078 C 
ATOM     27  H   UNL     1      -4.521   1.418   0.912  0.00  0.00    -0.081 HD
ENDBRANCH  20  21
BRANCH  20  28
ATOM     28  C   UNL     1      -1.425   2.301  -0.075  0.00  0.00    -0.059 A 
ATOM     29  C   UNL     1      -1.548   3.230  -1.092  0.00  0.00    +0.005 A 
ATOM     30  C   UNL     1      -0.517   4.111  -1.353  0.00  0.00    +0.046 A 
ATOM     31  C   UNL     1       0.646   4.060  -0.598  0.00  0.00    +0.120 A 
ATOM     32  C   UNL     1       0.770   3.123   0.418  0.00  0.00    +0.046 A 
ATOM     33  C   UNL     1      -0.264   2.244   0.675  0.00  0.00    +0.005 A 
BRANCH  31  34
ATOM     34  O   UNL     1       1.662   4.926  -0.852  0.00  0.00    -0.495 OA
ATOM     35  C   UNL     1       2.829   4.815  -0.035  0.00  0.00    +0.277 C 
ENDBRANCH  31  34
ENDBRANCH  20  28
ENDBRANCH  19  20
ENDBRANCH   3  19
TORSDOF 9
