REMARK  Name = ZINC08964080
REMARK  7 active torsions:
REMARK  status: ('A' for Active; 'I' for Inactive)
REMARK    1  A    between atoms: C_1  and  N_2
REMARK    2  A    between atoms: C_9  and  C_11
REMARK    3  A    between atoms: C_11  and  C_13
REMARK    4  A    between atoms: C_11  and  N_63
REMARK    5  A    between atoms: C_13  and  N_14
REMARK    6  A    between atoms: C_15  and  C_17
REMARK    7  A    between atoms: N_19  and  C_20
REMARK                            x       y       z     vdW  Elec       q    Type
REMARK                         _______ _______ _______ _____ _____    ______ ____
ROOT
ATOM      1  C   UNL     1       5.631  -4.831   0.021  0.00  0.00    +0.094 C 
ENDROOT
BRANCH   1   2
ATOM      2  N   UNL     1       4.275  -4.748  -0.526  0.00  0.00    -0.309 N 
ATOM      3  C   UNL     1       3.703  -3.545  -0.728  0.00  0.00    +0.299 C 
ATOM      4  O   UNL     1       4.311  -2.530  -0.457  0.00  0.00    -0.265 OA
ATOM      5  H   UNL     1       3.788  -5.559  -0.743  0.00  0.00    +0.149 HD
BRANCH   3   6
ATOM      6  C   UNL     1       2.320  -3.459  -1.286  0.00  0.00    +0.303 C 
ATOM      7  O   UNL     1       1.711  -4.474  -1.558  0.00  0.00    -0.265 OA
ATOM      8  N   UNL     1       1.748  -2.256  -1.489  0.00  0.00    -0.278 N 
ATOM      9  H   UNL     1       2.257  -1.445  -1.334  0.00  0.00    +0.155 HD
BRANCH   8  10
ATOM     10  C   UNL     1       0.420  -2.177  -1.922  0.00  0.00    +0.038 A 
ATOM     11  C   UNL     1      -0.401  -1.154  -1.463  0.00  0.00    +0.027 A 
ATOM     12  C   UNL     1      -1.712  -1.077  -1.890  0.00  0.00    +0.051 A 
ATOM     13  C   UNL     1      -2.213  -2.018  -2.777  0.00  0.00    +0.162 A 
ATOM     14  C   UNL     1      -1.393  -3.041  -3.240  0.00  0.00    +0.164 A 
ATOM     15  C   UNL     1      -0.078  -3.120  -2.811  0.00  0.00    +0.072 A 
ATOM     16  O   UNL     1      -1.865  -3.968  -4.117  0.00  0.00    -0.485 OA
ATOM     17  C   UNL     1      -3.288  -4.077  -4.236  0.00  0.00    +0.270 C 
ATOM     18  C   UNL     1      -3.870  -2.662  -4.357  0.00  0.00    +0.270 C 
ATOM     19  O   UNL     1      -3.511  -1.929  -3.180  0.00  0.00    -0.485 OA
ENDBRANCH   8  10
ENDBRANCH   3   6
ENDBRANCH   1   2
BRANCH   1  20
ATOM     20  C   UNL     1       5.981  -6.295   0.295  0.00  0.00    -0.020 C 
BRANCH  20  29
ATOM     21  C   UNL     1      11.690  -7.229   3.180  0.00  0.00    +0.129 C 
ATOM     22  N   UNL     1      11.424  -6.723   1.827  0.00  0.00    -0.332 N 
ATOM     23  C   UNL     1      11.936  -7.658   0.802  0.00  0.00    +0.109 C 
ATOM     24  C   UNL     1      10.949  -7.450  -0.370  0.00  0.00    +0.056 C 
ATOM     25  C   UNL     1       9.696  -6.962   0.329  0.00  0.00    -0.025 A 
ATOM     26  C   UNL     1      10.049  -6.561   1.613  0.00  0.00    +0.033 A 
ATOM     27  C   UNL     1       9.061  -6.077   2.468  0.00  0.00    +0.023 A 
ATOM     28  C   UNL     1       7.753  -5.989   2.038  0.00  0.00    +0.004 A 
ATOM     29  C   UNL     1       7.412  -6.391   0.760  0.00  0.00    -0.059 A 
ATOM     30  C   UNL     1       8.386  -6.876  -0.094  0.00  0.00    +0.007 A 
ENDBRANCH  20  29
BRANCH  20  35
ATOM     31  C   UNL     1       3.683  -6.858   0.869  0.00  0.00    -0.078 C 
ATOM     32  C   UNL     1       3.017  -7.884   1.819  0.00  0.00    -0.020 C 
ATOM     33  C   UNL     1       4.123  -8.947   2.011  0.00  0.00    -0.020 C 
ATOM     34  C   UNL     1       5.439  -8.223   1.671  0.00  0.00    -0.078 C 
ATOM     35  N   UNL     1       5.074  -6.843   1.348  0.00  0.00    +0.385 N 
ATOM     36  H   UNL     1       5.144  -6.260   2.190  0.00  0.00    -0.081 HD
ENDBRANCH  20  35
ENDBRANCH   1  20
TORSDOF 6
