REMARK  Name = ZINC66197475
REMARK  8 active torsions:
REMARK  status: ('A' for Active; 'I' for Inactive)
REMARK    1  A    between atoms: C_1  and  N_2
REMARK    2  A    between atoms: C_3  and  C_5
REMARK    3  A    between atoms: C_5  and  C_6
REMARK    4  A    between atoms: C_6  and  C_7
REMARK    5  A    between atoms: C_10  and  N_13
REMARK    6  A    between atoms: N_13  and  C_14
REMARK    7  A    between atoms: C_14  and  N_16
REMARK    8  A    between atoms: C_17  and  C_19
REMARK                            x       y       z     vdW  Elec       q    Type
REMARK                         _______ _______ _______ _____ _____    ______ ____
ROOT
ATOM      1  N   UNL     1       1.398  -8.337  -2.316  0.00  0.00    -0.297 N 
ATOM      2  H   UNL     1       2.171  -8.813  -1.974  0.00  0.00    +0.154 HD
ENDROOT
BRANCH   1   6
ATOM      3  C   UNL     1       1.328  -4.172  -2.261  0.00  0.00    -0.047 A 
ATOM      4  C   UNL     1       0.196  -4.886  -1.911  0.00  0.00    +0.005 A 
ATOM      5  C   UNL     1       0.216  -6.267  -1.928  0.00  0.00    +0.023 A 
ATOM      6  C   UNL     1       1.374  -6.938  -2.297  0.00  0.00    +0.033 A 
ATOM      7  C   UNL     1       2.509  -6.219  -2.648  0.00  0.00    +0.023 A 
ATOM      8  C   UNL     1       2.481  -4.838  -2.634  0.00  0.00    +0.005 A 
BRANCH   3   9
ATOM      9  C   UNL     1       1.302  -2.666  -2.241  0.00  0.00    +0.044 C 
BRANCH   9  10
ATOM     10  C   UNL     1       0.855  -2.145  -3.609  0.00  0.00    +0.100 C 
BRANCH  10  13
ATOM     11  C   UNL     1       0.438   1.508  -4.674  0.00  0.00    +0.128 C 
ATOM     12  N   UNL     1       0.463   0.043  -4.693  0.00  0.00    -0.318 N 
ATOM     13  C   UNL     1       0.829  -0.639  -3.590  0.00  0.00    +0.213 C 
ATOM     14  O   UNL     1       1.139  -0.040  -2.581  0.00  0.00    -0.276 OA
ATOM     15  H   UNL     1       0.216  -0.435  -5.499  0.00  0.00    +0.148 HD
ENDBRANCH  10  13
ENDBRANCH   9  10
ENDBRANCH   3   9
ENDBRANCH   1   6
BRANCH   1  16
ATOM     16  C   UNL     1       0.347  -9.022  -2.807  0.00  0.00    +0.141 C 
ATOM     17  S   UNL     1      -0.955  -8.185  -3.538  0.00  0.00    -0.018 S 
BRANCH  16  18
ATOM     18  N   UNL     1       0.321 -10.367  -2.723  0.00  0.00    -0.267 N 
ATOM     19  C   UNL     1      -0.730 -11.053  -3.215  0.00  0.00    +0.222 C 
ATOM     20  O   UNL     1      -1.652 -10.460  -3.733  0.00  0.00    -0.275 OA
ATOM     21  H   UNL     1       1.058 -10.842  -2.309  0.00  0.00    +0.157 HD
BRANCH  19  22
ATOM     22  C   UNL     1      -0.760 -12.556  -3.121  0.00  0.00    +0.075 C 
ATOM     23  C   UNL     1       0.443 -13.138  -3.867  0.00  0.00    +0.013 C 
ATOM     24  C   UNL     1       0.413 -14.665  -3.772  0.00  0.00    +0.001 C 
ATOM     25  C   UNL     1      -0.880 -15.190  -4.399  0.00  0.00    +0.000 C 
ATOM     26  C   UNL     1      -2.082 -14.608  -3.653  0.00  0.00    +0.001 C 
ATOM     27  C   UNL     1      -2.053 -13.082  -3.748  0.00  0.00    +0.013 C 
ENDBRANCH  19  22
ENDBRANCH  16  18
ENDBRANCH   1  16
TORSDOF 7
