REMARK  Name = ZINC35450703
REMARK  13 active torsions:
REMARK  status: ('A' for Active; 'I' for Inactive)
REMARK    1  A    between atoms: C_1  and  C_2
REMARK    2  A    between atoms: C_2  and  O_3
REMARK    3  A    between atoms: O_3  and  C_4
REMARK    4  A    between atoms: C_6  and  C_11
REMARK    5  A    between atoms: C_9  and  O_10
REMARK    6  A    between atoms: C_16  and  S_20
REMARK    7  A    between atoms: S_20  and  C_21
REMARK    8  A    between atoms: C_21  and  C_22
REMARK    9  A    between atoms: C_22  and  C_23
REMARK   10  A    between atoms: C_23  and  C_24
REMARK   11  A    between atoms: C_23  and  C_25
REMARK   12  A    between atoms: C_32  and  C_34
REMARK   13  A    between atoms: C_32  and  C_35
REMARK                            x       y       z     vdW  Elec       q    Type
REMARK                         _______ _______ _______ _____ _____    ______ ____
ROOT
ATOM      1  C   UNL     1      -0.229  -4.969   0.477  0.00  0.00    +0.093 C 
ATOM      2  C   UNL     1      -1.278  -5.824  -0.168  0.00  0.00    +0.069 A 
ATOM      3  C   UNL     1      -1.012  -7.140  -0.502  0.00  0.00    +0.135 A 
ATOM      4  N   UNL     1      -1.960  -7.884  -1.083  0.00  0.00    -0.208 NA
ATOM      5  C   UNL     1      -3.152  -7.386  -1.341  0.00  0.00    +0.171 A 
ATOM      6  N   UNL     1      -3.465  -6.097  -1.028  0.00  0.00    -0.302 N 
ATOM      7  C   UNL     1      -2.546  -5.300  -0.444  0.00  0.00    +0.258 A 
ATOM      8  O   UNL     1      -2.817  -4.144  -0.161  0.00  0.00    -0.267 OA
ATOM      9  N   UNL     1       0.230  -7.678  -0.230  0.00  0.00    -0.302 N 
ATOM     10  C   UNL     1       1.058  -7.091   0.688  0.00  0.00    +0.017 C 
ATOM     11  C   UNL     1       0.878  -5.808   1.063  0.00  0.00    +0.024 C 
ATOM     12  C   UNL     1       1.721  -5.210   2.017  0.00  0.00    +0.162 C 
ATOM     13  O   UNL     1       1.538  -4.050   2.329  0.00  0.00    -0.292 OA
ATOM     14  C   UNL     1       2.844  -5.978   2.658  0.00  0.00    +0.086 C 
ATOM     15  C   UNL     1       2.477  -7.465   2.690  0.00  0.00    -0.023 C 
ATOM     16  C   UNL     1       2.182  -7.919   1.263  0.00  0.00    +0.058 C 
ATOM     17  C   UNL     1       1.238  -7.671   3.564  0.00  0.00    +0.011 C 
ATOM     18  C   UNL     1       3.647  -8.272   3.256  0.00  0.00    +0.011 C 
ATOM     19  H   UNL     1       0.519  -8.480  -0.693  0.00  0.00    +0.153 HD
ATOM     20  H   UNL     1      -4.350  -5.752  -1.226  0.00  0.00    +0.171 HD
ENDROOT
BRANCH   1  23
ATOM     21  C   UNL     1       0.777  -1.811  -1.336  0.00  0.00    +0.162 A 
ATOM     22  C   UNL     1       0.243  -2.669  -0.388  0.00  0.00    +0.054 A 
ATOM     23  C   UNL     1       0.352  -4.037  -0.555  0.00  0.00    -0.032 A 
ATOM     24  C   UNL     1       0.992  -4.552  -1.667  0.00  0.00    +0.008 A 
ATOM     25  C   UNL     1       1.526  -3.702  -2.616  0.00  0.00    +0.049 A 
ATOM     26  C   UNL     1       1.416  -2.330  -2.458  0.00  0.00    +0.158 A 
BRANCH  26  27
ATOM     27  O   UNL     1       1.936  -1.492  -3.394  0.00  0.00    -0.503 OA
ATOM     28  H   UNL     1       2.856  -1.241  -3.231  0.00  0.00    +0.292 HD
ENDBRANCH  26  27
BRANCH  21  29
ATOM     29  O   UNL     1       0.671  -0.465  -1.174  0.00  0.00    -0.489 OA
BRANCH  29  31
ATOM     30  C   UNL     1      -0.019   1.526   0.010  0.00  0.00    +0.048 C 
ATOM     31  C   UNL     1       0.002  -0.004   0.002  0.00  0.00    +0.226 C 
ENDBRANCH  29  31
ENDBRANCH  21  29
ENDBRANCH   1  23
BRANCH   5  32
ATOM     32  S   UNL     1      -4.366  -8.406  -2.109  0.00  0.00    -0.088 S 
BRANCH  32  33
ATOM     33  C   UNL     1      -3.524  -9.997  -2.334  0.00  0.00    +0.077 C 
BRANCH  33  34
ATOM     34  C   UNL     1      -4.478 -10.990  -3.000  0.00  0.00    +0.014 C 
BRANCH  34  35
ATOM     35  C   UNL     1      -3.767 -12.331  -3.190  0.00  0.00    -0.016 C 
ATOM     36  C   UNL     1      -4.757 -13.360  -3.741  0.00  0.00    +0.007 C 
ATOM     37  C   UNL     1      -2.609 -12.160  -4.175  0.00  0.00    +0.007 C 
ENDBRANCH  34  35
ENDBRANCH  33  34
ENDBRANCH  32  33
ENDBRANCH   5  32
TORSDOF 8
