REMARK  Name = ZINC59506255
REMARK  7 active torsions:
REMARK  status: ('A' for Active; 'I' for Inactive)
REMARK    1  A    between atoms: C_4  and  C_7
REMARK    2  A    between atoms: C_10  and  C_13
REMARK    3  A    between atoms: C_21  and  N_22
REMARK    4  A    between atoms: N_22  and  C_23
REMARK    5  A    between atoms: C_23  and  C_24
REMARK    6  A    between atoms: C_24  and  C_26
REMARK    7  A    between atoms: C_29  and  C_32
REMARK                            x       y       z     vdW  Elec       q    Type
REMARK                         _______ _______ _______ _____ _____    ______ ____
ROOT
ATOM      1  C   UNL     1       7.416  -2.757  -0.087  0.00  0.00    +0.065 A 
ATOM      2  C   UNL     1       7.576  -4.109  -0.107  0.00  0.00    +0.120 A 
ATOM      3  N   UNL     1       8.924  -4.354  -0.119  0.00  0.00    -0.289 N 
ATOM      4  C   UNL     1       9.558  -3.138  -0.106  0.00  0.00    +0.117 A 
ATOM      5  N   UNL     1       8.634  -2.188  -0.092  0.00  0.00    -0.339 N 
ATOM      6  C   UNL     1      10.966  -3.085  -0.114  0.00  0.00    +0.045 A 
ATOM      7  C   UNL     1      11.681  -4.245  -0.135  0.00  0.00    +0.007 A 
ATOM      8  C   UNL     1      11.011  -5.474  -0.147  0.00  0.00    +0.042 A 
ATOM      9  C   UNL     1       9.651  -5.513  -0.140  0.00  0.00    +0.105 A 
ATOM     10  H   UNL     1       8.808  -1.234  -0.085  0.00  0.00    +0.167 HD
ENDROOT
BRANCH   1  14
ATOM     11  C   UNL     1       3.698  -0.688  -0.037  0.00  0.00    -0.018 A 
ATOM     12  C   UNL     1       4.895   0.028  -0.040  0.00  0.00    +0.009 A 
ATOM     13  C   UNL     1       6.098  -0.642  -0.056  0.00  0.00    +0.010 A 
ATOM     14  C   UNL     1       6.120  -2.036  -0.069  0.00  0.00    -0.000 A 
ATOM     15  C   UNL     1       4.924  -2.752  -0.067  0.00  0.00    +0.010 A 
ATOM     16  C   UNL     1       3.720  -2.083  -0.045  0.00  0.00    +0.009 A 
BRANCH  11  20
ATOM     17  C   UNL     1      -0.017   1.379   0.010  0.00  0.00    +0.000 A 
ATOM     18  C   UNL     1       1.169   2.092   0.002  0.00  0.00    +0.001 A 
ATOM     19  C   UNL     1       2.377   1.427  -0.013  0.00  0.00    +0.008 A 
ATOM     20  C   UNL     1       2.402   0.033  -0.021  0.00  0.00    -0.018 A 
ATOM     21  C   UNL     1       1.205  -0.680  -0.013  0.00  0.00    +0.008 A 
ATOM     22  C   UNL     1       0.002  -0.004   0.002  0.00  0.00    +0.001 A 
ENDBRANCH  11  20
ENDBRANCH   1  14
BRANCH   9  23
ATOM     23  N   UNL     1       8.999  -6.732  -0.152  0.00  0.00    -0.323 N 
ATOM     24  H   UNL     1       8.029  -6.764  -0.146  0.00  0.00    +0.148 HD
BRANCH  23  25
ATOM     25  C   UNL     1       9.772  -7.976  -0.175  0.00  0.00    +0.182 C 
BRANCH  25  26
ATOM     26  C   UNL     1       8.831  -9.153  -0.185  0.00  0.00    +0.180 C 
ATOM     27  O   UNL     1       7.632  -8.971  -0.173  0.00  0.00    -0.290 OA
BRANCH  26  28
ATOM     28  C   UNL     1       9.366 -10.522  -0.207  0.00  0.00    +0.019 A 
ATOM     29  C   UNL     1      10.749 -10.734  -0.215  0.00  0.00    +0.012 A 
ATOM     30  C   UNL     1      11.246 -12.012  -0.236  0.00  0.00    +0.009 A 
ATOM     31  C   UNL     1      10.373 -13.101  -0.251  0.00  0.00    -0.018 A 
ATOM     32  C   UNL     1       8.993 -12.892  -0.244  0.00  0.00    +0.009 A 
ATOM     33  C   UNL     1       8.492 -11.616  -0.216  0.00  0.00    +0.012 A 
BRANCH  31  34
ATOM     34  C   UNL     1      10.913 -14.481  -0.275  0.00  0.00    -0.018 A 
ATOM     35  C   UNL     1      12.291 -14.694  -0.276  0.00  0.00    +0.008 A 
ATOM     36  C   UNL     1      12.787 -15.982  -0.298  0.00  0.00    +0.001 A 
ATOM     37  C   UNL     1      11.920 -17.060  -0.319  0.00  0.00    +0.000 A 
ATOM     38  C   UNL     1      10.552 -16.855  -0.318  0.00  0.00    +0.001 A 
ATOM     39  C   UNL     1      10.044 -15.572  -0.290  0.00  0.00    +0.008 A 
ENDBRANCH  31  34
ENDBRANCH  26  28
ENDBRANCH  25  26
ENDBRANCH  23  25
ENDBRANCH   9  23
TORSDOF 7
