REMARK  Name = ZINC05556509
REMARK  7 active torsions:
REMARK  status: ('A' for Active; 'I' for Inactive)
REMARK    1  A    between atoms: C_1  and  C_2
REMARK    2  A    between atoms: C_5  and  C_8
REMARK    3  A    between atoms: N_11  and  N_12
REMARK    4  A    between atoms: C_15  and  C_22
REMARK    5  A    between atoms: C_16  and  C_18
REMARK    6  A    between atoms: C_18  and  O_20
REMARK    7  A    between atoms: O_20  and  C_21
REMARK                            x       y       z     vdW  Elec       q    Type
REMARK                         _______ _______ _______ _____ _____    ______ ____
ROOT
ATOM      1  C   UNL     1       2.397   1.395   0.248  0.00  0.00    +0.138 A 
ATOM      2  C   UNL     1       1.300   2.146   0.001  0.00  0.00    +0.076 A 
ATOM      3  C   UNL     1      -0.018   1.481   0.010  0.00  0.00    +0.096 A 
ATOM      4  N   UNL     1      -1.141   2.162   0.019  0.00  0.00    -0.180 NA
ATOM      5  C   UNL     1       0.002  -0.004   0.002  0.00  0.00    +0.044 A 
ATOM      6  C   UNL     1      -1.146  -0.742  -0.250  0.00  0.00    +0.014 A 
ATOM      7  C   UNL     1      -1.081  -2.123  -0.254  0.00  0.00    +0.001 A 
ATOM      8  C   UNL     1       0.121  -2.762  -0.006  0.00  0.00    +0.004 A 
ATOM      9  C   UNL     1       1.268  -2.034   0.248  0.00  0.00    +0.047 A 
ATOM     10  C   UNL     1       1.221  -0.647   0.257  0.00  0.00    +0.138 A 
ATOM     11  O   UNL     1       2.332   0.077   0.515  0.00  0.00    -0.455 OA
ENDROOT
BRANCH   4  12
ATOM     12  N   UNL     1      -1.111   3.562   0.027  0.00  0.00    -0.215 N 
ATOM     13  C   UNL     1      -2.287   4.275   0.036  0.00  0.00    +0.179 A 
ATOM     14  N   UNL     1      -2.460   5.590   0.044  0.00  0.00    -0.228 NA
ATOM     15  C   UNL     1      -3.652   6.122   0.053  0.00  0.00    +0.062 A 
ATOM     16  C   UNL     1      -4.745   5.263   0.053  0.00  0.00    +0.120 A 
ATOM     17  S   UNL     1      -3.918   3.679   0.033  0.00  0.00    -0.044 S 
ATOM     18  C   UNL     1      -3.837   7.618   0.061  0.00  0.00    +0.067 C 
ATOM     19  H   UNL     1      -0.261   4.029   0.025  0.00  0.00    +0.176 HD
BRANCH  16  20
ATOM     20  C   UNL     1      -6.130   5.561   0.062  0.00  0.00    +0.347 C 
ATOM     21  O   UNL     1      -6.503   6.719   0.070  0.00  0.00    -0.244 OA
BRANCH  20  22
ATOM     22  O   UNL     1      -7.035   4.560   0.061  0.00  0.00    -0.464 OA
ATOM     23  C   UNL     1      -8.415   4.933   0.069  0.00  0.00    +0.280 C 
ENDBRANCH  20  22
ENDBRANCH  16  20
ENDBRANCH   4  12
BRANCH   1  28
ATOM     24  C   UNL     1       7.556   3.938   0.156  0.00  0.00    +0.044 C 
ATOM     25  C   UNL     1       6.204   3.272   0.180  0.00  0.00    -0.050 A 
ATOM     26  C   UNL     1       6.109   1.918   0.451  0.00  0.00    +0.004 A 
ATOM     27  C   UNL     1       4.875   1.302   0.475  0.00  0.00    +0.012 A 
ATOM     28  C   UNL     1       3.721   2.047   0.224  0.00  0.00    +0.017 A 
ATOM     29  C   UNL     1       3.825   3.412  -0.055  0.00  0.00    +0.012 A 
ATOM     30  C   UNL     1       5.065   4.016  -0.070  0.00  0.00    +0.004 A 
ENDBRANCH   1  28
TORSDOF 4
