REMARK  Name = ZINC39421635
REMARK  6 active torsions:
REMARK  status: ('A' for Active; 'I' for Inactive)
REMARK    1  A    between atoms: C_1  and  O_2
REMARK    2  A    between atoms: O_2  and  C_3
REMARK    3  A    between atoms: C_3  and  C_5
REMARK    4  A    between atoms: C_12  and  C_17
REMARK    5  A    between atoms: C_17  and  S_18
REMARK    6  A    between atoms: S_18  and  C_19
REMARK                            x       y       z     vdW  Elec       q    Type
REMARK                         _______ _______ _______ _____ _____    ______ ____
ROOT
ATOM      1  C   UNL     1       0.658  -2.078  -1.122  0.00  0.00    +0.061 A 
ATOM      2  C   UNL     1       0.085  -2.849  -0.103  0.00  0.00    +0.016 A 
ATOM      3  C   UNL     1       0.129  -4.214  -0.156  0.00  0.00    +0.016 A 
ATOM      4  C   UNL     1       0.749  -4.846  -1.232  0.00  0.00    +0.065 A 
ATOM      5  C   UNL     1       1.333  -4.083  -2.267  0.00  0.00    +0.079 A 
ATOM      6  C   UNL     1       1.277  -2.690  -2.206  0.00  0.00    +0.043 A 
ATOM      7  N   UNL     1       1.931  -4.726  -3.302  0.00  0.00    -0.233 NA
ATOM      8  C   UNL     1       1.979  -6.021  -3.363  0.00  0.00    +0.120 A 
ATOM      9  N   UNL     1       1.446  -6.835  -2.414  0.00  0.00    -0.310 N 
ATOM     10  H   UNL     1       1.513  -7.797  -2.513  0.00  0.00    +0.170 HD
ATOM     11  C   UNL     1       0.822  -6.314  -1.332  0.00  0.00    +0.259 A 
ATOM     12  O   UNL     1       0.340  -7.031  -0.475  0.00  0.00    -0.267 OA
ENDROOT
BRANCH   1  13
ATOM     13  C   UNL     1       0.600  -0.602  -1.046  0.00  0.00    +0.339 C 
ATOM     14  O   UNL     1       1.092   0.071  -1.929  0.00  0.00    -0.245 OA
BRANCH  13  16
ATOM     15  C   UNL     1      -0.017   1.425   0.010  0.00  0.00    +0.280 C 
ATOM     16  O   UNL     1       0.002  -0.004   0.002  0.00  0.00    -0.464 OA
ENDBRANCH  13  16
ENDBRANCH   1  13
BRANCH   8  17
ATOM     17  C   UNL     1       2.662  -6.656  -4.547  0.00  0.00    +0.146 C 
BRANCH  17  18
ATOM     18  S   UNL     1       3.281  -5.360  -5.655  0.00  0.00    -0.114 S 
BRANCH  18  19
ATOM     19  C   UNL     1       4.064  -6.278  -7.010  0.00  0.00    +0.218 C 
ATOM     20  N   UNL     1       3.084  -7.192  -7.642  0.00  0.00    -0.225 NA
ATOM     21  N   UNL     1       3.653  -8.546  -7.549  0.00  0.00    -0.225 NA
ATOM     22  C   UNL     1       5.105  -8.292  -7.435  0.00  0.00    +0.222 C 
ATOM     23  N   UNL     1       5.143  -7.145  -6.484  0.00  0.00    -0.278 N 
ATOM     24  C   UNL     1       6.062  -7.259  -5.440  0.00  0.00    +0.047 A 
ATOM     25  C   UNL     1       6.539  -6.204  -4.644  0.00  0.00    +0.024 A 
ATOM     26  C   UNL     1       7.396  -6.438  -3.593  0.00  0.00    +0.002 A 
ATOM     27  C   UNL     1       7.816  -7.718  -3.285  0.00  0.00    +0.001 A 
ATOM     28  C   UNL     1       7.387  -8.774  -4.073  0.00  0.00    +0.016 A 
ATOM     29  C   UNL     1       6.555  -8.534  -5.142  0.00  0.00    +0.032 A 
ATOM     30  S   UNL     1       5.931  -9.602  -6.461  0.00  0.00    -0.084 S 
ATOM     31  H   UNL     1       2.190  -7.143  -7.176  0.00  0.00    +0.143 HD
ATOM     32  H   UNL     1       3.445  -9.084  -8.377  0.00  0.00    +0.143 HD
ENDBRANCH  18  19
ENDBRANCH  17  18
ENDBRANCH   8  17
TORSDOF 5
