REMARK  Name = ZINC09952653
REMARK  10 active torsions:
REMARK  status: ('A' for Active; 'I' for Inactive)
REMARK    1  A    between atoms: C_1  and  C_2
REMARK    2  A    between atoms: C_2  and  C_3
REMARK    3  A    between atoms: C_3  and  C_4
REMARK    4  A    between atoms: C_4  and  N_5
REMARK    5  A    between atoms: C_6  and  N_34
REMARK    6  A    between atoms: C_7  and  N_14
REMARK    7  A    between atoms: N_14  and  C_15
REMARK    8  A    between atoms: C_20  and  C_22
REMARK    9  A    between atoms: C_22  and  N_23
REMARK   10  A    between atoms: C_31  and  C_33
REMARK                            x       y       z     vdW  Elec       q    Type
REMARK                         _______ _______ _______ _____ _____    ______ ____
ROOT
ATOM      1  N   UNL     1       2.628   1.326  -0.210  0.00  0.00    -0.260 N 
ATOM      2  C   UNL     1       3.721   2.117  -0.208  0.00  0.00    +0.238 C 
ATOM      3  O   UNL     1       4.826   1.626  -0.309  0.00  0.00    -0.274 OA
ENDROOT
BRANCH   1   6
ATOM      4  N   UNL     1      -0.377   3.211  -1.169  0.00  0.00    -0.280 N 
ATOM      5  C   UNL     1       0.884   2.663  -1.232  0.00  0.00    +0.127 A 
ATOM      6  C   UNL     1       1.340   1.901  -0.176  0.00  0.00    +0.140 A 
ATOM      7  C   UNL     1       0.499   1.706   0.936  0.00  0.00    +0.277 A 
ATOM      8  O   UNL     1       0.877   1.037   1.882  0.00  0.00    -0.266 OA
ATOM      9  N   UNL     1      -0.729   2.261   0.945  0.00  0.00    -0.273 N 
ATOM     10  H   UNL     1      -1.330   2.117   1.731  0.00  0.00    +0.173 HD
ATOM     11  C   UNL     1      -1.155   3.005  -0.091  0.00  0.00    +0.331 A 
ATOM     12  O   UNL     1      -2.266   3.498  -0.055  0.00  0.00    -0.246 OA
BRANCH   5  13
ATOM     13  N   UNL     1       1.679   2.873  -2.333  0.00  0.00    -0.343 N 
ATOM     14  H   UNL     1       2.532   2.419  -2.408  0.00  0.00    +0.144 HD
ATOM     15  H   UNL     1       1.386   3.475  -3.035  0.00  0.00    +0.144 HD
ENDBRANCH   5  13
BRANCH   4  16
ATOM     16  C   UNL     1      -0.874   4.022  -2.282  0.00  0.00    +0.128 C 
BRANCH  16  17
ATOM     17  C   UNL     1      -1.592   3.122  -3.289  0.00  0.00    +0.021 C 
BRANCH  17  19
ATOM     18  C   UNL     1      -2.829   3.069  -5.459  0.00  0.00    +0.004 C 
ATOM     19  C   UNL     1      -2.111   3.970  -4.452  0.00  0.00    -0.002 C 
ENDBRANCH  17  19
ENDBRANCH  16  17
ENDBRANCH   4  16
ENDBRANCH   1   6
BRANCH   1  20
ATOM     20  C   UNL     1       2.779  -0.131  -0.249  0.00  0.00    +0.082 C 
ATOM     21  C   UNL     1       3.575  -0.613   0.981  0.00  0.00    +0.023 C 
ATOM     22  C   UNL     1       4.450  -1.770   0.436  0.00  0.00    +0.002 C 
ATOM     23  C   UNL     1       4.854  -1.262  -0.970  0.00  0.00    +0.002 C 
ATOM     24  C   UNL     1       3.592  -0.544  -1.489  0.00  0.00    +0.023 C 
ENDBRANCH   1  20
BRANCH   2  25
ATOM     25  C   UNL     1       3.569   3.611  -0.078  0.00  0.00    +0.201 C 
BRANCH  25  26
ATOM     26  N   UNL     1       4.898   4.235  -0.023  0.00  0.00    -0.321 N 
ATOM     27  C   UNL     1       5.570   4.155  -1.321  0.00  0.00    +0.106 C 
ATOM     28  C   UNL     1       6.959   4.794  -1.195  0.00  0.00    +0.024 C 
ATOM     29  C   UNL     1       7.810   3.897  -0.293  0.00  0.00    +0.038 C 
ATOM     30  C   UNL     1       7.027   3.531   0.943  0.00  0.00    -0.026 A 
ATOM     31  C   UNL     1       5.656   3.705   1.020  0.00  0.00    +0.033 A 
ATOM     32  C   UNL     1       4.984   3.340   2.188  0.00  0.00    +0.023 A 
ATOM     33  C   UNL     1       5.678   2.816   3.258  0.00  0.00    +0.005 A 
ATOM     34  C   UNL     1       7.049   2.649   3.176  0.00  0.00    -0.050 A 
ATOM     35  C   UNL     1       7.718   3.006   2.022  0.00  0.00    +0.008 A 
ATOM     36  C   UNL     1       7.810   2.079   4.345  0.00  0.00    +0.044 C 
ENDBRANCH  25  26
ENDBRANCH   2  25
TORSDOF 8
