REMARK  Name = ZINC36586924
REMARK  12 active torsions:
REMARK  status: ('A' for Active; 'I' for Inactive)
REMARK    1  A    between atoms: C_1  and  C_2
REMARK    2  A    between atoms: C_2  and  C_3
REMARK    3  A    between atoms: C_2  and  C_4
REMARK    4  A    between atoms: C_2  and  N_5
REMARK    5  A    between atoms: N_5  and  C_6
REMARK    6  A    between atoms: C_6  and  C_8
REMARK    7  A    between atoms: C_6  and  C_18
REMARK    8  A    between atoms: C_11  and  C_14
REMARK    9  A    between atoms: N_20  and  C_21
REMARK   10  A    between atoms: C_27  and  C_29
REMARK   11  A    between atoms: C_33  and  O_36
REMARK   12  A    between atoms: C_34  and  O_35
REMARK                            x       y       z     vdW  Elec       q    Type
REMARK                         _______ _______ _______ _____ _____    ______ ____
ROOT
ATOM      1  C   UNL     1       1.342  -1.532   0.256  0.00  0.00    +0.193 C 
ENDROOT
BRANCH   1   2
ATOM      2  C   UNL     1       1.668  -2.829   0.950  0.00  0.00    -0.018 A 
ATOM      3  C   UNL     1       0.663  -3.559   1.556  0.00  0.00    +0.006 A 
ATOM      4  C   UNL     1       0.962  -4.749   2.194  0.00  0.00    +0.013 A 
ATOM      5  C   UNL     1       2.265  -5.209   2.224  0.00  0.00    +0.055 A 
ATOM      6  C   UNL     1       3.270  -4.479   1.617  0.00  0.00    +0.013 A 
ATOM      7  C   UNL     1       2.970  -3.291   0.976  0.00  0.00    +0.006 A 
BRANCH   5   8
ATOM      8  C   UNL     1       2.591  -6.505   2.920  0.00  0.00    +0.417 C 
ATOM      9  F   UNL     1       2.487  -7.562   2.009  0.00  0.00    -0.166 F 
ATOM     10  F   UNL     1       3.895  -6.450   3.423  0.00  0.00    -0.166 F 
ATOM     11  F   UNL     1       1.693  -6.708   3.973  0.00  0.00    -0.166 F 
ENDBRANCH   5   8
ENDBRANCH   1   2
BRANCH   1  12
ATOM     12  C   UNL     1       1.465  -0.393   1.235  0.00  0.00    +0.238 C 
ATOM     13  O   UNL     1       0.511   0.322   1.456  0.00  0.00    -0.273 OA
ATOM     14  N   UNL     1       2.635  -0.169   1.865  0.00  0.00    -0.311 N 
ATOM     15  H   UNL     1       3.398  -0.741   1.688  0.00  0.00    +0.149 HD
BRANCH  14  16
ATOM     16  C   UNL     1       2.754   0.938   2.817  0.00  0.00    +0.073 C 
ATOM     17  C   UNL     1       3.083   2.227   2.061  0.00  0.00    +0.022 C 
ATOM     18  C   UNL     1       3.207   3.384   3.055  0.00  0.00    +0.002 C 
ATOM     19  C   UNL     1       4.325   3.079   4.054  0.00  0.00    +0.000 C 
ATOM     20  C   UNL     1       3.997   1.790   4.810  0.00  0.00    +0.002 C 
ATOM     21  C   UNL     1       3.873   0.634   3.816  0.00  0.00    +0.022 C 
ENDBRANCH  14  16
ENDBRANCH   1  12
BRANCH   1  22
ATOM     22  N   UNL     1      -0.027  -1.585  -0.262  0.00  0.00    -0.277 N 
ATOM     23  C   UNL     1      -1.043  -1.930   0.554  0.00  0.00    +0.252 C 
ATOM     24  O   UNL     1      -0.976  -1.689   1.744  0.00  0.00    -0.270 OA
BRANCH  23  25
ATOM     25  C   UNL     1      -2.237  -2.599   0.003  0.00  0.00    +0.082 A 
ATOM     26  C   UNL     1      -2.426  -2.673  -1.380  0.00  0.00    +0.017 A 
ATOM     27  C   UNL     1      -3.542  -3.299  -1.890  0.00  0.00    +0.005 A 
ATOM     28  C   UNL     1      -4.481  -3.858  -1.039  0.00  0.00    +0.049 A 
ATOM     29  C   UNL     1      -4.309  -3.793   0.333  0.00  0.00    +0.159 A 
ATOM     30  C   UNL     1      -3.183  -3.168   0.863  0.00  0.00    +0.171 A 
BRANCH  30  31
ATOM     31  O   UNL     1      -3.007  -3.107   2.208  0.00  0.00    -0.503 OA
ATOM     32  H   UNL     1      -3.396  -2.324   2.620  0.00  0.00    +0.292 HD
ENDBRANCH  30  31
BRANCH  29  33
ATOM     33  O   UNL     1      -5.235  -4.343   1.162  0.00  0.00    -0.503 OA
ATOM     34  H   UNL     1      -5.065  -5.269   1.383  0.00  0.00    +0.292 HD
ENDBRANCH  29  33
ENDBRANCH  23  25
BRANCH  22  36
ATOM     35  C   UNL     1       0.754  -0.267  -2.168  0.00  0.00    +0.031 C 
ATOM     36  C   UNL     1      -0.292  -1.265  -1.667  0.00  0.00    +0.030 C 
ATOM     37  C   UNL     1      -1.687  -0.649  -1.795  0.00  0.00    +0.031 C 
ATOM     38  C   UNL     1      -0.220  -2.543  -2.504  0.00  0.00    +0.031 C 
ENDBRANCH  22  36
ENDBRANCH   1  22
TORSDOF 9
