REMARK  Name = ZINC12137119
REMARK  8 active torsions:
REMARK  status: ('A' for Active; 'I' for Inactive)
REMARK    1  A    between atoms: C_4  and  C_7
REMARK    2  A    between atoms: C_7  and  C_8
REMARK    3  A    between atoms: C_7  and  N_66
REMARK    4  A    between atoms: C_19  and  C_21
REMARK    5  A    between atoms: C_26  and  N_27
REMARK    6  A    between atoms: N_27  and  C_28
REMARK    7  A    between atoms: C_28  and  N_30
REMARK    8  A    between atoms: C_31  and  C_33
REMARK                            x       y       z     vdW  Elec       q    Type
REMARK                         _______ _______ _______ _____ _____    ______ ____
ROOT
ATOM      1  C   UNL     1      -2.313  -0.422   1.988  0.00  0.00    -0.058 C 
ATOM      2  C   UNL     1      -3.148  -0.938   3.164  0.00  0.00    +0.089 C 
ATOM      3  N   UNL     1      -2.957  -2.392   3.271  0.00  0.00    -0.301 N 
ATOM      4  C   UNL     1      -3.147  -3.210   2.063  0.00  0.00    +0.089 C 
ATOM      5  C   UNL     1      -2.312  -2.605   0.930  0.00  0.00    -0.058 C 
ATOM      6  C   UNL     1      -2.616  -2.961   4.445  0.00  0.00    +0.248 C 
ATOM      7  O   UNL     1      -2.537  -4.171   4.534  0.00  0.00    -0.270 OA
ATOM      8  N   UNL     1      -2.684  -1.182   0.774  0.00  0.00    +0.389 N 
ATOM      9  H   UNL     1      -3.700  -1.116   0.637  0.00  0.00    -0.080 HD
ENDROOT
BRANCH   6  10
ATOM     10  C   UNL     1      -2.339  -2.115   5.621  0.00  0.00    +0.058 A 
ATOM     11  C   UNL     1      -3.274  -1.166   6.040  0.00  0.00    +0.015 A 
ATOM     12  C   UNL     1      -3.011  -0.383   7.143  0.00  0.00    +0.001 A 
ATOM     13  C   UNL     1      -1.818  -0.524   7.833  0.00  0.00    +0.002 A 
ATOM     14  C   UNL     1      -0.882  -1.453   7.428  0.00  0.00    +0.024 A 
ATOM     15  C   UNL     1      -1.132  -2.255   6.322  0.00  0.00    +0.045 A 
BRANCH  15  16
ATOM     16  N   UNL     1      -0.189  -3.194   5.912  0.00  0.00    -0.296 N 
ATOM     17  H   UNL     1       0.062  -3.252   4.977  0.00  0.00    +0.154 HD
BRANCH  16  18
ATOM     18  C   UNL     1       0.374  -4.022   6.813  0.00  0.00    +0.141 C 
ATOM     19  S   UNL     1       0.027  -3.837   8.480  0.00  0.00    -0.018 S 
BRANCH  18  20
ATOM     20  N   UNL     1       1.211  -4.996   6.403  0.00  0.00    -0.261 N 
ATOM     21  C   UNL     1       1.774  -5.824   7.305  0.00  0.00    +0.285 C 
ATOM     22  O   UNL     1       1.528  -5.693   8.489  0.00  0.00    -0.266 OA
ATOM     23  H   UNL     1       1.407  -5.101   5.459  0.00  0.00    +0.157 HD
BRANCH  21  24
ATOM     24  C   UNL     1       2.684  -6.883   6.859  0.00  0.00    +0.189 A 
ATOM     25  C   UNL     1       3.320  -7.786   7.663  0.00  0.00    +0.054 A 
ATOM     26  C   UNL     1       4.084  -8.608   6.821  0.00  0.00    +0.042 A 
ATOM     27  C   UNL     1       3.884  -8.177   5.556  0.00  0.00    +0.196 A 
ATOM     28  O   UNL     1       3.036  -7.141   5.582  0.00  0.00    -0.458 OA
ENDBRANCH  21  24
ENDBRANCH  18  20
ENDBRANCH  16  18
ENDBRANCH  15  16
ENDBRANCH   6  10
BRANCH   8  29
ATOM     29  C   UNL     1      -2.004  -0.609  -0.407  0.00  0.00    -0.007 C 
BRANCH  29  33
ATOM     30  C   UNL     1      -3.061   3.515  -0.752  0.00  0.00    +0.000 A 
ATOM     31  C   UNL     1      -1.769   3.107  -1.027  0.00  0.00    +0.000 A 
ATOM     32  C   UNL     1      -1.427   1.773  -0.915  0.00  0.00    +0.002 A 
ATOM     33  C   UNL     1      -2.377   0.846  -0.529  0.00  0.00    -0.057 A 
ATOM     34  C   UNL     1      -3.670   1.252  -0.259  0.00  0.00    +0.002 A 
ATOM     35  C   UNL     1      -4.011   2.588  -0.366  0.00  0.00    +0.000 A 
ENDBRANCH  29  33
BRANCH  29  36
ATOM     36  C   UNL     1      -2.459  -1.349  -1.638  0.00  0.00    -0.057 A 
ATOM     37  C   UNL     1      -3.780  -1.740  -1.761  0.00  0.00    +0.002 A 
ATOM     38  C   UNL     1      -4.198  -2.414  -2.893  0.00  0.00    +0.000 A 
ATOM     39  C   UNL     1      -3.294  -2.708  -3.897  0.00  0.00    +0.000 A 
ATOM     40  C   UNL     1      -1.973  -2.323  -3.771  0.00  0.00    +0.000 A 
ATOM     41  C   UNL     1      -1.555  -1.643  -2.642  0.00  0.00    +0.002 A 
ENDBRANCH  29  36
ENDBRANCH   8  29
TORSDOF 8
