REMARK  Name = ZINC14731859
REMARK  7 active torsions:
REMARK  status: ('A' for Active; 'I' for Inactive)
REMARK    1  A    between atoms: C_6  and  C_7
REMARK    2  A    between atoms: C_10  and  C_12
REMARK    3  A    between atoms: C_12  and  C_13
REMARK    4  A    between atoms: C_13  and  C_14
REMARK    5  A    between atoms: N_16  and  C_17
REMARK    6  A    between atoms: C_20  and  S_23
REMARK    7  A    between atoms: S_23  and  N_26
REMARK                            x       y       z     vdW  Elec       q    Type
REMARK                         _______ _______ _______ _____ _____    ______ ____
ROOT
ATOM      1  C   UNL     1      -2.853  -2.083  -1.423  0.00  0.00    +0.218 C 
ATOM      2  O   UNL     1      -3.326  -2.453  -0.369  0.00  0.00    -0.275 OA
ATOM      3  N   UNL     1      -3.409  -2.474  -2.586  0.00  0.00    -0.285 N 
ATOM      4  H   UNL     1      -3.072  -2.124  -3.426  0.00  0.00    +0.155 HD
ENDROOT
BRANCH   3   5
ATOM      5  C   UNL     1      -4.471  -3.384  -2.583  0.00  0.00    +0.033 A 
ATOM      6  C   UNL     1      -4.591  -4.318  -3.604  0.00  0.00    +0.025 A 
ATOM      7  C   UNL     1      -5.638  -5.219  -3.595  0.00  0.00    +0.030 A 
ATOM      8  C   UNL     1      -6.572  -5.185  -2.575  0.00  0.00    +0.109 A 
ATOM      9  C   UNL     1      -6.458  -4.253  -1.560  0.00  0.00    +0.030 A 
ATOM     10  C   UNL     1      -5.411  -3.353  -1.561  0.00  0.00    +0.025 A 
BRANCH   8  11
ATOM     11  S   UNL     1      -7.910  -6.332  -2.570  0.00  0.00    +0.074 S 
ATOM     12  O   UNL     1      -7.487  -7.452  -3.335  0.00  0.00    -0.150 OA
ATOM     13  O   UNL     1      -8.339  -6.449  -1.221  0.00  0.00    -0.150 OA
BRANCH  11  14
ATOM     14  N   UNL     1      -9.157  -5.633  -3.405  0.00  0.00    -0.194 N 
ATOM     15  C   UNL     1      -9.022  -5.367  -4.759  0.00  0.00    +0.177 A 
ATOM     16  N   UNL     1      -7.988  -5.589  -5.548  0.00  0.00    -0.232 NA
ATOM     17  C   UNL     1      -8.027  -5.275  -6.830  0.00  0.00    +0.120 A 
ATOM     18  C   UNL     1      -9.154  -4.706  -7.321  0.00  0.00    +0.068 A 
ATOM     19  S   UNL     1     -10.166  -4.648  -5.850  0.00  0.00    -0.059 S 
ATOM     20  H   UNL     1      -9.982  -5.409  -2.947  0.00  0.00    +0.176 HD
ENDBRANCH  11  14
ENDBRANCH   8  11
ENDBRANCH   3   5
BRANCH   1  21
ATOM     21  C   UNL     1      -1.643  -1.184  -1.430  0.00  0.00    +0.105 C 
BRANCH  21  22
ATOM     22  C   UNL     1      -1.214  -0.893   0.009  0.00  0.00    +0.105 C 
BRANCH  22  26
ATOM     23  C   UNL     1       2.058   0.691  -0.018  0.00  0.00    +0.155 A 
ATOM     24  C   UNL     1       1.231   1.768   0.002  0.00  0.00    +0.161 A 
ATOM     25  N   UNL     1      -0.029   1.308   0.014  0.00  0.00    -0.221 NA
ATOM     26  C   UNL     1      -0.004   0.005   0.002  0.00  0.00    +0.197 A 
ATOM     27  O   UNL     1       1.270  -0.407  -0.018  0.00  0.00    -0.440 OA
BRANCH  23  33
ATOM     28  C   UNL     1       4.256  -0.480  -0.049  0.00  0.00    +0.013 A 
ATOM     29  C   UNL     1       5.635  -0.451  -0.071  0.00  0.00    +0.021 A 
ATOM     30  C   UNL     1       6.305   0.761  -0.069  0.00  0.00    +0.041 A 
ATOM     31  C   UNL     1       5.596   1.950  -0.050  0.00  0.00    +0.021 A 
ATOM     32  C   UNL     1       4.216   1.934  -0.033  0.00  0.00    +0.013 A 
ATOM     33  C   UNL     1       3.536   0.715  -0.036  0.00  0.00    +0.019 A 
ATOM     34 CL   UNL     1       8.040   0.789  -0.089  0.00  0.00    -0.084 Cl
ENDBRANCH  23  33
ENDBRANCH  22  26
ENDBRANCH  21  22
ENDBRANCH   1  21
TORSDOF 7
