REMARK  Name = ZINC37605311
REMARK  12 active torsions:
REMARK  status: ('A' for Active; 'I' for Inactive)
REMARK    1  A    between atoms: C_1  and  C_2
REMARK    2  A    between atoms: C_5  and  C_8
REMARK    3  A    between atoms: C_12  and  O_25
REMARK    4  A    between atoms: C_19  and  C_21
REMARK    5  A    between atoms: C_21  and  C_22
REMARK    6  A    between atoms: C_22  and  C_23
REMARK    7  A    between atoms: C_22  and  C_24
REMARK    8  A    between atoms: O_25  and  C_26
REMARK    9  A    between atoms: C_26  and  C_27
REMARK   10  A    between atoms: C_30  and  C_32
REMARK   11  A    between atoms: N_34  and  C_35
REMARK   12  A    between atoms: C_35  and  C_36
REMARK                            x       y       z     vdW  Elec       q    Type
REMARK                         _______ _______ _______ _____ _____    ______ ____
ROOT
ATOM      1  C   UNL     1       0.059  -4.275  -0.021  0.00  0.00    +0.137 C 
ATOM      2  C   UNL     1       1.484  -4.759   0.090  0.00  0.00    -0.016 A 
ATOM      3  C   UNL     1       2.312  -4.588  -1.010  0.00  0.00    +0.051 A 
ATOM      4  C   UNL     1       3.632  -5.003  -0.966  0.00  0.00    +0.121 A 
ATOM      5  C   UNL     1       4.127  -5.592   0.189  0.00  0.00    +0.046 A 
ATOM      6  C   UNL     1       3.300  -5.764   1.278  0.00  0.00    +0.007 A 
ATOM      7  C   UNL     1       1.973  -5.353   1.232  0.00  0.00    -0.040 A 
ATOM      8  C   UNL     1       1.124  -5.599   2.452  0.00  0.00    +0.054 C 
ATOM      9  C   UNL     1      -0.110  -4.699   2.447  0.00  0.00    +0.113 C 
ATOM     10  N   UNL     1      -0.723  -4.780   1.112  0.00  0.00    -0.290 N 
ATOM     11  C   UNL     1      -1.956  -5.296   0.938  0.00  0.00    +0.217 C 
ATOM     12  O   UNL     1      -2.439  -5.351  -0.173  0.00  0.00    -0.276 OA
ENDROOT
BRANCH   1  17
ATOM     13  C   UNL     1      -0.012   1.503   0.009  0.00  0.00    +0.044 C 
ATOM     14  C   UNL     1       0.006  -0.004   0.001  0.00  0.00    -0.050 A 
ATOM     15  C   UNL     1       0.623  -0.693   1.029  0.00  0.00    +0.004 A 
ATOM     16  C   UNL     1       0.640  -2.075   1.022  0.00  0.00    +0.006 A 
ATOM     17  C   UNL     1       0.040  -2.768  -0.013  0.00  0.00    -0.023 A 
ATOM     18  C   UNL     1      -0.577  -2.079  -1.041  0.00  0.00    +0.006 A 
ATOM     19  C   UNL     1      -0.598  -0.697  -1.031  0.00  0.00    +0.004 A 
ENDBRANCH   1  17
BRANCH  11  20
ATOM     20  C   UNL     1      -2.733  -5.806   2.124  0.00  0.00    +0.099 C 
BRANCH  20  21
ATOM     21  C   UNL     1      -4.090  -6.335   1.655  0.00  0.00    -0.008 C 
ATOM     22  C   UNL     1      -3.879  -7.554   0.755  0.00  0.00    +0.008 C 
ATOM     23  C   UNL     1      -4.928  -6.737   2.870  0.00  0.00    +0.008 C 
ENDBRANCH  20  21
ENDBRANCH  11  20
BRANCH   4  24
ATOM     24  O   UNL     1       4.438  -4.834  -2.047  0.00  0.00    -0.484 OA
BRANCH  24  25
ATOM     25  C   UNL     1       5.788  -5.287  -1.926  0.00  0.00    +0.303 C 
BRANCH  25  26
ATOM     26  C   UNL     1       6.525  -5.019  -3.213  0.00  0.00    +0.143 A 
ATOM     27  C   UNL     1       7.212  -3.893  -3.507  0.00  0.00    +0.049 A 
ATOM     28  C   UNL     1       7.741  -4.057  -4.797  0.00  0.00    +0.055 A 
ATOM     29  C   UNL     1       7.345  -5.290  -5.230  0.00  0.00    +0.190 A 
ATOM     30  O   UNL     1       6.612  -5.860  -4.252  0.00  0.00    -0.452 OA
BRANCH  29  31
ATOM     31  C   UNL     1       7.665  -5.890  -6.529  0.00  0.00    +0.279 C 
ATOM     32  O   UNL     1       8.341  -5.277  -7.333  0.00  0.00    -0.267 OA
ATOM     33  N   UNL     1       7.208  -7.121  -6.833  0.00  0.00    -0.306 N 
ATOM     34  H   UNL     1       6.669  -7.610  -6.192  0.00  0.00    +0.149 HD
BRANCH  33  35
ATOM     35  C   UNL     1       7.528  -7.721  -8.131  0.00  0.00    +0.136 C 
BRANCH  35  36
ATOM     36  C   UNL     1       6.894  -9.111  -8.220  0.00  0.00    +0.135 C 
ATOM     37  C   UNL     1       7.324  -9.800  -9.533  0.00  0.00    +0.035 C 
ATOM     38  C   UNL     1       6.019 -10.518  -9.971  0.00  0.00    +0.031 C 
ATOM     39  C   UNL     1       4.949  -9.514  -9.476  0.00  0.00    +0.160 C 
ATOM     40  O   UNL     1       5.466  -8.993  -8.238  0.00  0.00    -0.375 OA
ENDBRANCH  35  36
ENDBRANCH  33  35
ENDBRANCH  29  31
ENDBRANCH  25  26
ENDBRANCH  24  25
ENDBRANCH   4  24
TORSDOF 9
