REMARK  Name = ZINC03333087
REMARK  6 active torsions:
REMARK  status: ('A' for Active; 'I' for Inactive)
REMARK    1  A    between atoms: C_10  and  C_11
REMARK    2  A    between atoms: C_11  and  C_12
REMARK    3  A    between atoms: C_15  and  S_18
REMARK    4  A    between atoms: N_16  and  N_17
REMARK    5  A    between atoms: S_18  and  C_19
REMARK    6  A    between atoms: C_19  and  C_20
REMARK                            x       y       z     vdW  Elec       q    Type
REMARK                         _______ _______ _______ _____ _____    ______ ____
ROOT
ATOM      1  C   UNL     1      -0.017   1.363   0.009  0.00  0.00    +0.155 A 
ATOM      2  N   UNL     1       1.222   1.768  -0.000  0.00  0.00    -0.132 NA
ATOM      3  N   UNL     1       2.016   0.758  -0.013  0.00  0.00    -0.121 NA
ATOM      4  C   UNL     1       1.321  -0.356  -0.013  0.00  0.00    +0.209 A 
ATOM      5  N   UNL     1       0.002  -0.004   0.002  0.00  0.00    -0.228 N 
ENDROOT
BRANCH   5   6
ATOM      6  N   UNL     1      -1.075  -0.844   0.008  0.00  0.00    -0.295 N 
ATOM      7  H   UNL     1      -1.370  -1.061  -0.933  0.00  0.00    +0.163 HD
ATOM      8  H   UNL     1      -0.875  -1.685   0.527  0.00  0.00    +0.163 HD
ENDBRANCH   5   6
BRANCH   1   9
ATOM      9  C   UNL     1      -1.242   2.240   0.020  0.00  0.00    +0.113 C 
BRANCH   9  19
ATOM     10  C   UNL     1       0.101   5.665   3.580  0.00  0.00    +0.001 A 
ATOM     11  C   UNL     1       0.485   5.417   2.263  0.00  0.00    +0.001 A 
ATOM     12  C   UNL     1      -0.071   4.399   1.551  0.00  0.00    +0.009 A 
ATOM     13  C   UNL     1      -1.047   3.584   2.149  0.00  0.00    -0.014 A 
ATOM     14  C   UNL     1      -1.438   3.836   3.488  0.00  0.00    -0.018 A 
ATOM     15  C   UNL     1      -0.842   4.896   4.191  0.00  0.00    +0.008 A 
ATOM     16  C   UNL     1      -2.414   3.021   4.085  0.00  0.00    +0.008 A 
ATOM     17  C   UNL     1      -2.970   2.003   3.373  0.00  0.00    +0.001 A 
ATOM     18  C   UNL     1      -2.591   1.760   2.054  0.00  0.00    +0.004 A 
ATOM     19  C   UNL     1      -1.644   2.524   1.445  0.00  0.00    -0.032 A 
ENDBRANCH   9  19
ENDBRANCH   1   9
BRANCH   4  20
ATOM     20  S   UNL     1       1.968  -1.995  -0.027  0.00  0.00    -0.070 S 
BRANCH  20  21
ATOM     21  C   UNL     1       3.742  -1.632  -0.042  0.00  0.00    +0.195 C 
BRANCH  21  22
ATOM     22  C   UNL     1       4.500  -2.894  -0.056  0.00  0.00    +0.074 C 
ATOM     23  N   UNL     1       5.085  -3.867  -0.066  0.00  0.00    -0.196 NA
ENDBRANCH  21  22
ENDBRANCH  20  21
ENDBRANCH   4  20
TORSDOF 6
