REMARK  Name = ZINC18147256
REMARK  7 active torsions:
REMARK  status: ('A' for Active; 'I' for Inactive)
REMARK    1  A    between atoms: C_1  and  C_2
REMARK    2  A    between atoms: C_3  and  N_9
REMARK    3  A    between atoms: C_10  and  C_12
REMARK    4  A    between atoms: C_12  and  N_13
REMARK    5  A    between atoms: C_14  and  C_16
REMARK    6  A    between atoms: C_16  and  C_17
REMARK    7  A    between atoms: C_26  and  O_29
REMARK                            x       y       z     vdW  Elec       q    Type
REMARK                         _______ _______ _______ _____ _____    ______ ____
ROOT
ATOM      1  N   UNL     1       0.297  -0.832  -5.993  0.00  0.00    -0.307 N 
ATOM      2  C   UNL     1       0.395  -0.373  -7.256  0.00  0.00    +0.214 C 
ATOM      3  O   UNL     1       0.396   0.821  -7.469  0.00  0.00    -0.276 OA
ATOM      4  H   UNL     1       0.295  -1.787  -5.823  0.00  0.00    +0.149 HD
ENDROOT
BRANCH   1   5
ATOM      5  C   UNL     1       0.192   0.111  -4.876  0.00  0.00    +0.200 C 
BRANCH   5   7
ATOM      6  N   UNL     1      -0.010   0.011  -2.413  0.00  0.00    -0.284 N 
ATOM      7  C   UNL     1       0.095  -0.653  -3.581  0.00  0.00    +0.234 C 
ATOM      8  O   UNL     1       0.112  -1.866  -3.590  0.00  0.00    -0.274 OA
ATOM      9  H   UNL     1      -0.104   0.977  -2.411  0.00  0.00    +0.155 HD
BRANCH   6  12
ATOM     10  C   UNL     1      -1.263   1.190  -0.146  0.00  0.00    +0.047 C 
ATOM     11  C   UNL     1      -0.583  -0.153  -0.073  0.00  0.00    -0.011 A 
ATOM     12  C   UNL     1       0.017  -0.692  -1.204  0.00  0.00    +0.038 A 
ATOM     13  C   UNL     1       0.642  -1.929  -1.132  0.00  0.00    +0.023 A 
ATOM     14  C   UNL     1       0.667  -2.621   0.064  0.00  0.00    +0.003 A 
ATOM     15  C   UNL     1       0.069  -2.084   1.188  0.00  0.00    +0.020 A 
ATOM     16  C   UNL     1      -0.550  -0.848   1.122  0.00  0.00    +0.046 A 
ATOM     17 CL   UNL     1      -1.293  -0.173   2.538  0.00  0.00    -0.083 Cl
ENDBRANCH   6  12
ENDBRANCH   5   7
ENDBRANCH   1   5
BRANCH   2  18
ATOM     18  C   UNL     1       0.503  -1.343  -8.404  0.00  0.00    +0.102 C 
BRANCH  18  19
ATOM     19  C   UNL     1       0.601  -0.567  -9.720  0.00  0.00    -0.018 C 
ATOM     20  C   UNL     1      -0.650   0.297  -9.897  0.00  0.00    +0.011 C 
ATOM     21  C   UNL     1      -0.552   1.072 -11.212  0.00  0.00    -0.007 C 
ATOM     22  C   UNL     1       0.687   1.969 -11.184  0.00  0.00    +0.007 C 
ATOM     23  C   UNL     1       1.938   1.106 -11.007  0.00  0.00    -0.007 C 
ATOM     24  C   UNL     1       1.840   0.330  -9.691  0.00  0.00    +0.011 C 
ATOM     25  C   UNL     1       2.047   0.121 -12.172  0.00  0.00    +0.038 C 
ATOM     26  C   UNL     1       0.808  -0.776 -12.201  0.00  0.00    +0.067 C 
ATOM     27  C   UNL     1      -0.442   0.087 -12.378  0.00  0.00    +0.038 C 
ATOM     28  C   UNL     1       0.710  -1.552 -10.885  0.00  0.00    +0.042 C 
BRANCH  26  29
ATOM     29  O   UNL     1       0.910  -1.696 -13.290  0.00  0.00    -0.389 OA
ATOM     30  H   UNL     1       0.976  -1.273 -14.157  0.00  0.00    +0.210 HD
ENDBRANCH  26  29
ENDBRANCH  18  19
ENDBRANCH   2  18
TORSDOF 6
