REMARK  Name = ZINC28535533
REMARK  5 active torsions:
REMARK  status: ('A' for Active; 'I' for Inactive)
REMARK    1  A    between atoms: C_6  and  C_7
REMARK    2  A    between atoms: C_7  and  S_8
REMARK    3  A    between atoms: S_8  and  C_9
REMARK    4  A    between atoms: N_15  and  N_16
REMARK    5  A    between atoms: N_17  and  C_18
REMARK                            x       y       z     vdW  Elec       q    Type
REMARK                         _______ _______ _______ _____ _____    ______ ____
ROOT
ATOM      1  C   UNL     1       0.075   1.343   0.815  0.00  0.00    +0.210 A 
ATOM      2  N   UNL     1       1.170   2.034   0.571  0.00  0.00    -0.121 NA
ATOM      3  N   UNL     1       2.292   1.468   0.303  0.00  0.00    -0.126 NA
ATOM      4  C   UNL     1       2.405   0.158   0.258  0.00  0.00    +0.212 A 
ATOM      5  C   UNL     1       1.263  -0.646   0.512  0.00  0.00    +0.312 A 
ATOM      6  O   UNL     1       1.332  -1.863   0.479  0.00  0.00    -0.262 OA
ATOM      7  N   UNL     1       0.095  -0.022   0.792  0.00  0.00    -0.205 N 
ATOM      8  N   UNL     1       3.634  -0.434  -0.036  0.00  0.00    -0.292 N 
ATOM      9  H   UNL     1       3.700  -1.523  -0.179  0.00  0.00    +0.154 HD
ENDROOT
BRANCH   8  10
ATOM     10  C   UNL     1       4.782   0.356  -0.148  0.00  0.00    +0.052 A 
ATOM     11  C   UNL     1       4.825   1.609   0.450  0.00  0.00    +0.044 A 
ATOM     12  C   UNL     1       5.962   2.387   0.337  0.00  0.00    +0.043 A 
ATOM     13  C   UNL     1       7.055   1.919  -0.371  0.00  0.00    +0.021 A 
ATOM     14  C   UNL     1       7.015   0.673  -0.968  0.00  0.00    +0.023 A 
ATOM     15  C   UNL     1       5.884  -0.113  -0.854  0.00  0.00    +0.062 A 
ATOM     16 CL   UNL     1       5.837  -1.681  -1.596  0.00  0.00    -0.082 Cl
ATOM     17 CL   UNL     1       6.017   3.953   1.084  0.00  0.00    -0.083 Cl
ENDBRANCH   8  10
BRANCH   7  18
ATOM     18  N   UNL     1      -1.038  -0.742   1.044  0.00  0.00    -0.293 N 
ATOM     19  H   UNL     1      -1.008  -1.841   1.022  0.00  0.00    +0.163 HD
ATOM     20  H   UNL     1      -1.981  -0.222   1.269  0.00  0.00    +0.163 HD
ENDBRANCH   7  18
BRANCH   1  21
ATOM     21  S   UNL     1      -1.431   2.188   1.169  0.00  0.00    -0.080 S 
BRANCH  21  22
ATOM     22  C   UNL     1      -0.861   3.902   1.063  0.00  0.00    +0.112 C 
BRANCH  22  28
ATOM     23  C   UNL     1      -2.805   5.280   0.295  0.00  0.00    +0.006 A 
ATOM     24  C   UNL     1      -3.866   6.128   0.547  0.00  0.00    +0.020 A 
ATOM     25  C   UNL     1      -4.131   6.539   1.842  0.00  0.00    +0.041 A 
ATOM     26  C   UNL     1      -3.336   6.096   2.884  0.00  0.00    +0.020 A 
ATOM     27  C   UNL     1      -2.279   5.243   2.631  0.00  0.00    +0.006 A 
ATOM     28  C   UNL     1      -2.015   4.832   1.338  0.00  0.00    -0.037 A 
ATOM     29 CL   UNL     1      -5.460   7.610   2.158  0.00  0.00    -0.084 Cl
ENDBRANCH  22  28
ENDBRANCH  21  22
ENDBRANCH   1  21
TORSDOF 5
