REMARK  Name = ZINC36026795
REMARK  10 active torsions:
REMARK  status: ('A' for Active; 'I' for Inactive)
REMARK    1  A    between atoms: C_1  and  C_2
REMARK    2  A    between atoms: C_2  and  C_3
REMARK    3  A    between atoms: C_3  and  C_5
REMARK    4  A    between atoms: C_3  and  C_6
REMARK    5  A    between atoms: C_6  and  N_7
REMARK    6  A    between atoms: C_10  and  C_25
REMARK    7  A    between atoms: N_21  and  C_22
REMARK    8  A    between atoms: C_22  and  C_23
REMARK    9  A    between atoms: C_22  and  C_24
REMARK   10  A    between atoms: C_25  and  C_26
REMARK                            x       y       z     vdW  Elec       q    Type
REMARK                         _______ _______ _______ _____ _____    ______ ____
ROOT
ATOM      1  N   UNL     1       1.860  -2.534   2.088  0.00  0.00    -0.313 N 
ATOM      2  C   UNL     1       3.201  -2.590   1.959  0.00  0.00    +0.201 C 
ATOM      3  O   UNL     1       3.833  -2.258   0.978  0.00  0.00    -0.277 OA
ATOM      4  C   UNL     1       3.786  -3.136   3.243  0.00  0.00    +0.023 C 
ATOM      5  N   UNL     1       2.638  -3.762   3.945  0.00  0.00    +0.401 N 
ATOM      6  C   UNL     1       1.477  -3.008   3.421  0.00  0.00    +0.006 C 
ATOM      7  C   UNL     1       0.265  -3.933   3.325  0.00  0.00    +0.025 C 
ATOM      8  C   UNL     1      -0.921  -3.157   2.743  0.00  0.00    +0.109 C 
ATOM      9  N   UNL     1      -1.136  -1.947   3.549  0.00  0.00    -0.286 N 
ATOM     10  C   UNL     1      -0.008  -1.030   3.762  0.00  0.00    +0.109 C 
ATOM     11  C   UNL     1       1.170  -1.824   4.336  0.00  0.00    +0.025 C 
ATOM     12  C   UNL     1      -2.345  -1.684   4.083  0.00  0.00    +0.302 C 
ATOM     13  O   UNL     1      -2.487  -0.733   4.827  0.00  0.00    -0.253 OA
ATOM     14  N   UNL     1      -3.397  -2.474   3.792  0.00  0.00    -0.297 N 
ATOM     15  H   UNL     1       2.568  -4.740   3.711  0.00  0.00    -0.082 HD
ATOM     16  H   UNL     1      -3.270  -3.273   3.256  0.00  0.00    +0.150 HD
ATOM     17  H   UNL     1       2.720  -3.637   4.943  0.00  0.00    -0.082 HD
ENDROOT
BRANCH  14  18
ATOM     18  C   UNL     1      -4.733  -2.127   4.284  0.00  0.00    +0.068 C 
ATOM     19  C   UNL     1      -5.790  -2.747   3.369  0.00  0.00    +0.027 C 
ATOM     20  C   UNL     1      -4.908  -2.666   5.705  0.00  0.00    +0.027 C 
ENDBRANCH  14  18
BRANCH   1  21
ATOM     21  C   UNL     1       0.929  -2.065   1.058  0.00  0.00    +0.109 C 
BRANCH  21  22
ATOM     22  C   UNL     1       0.509  -3.243   0.176  0.00  0.00    +0.003 C 
ATOM     23  C   UNL     1       1.722  -3.750  -0.608  0.00  0.00    +0.009 C 
BRANCH  22  25
ATOM     24  C   UNL     1      -1.084  -3.990  -1.597  0.00  0.00    +0.004 C 
ATOM     25  C   UNL     1      -0.576  -2.786  -0.801  0.00  0.00    +0.001 C 
ENDBRANCH  22  25
ENDBRANCH  21  22
ENDBRANCH   1  21
BRANCH   4  26
ATOM     26  C   UNL     1       4.860  -4.182   2.938  0.00  0.00    +0.028 C 
BRANCH  26  27
ATOM     27  C   UNL     1       5.488  -4.649   4.226  0.00  0.00    -0.048 A 
ATOM     28  C   UNL     1       6.593  -3.991   4.734  0.00  0.00    +0.003 A 
ATOM     29  C   UNL     1       7.169  -4.419   5.915  0.00  0.00    +0.000 A 
ATOM     30  C   UNL     1       6.640  -5.504   6.589  0.00  0.00    +0.000 A 
ATOM     31  C   UNL     1       5.534  -6.161   6.082  0.00  0.00    +0.000 A 
ATOM     32  C   UNL     1       4.956  -5.730   4.902  0.00  0.00    +0.003 A 
ENDBRANCH  26  27
ENDBRANCH   4  26
TORSDOF 6
