REMARK  Name = ZINC39856156
REMARK  13 active torsions:
REMARK  status: ('A' for Active; 'I' for Inactive)
REMARK    1  A    between atoms: C_1  and  C_2
REMARK    2  A    between atoms: C_2  and  C_3
REMARK    3  A    between atoms: C_3  and  C_4
REMARK    4  A    between atoms: C_4  and  O_5
REMARK    5  A    between atoms: O_5  and  C_6
REMARK    6  A    between atoms: C_9  and  N_12
REMARK    7  A    between atoms: C_13  and  C_15
REMARK    8  A    between atoms: C_16  and  C_31
REMARK    9  A    between atoms: C_21  and  C_29
REMARK   10  A    between atoms: C_21  and  C_30
REMARK   11  A    between atoms: N_24  and  N_25
REMARK   12  A    between atoms: N_25  and  C_26
REMARK   13  A    between atoms: C_26  and  N_28
REMARK                            x       y       z     vdW  Elec       q    Type
REMARK                         _______ _______ _______ _____ _____    ______ ____
ROOT
ATOM      1  C   UNL     1       2.387  -9.912  -4.456  0.00  0.00    +0.193 A 
ATOM      2  C   UNL     1       2.901 -10.546  -5.553  0.00  0.00    +0.009 A 
ATOM      3  C   UNL     1       2.701 -11.916  -5.343  0.00  0.00    +0.042 A 
ATOM      4  C   UNL     1       2.073 -12.060  -4.128  0.00  0.00    +0.116 A 
ATOM      5  O   UNL     1       1.900 -10.847  -3.608  0.00  0.00    -0.454 OA
ATOM      6  C   UNL     1       1.686 -13.402  -3.559  0.00  0.00    +0.081 C 
ATOM      7  C   UNL     1       1.614 -14.432  -4.689  0.00  0.00    -0.023 C 
ATOM      8  C   UNL     1       2.914 -14.436  -5.501  0.00  0.00    +0.064 C 
ATOM      9  C   UNL     1       3.053 -13.083  -6.183  0.00  0.00    +0.070 C 
ATOM     10  N   UNL     1       3.450 -12.961  -7.412  0.00  0.00    -0.185 NA
ATOM     11  C   UNL     1       1.391 -15.822  -4.090  0.00  0.00    +0.011 C 
ATOM     12  C   UNL     1       0.444 -14.088  -5.612  0.00  0.00    +0.011 C 
ATOM     13  C   UNL     1       3.551  -9.900  -6.749  0.00  0.00    +0.048 C 
ENDROOT
BRANCH   1  15
ATOM     14  N   UNL     1       1.839  -7.960  -3.102  0.00  0.00    -0.279 N 
ATOM     15  C   UNL     1       2.372  -8.463  -4.233  0.00  0.00    +0.284 C 
ATOM     16  O   UNL     1       2.842  -7.713  -5.069  0.00  0.00    -0.266 OA
ATOM     17  H   UNL     1       1.534  -8.559  -2.402  0.00  0.00    +0.155 HD
BRANCH  14  21
ATOM     18  C   UNL     1       1.498  -3.834  -2.611  0.00  0.00    +0.121 A 
ATOM     19  C   UNL     1       1.743  -4.645  -1.513  0.00  0.00    +0.047 A 
ATOM     20  C   UNL     1       1.856  -6.012  -1.674  0.00  0.00    +0.027 A 
ATOM     21  C   UNL     1       1.724  -6.575  -2.937  0.00  0.00    +0.034 A 
ATOM     22  C   UNL     1       1.479  -5.762  -4.036  0.00  0.00    +0.027 A 
ATOM     23  C   UNL     1       1.361  -4.396  -3.872  0.00  0.00    +0.047 A 
BRANCH  18  24
ATOM     24  O   UNL     1       1.387  -2.489  -2.451  0.00  0.00    -0.492 OA
BRANCH  24  25
ATOM     25  C   UNL     1       1.540  -1.978  -1.125  0.00  0.00    +0.229 C 
BRANCH  25  26
ATOM     26  C   UNL     1       1.383  -0.456  -1.144  0.00  0.00    +0.041 C 
BRANCH  26  28
ATOM     27  C   UNL     1       1.391   1.612   0.257  0.00  0.00    +0.004 C 
ATOM     28  C   UNL     1       1.547   0.090   0.276  0.00  0.00    -0.000 C 
ENDBRANCH  26  28
ENDBRANCH  25  26
ENDBRANCH  24  25
ENDBRANCH  18  24
ENDBRANCH  14  21
ENDBRANCH   1  15
BRANCH  10  29
ATOM     29  N   UNL     1       3.769 -14.100  -8.162  0.00  0.00    -0.218 N 
ATOM     30  H   UNL     1       3.693 -14.981  -7.762  0.00  0.00    +0.176 HD
BRANCH  29  31
ATOM     31  C   UNL     1       4.182 -13.974  -9.438  0.00  0.00    +0.147 C 
ATOM     32  S   UNL     1       4.573 -15.366 -10.354  0.00  0.00    -0.017 S 
BRANCH  31  33
ATOM     33  N   UNL     1       4.288 -12.750  -9.994  0.00  0.00    -0.339 N 
ATOM     34  H   UNL     1       4.067 -11.961  -9.475  0.00  0.00    +0.144 HD
ATOM     35  H   UNL     1       4.585 -12.659 -10.913  0.00  0.00    +0.144 HD
ENDBRANCH  31  33
ENDBRANCH  29  31
ENDBRANCH  10  29
TORSDOF 9
