REMARK  Name = ZINC03265089
REMARK  8 active torsions:
REMARK  status: ('A' for Active; 'I' for Inactive)
REMARK    1  A    between atoms: C_1  and  C_2
REMARK    2  A    between atoms: C_5  and  C_17
REMARK    3  A    between atoms: N_8  and  C_10
REMARK    4  A    between atoms: N_19  and  C_20
REMARK    5  A    between atoms: C_20  and  C_22
REMARK    6  A    between atoms: C_20  and  C_23
REMARK    7  A    between atoms: C_23  and  C_25
REMARK    8  A    between atoms: C_23  and  N_57
REMARK                            x       y       z     vdW  Elec       q    Type
REMARK                         _______ _______ _______ _____ _____    ______ ____
ROOT
ATOM      1  C   UNL     1       2.463   3.328  -0.004  0.00  0.00    +0.251 C 
ATOM      2  O   UNL     1       3.680   3.337  -0.016  0.00  0.00    -0.270 OA
ATOM      3  N   UNL     1       1.780   4.490   0.008  0.00  0.00    -0.310 N 
ATOM      4  H   UNL     1       0.810   4.482   0.017  0.00  0.00    +0.149 HD
ENDROOT
BRANCH   1   9
ATOM      5  C   UNL     1       2.689  -2.568  -0.037  0.00  0.00    +0.068 C 
ATOM      6  C   UNL     1       1.427  -1.743  -0.021  0.00  0.00    +0.069 A 
ATOM      7  C   UNL     1       1.371  -0.311  -0.013  0.00  0.00    +0.031 A 
ATOM      8  C   UNL     1       2.246   0.787  -0.015  0.00  0.00    +0.032 A 
ATOM      9  C   UNL     1       1.740   2.053  -0.004  0.00  0.00    +0.076 A 
ATOM     10  S   UNL     1      -0.022   1.770   0.012  0.00  0.00    -0.064 S 
ATOM     11  C   UNL     1       0.002  -0.004   0.002  0.00  0.00    +0.113 A 
ATOM     12  N   UNL     1      -0.698  -1.157   0.003  0.00  0.00    -0.225 N 
ATOM     13  N   UNL     1       0.218  -2.217  -0.012  0.00  0.00    -0.170 NA
BRANCH  12  14
ATOM     14  C   UNL     1      -2.094  -1.274   0.016  0.00  0.00    +0.067 A 
ATOM     15  C   UNL     1      -2.862  -0.358   0.723  0.00  0.00    +0.029 A 
ATOM     16  C   UNL     1      -4.238  -0.473   0.730  0.00  0.00    +0.022 A 
ATOM     17  C   UNL     1      -4.851  -1.506   0.042  0.00  0.00    +0.041 A 
ATOM     18  C   UNL     1      -4.088  -2.423  -0.659  0.00  0.00    +0.022 A 
ATOM     19  C   UNL     1      -2.712  -2.309  -0.673  0.00  0.00    +0.029 A 
ATOM     20 CL   UNL     1      -6.581  -1.651   0.059  0.00  0.00    -0.084 Cl
ENDBRANCH  12  14
ENDBRANCH   1   9
BRANCH   3  21
ATOM     21  C   UNL     1       2.502   5.764   0.007  0.00  0.00    +0.061 C 
ATOM     22  C   UNL     1       2.877   6.139   1.442  0.00  0.00    +0.026 C 
BRANCH  21  23
ATOM     23  C   UNL     1       1.611   6.855  -0.589  0.00  0.00    -0.010 C 
BRANCH  23  28
ATOM     24  C   UNL     1       3.607   8.126  -1.164  0.00  0.00    -0.078 C 
ATOM     25  C   UNL     1       3.911   9.625  -1.410  0.00  0.00    -0.020 C 
ATOM     26  C   UNL     1       2.522  10.207  -1.755  0.00  0.00    -0.020 C 
ATOM     27  C   UNL     1       1.509   9.216  -1.153  0.00  0.00    -0.078 C 
ATOM     28  N   UNL     1       2.299   8.178  -0.491  0.00  0.00    +0.386 N 
ATOM     29  H   UNL     1       2.428   8.418   0.499  0.00  0.00    -0.081 HD
ENDBRANCH  23  28
BRANCH  23  30
ATOM     30  C   UNL     1       0.306   6.905   0.164  0.00  0.00    -0.022 A 
ATOM     31  C   UNL     1      -0.897   6.383  -0.178  0.00  0.00    +0.009 A 
ATOM     32  C   UNL     1      -1.968   6.550   0.679  0.00  0.00    +0.008 A 
ATOM     33  C   UNL     1      -1.786   7.240   1.832  0.00  0.00    +0.045 A 
ATOM     34  S   UNL     1      -0.057   7.673   1.734  0.00  0.00    -0.103 S 
ENDBRANCH  23  30
ENDBRANCH  21  23
ENDBRANCH   3  21
TORSDOF 6
