REMARK  Name = ZINC43406590
REMARK  3 active torsions:
REMARK  status: ('A' for Active; 'I' for Inactive)
REMARK    1  A    between atoms: C_1  and  C_2
REMARK    2  A    between atoms: C_2  and  C_3
REMARK    3  A    between atoms: C_11  and  C_19
REMARK                            x       y       z     vdW  Elec       q    Type
REMARK                         _______ _______ _______ _____ _____    ______ ____
ROOT
ATOM      1  C   UNL     1      -0.620  -2.230  -1.279  0.00  0.00    +0.006 C 
ATOM      2  C   UNL     1      -0.534  -0.710  -1.438  0.00  0.00    +0.006 C 
ATOM      3  C   UNL     1       0.933  -0.274  -1.401  0.00  0.00    +0.019 C 
ATOM      4  C   UNL     1       1.685  -0.925  -2.565  0.00  0.00    +0.106 C 
ATOM      5  N   UNL     1       1.487  -2.379  -2.502  0.00  0.00    -0.314 N 
ATOM      6  C   UNL     1       0.116  -2.904  -2.442  0.00  0.00    +0.110 C 
ATOM      7  C   UNL     1       2.571  -3.239  -2.498  0.00  0.00    +0.132 A 
ATOM      8  C   UNL     1       3.009  -3.815  -3.703  0.00  0.00    +0.052 A 
ATOM      9  C   UNL     1       4.106  -4.680  -3.670  0.00  0.00    +0.020 A 
ATOM     10  C   UNL     1       4.715  -4.932  -2.452  0.00  0.00    -0.025 A 
ATOM     11  C   UNL     1       4.229  -4.329  -1.306  0.00  0.00    +0.047 A 
ATOM     12  N   UNL     1       3.191  -3.510  -1.363  0.00  0.00    -0.236 NA
ATOM     13  C   UNL     1       5.061  -4.762  -0.114  0.00  0.00    +0.056 C 
ATOM     14  C   UNL     1       5.818  -6.021  -0.584  0.00  0.00    +0.011 C 
ATOM     15  C   UNL     1       5.901  -5.809  -2.111  0.00  0.00    +0.037 C 
ENDROOT
BRANCH   8  16
ATOM     16  C   UNL     1       2.324  -3.513  -4.975  0.00  0.00    +0.098 C 
ATOM     17  N   UNL     1       2.201  -2.250  -5.383  0.00  0.00    -0.387 N 
ATOM     18  N   UNL     1       1.829  -4.504  -5.716  0.00  0.00    -0.344 N 
ATOM     19  H   UNL     1       1.685  -2.045  -6.177  0.00  0.00    +0.157 HD
ATOM     20  H   UNL     1       1.918  -5.423  -5.420  0.00  0.00    +0.144 HD
ATOM     21  H   UNL     1       1.379  -4.306  -6.553  0.00  0.00    +0.144 HD
ATOM     22  H   UNL     1       2.629  -1.536  -4.884  0.00  0.00    +0.157 HD
ENDBRANCH   8  16
BRANCH   1  24
ATOM     23  C   UNL     1      -2.792  -2.087  -0.054  0.00  0.00    +0.004 C 
ATOM     24  C   UNL     1      -2.087  -2.662  -1.284  0.00  0.00    +0.002 C 
ENDBRANCH   1  24
TORSDOF 2
