REMARK  Name = ZINC09310130
REMARK  8 active torsions:
REMARK  status: ('A' for Active; 'I' for Inactive)
REMARK    1  A    between atoms: C_1  and  C_2
REMARK    2  A    between atoms: C_2  and  C_3
REMARK    3  A    between atoms: C_2  and  C_4
REMARK    4  A    between atoms: C_7  and  N_10
REMARK    5  A    between atoms: C_13  and  C_14
REMARK    6  A    between atoms: N_15  and  C_16
REMARK    7  A    between atoms: C_21  and  C_22
REMARK    8  A    between atoms: C_21  and  N_63
REMARK                            x       y       z     vdW  Elec       q    Type
REMARK                         _______ _______ _______ _____ _____    ______ ____
ROOT
ATOM      1  N   UNL     1       2.829  -3.387   9.286  0.00  0.00    -0.193 N 
ATOM      2  C   UNL     1       2.850  -2.420   8.347  0.00  0.00    +0.245 C 
ATOM      3  O   UNL     1       3.821  -1.699   8.213  0.00  0.00    -0.274 OA
ATOM      4  C   UNL     1       1.665  -2.258   7.486  0.00  0.00    +0.202 C 
ATOM      5  C   UNL     1       0.533  -3.172   7.724  0.00  0.00    +0.238 C 
ATOM      6  O   UNL     1      -0.482  -3.096   7.058  0.00  0.00    -0.274 OA
ATOM      7  N   UNL     1       0.655  -4.097   8.698  0.00  0.00    -0.238 N 
ATOM      8  C   UNL     1       1.765  -4.187   9.444  0.00  0.00    +0.319 C 
ATOM      9  O   UNL     1       1.809  -5.039  10.310  0.00  0.00    -0.251 OA
ATOM     10  H   UNL     1      -0.079  -4.709   8.865  0.00  0.00    +0.159 HD
ENDROOT
BRANCH   1  14
ATOM     11  C   UNL     1       6.146  -3.898  11.757  0.00  0.00    -0.045 A 
ATOM     12  C   UNL     1       5.189  -2.952  12.074  0.00  0.00    +0.006 A 
ATOM     13  C   UNL     1       4.089  -2.780  11.257  0.00  0.00    +0.024 A 
ATOM     14  C   UNL     1       3.944  -3.559  10.117  0.00  0.00    +0.045 A 
ATOM     15  C   UNL     1       4.904  -4.513   9.805  0.00  0.00    +0.024 A 
ATOM     16  C   UNL     1       6.005  -4.676  10.623  0.00  0.00    +0.006 A 
BRANCH  11  18
ATOM     17  C   UNL     1       7.372  -5.519  13.180  0.00  0.00    +0.012 C 
ATOM     18  C   UNL     1       7.346  -4.083  12.650  0.00  0.00    +0.013 C 
ATOM     19  C   UNL     1       8.623  -3.811  11.852  0.00  0.00    +0.012 C 
ENDBRANCH  11  18
ENDBRANCH   1  14
BRANCH   4  20
ATOM     20  C   UNL     1       1.615  -1.289   6.501  0.00  0.00    +0.100 C 
ATOM     21  N   UNL     1       0.525  -1.183   5.715  0.00  0.00    -0.291 NA
BRANCH  21  22
ATOM     22  C   UNL     1       0.418  -0.081   4.755  0.00  0.00    +0.101 C 
ATOM     23  C   UNL     1      -0.512  -0.488   3.609  0.00  0.00    +0.008 C 
ATOM     24  C   UNL     1      -0.666   0.688   2.642  0.00  0.00    -0.076 C 
ATOM     25  C   UNL     1      -0.322   2.282   4.434  0.00  0.00    -0.076 C 
ATOM     26  C   UNL     1      -0.157   1.154   5.455  0.00  0.00    +0.008 C 
ATOM     27  N   UNL     1      -1.247   1.835   3.370  0.00  0.00    +0.382 N 
ATOM     28  H   UNL     1      -2.132   1.543   3.800  0.00  0.00    -0.081 HD
BRANCH  27  29
ATOM     29  C   UNL     1      -1.512   2.946   2.433  0.00  0.00    -0.043 C 
BRANCH  29  30
ATOM     30  C   UNL     1      -2.298   4.011   3.153  0.00  0.00    -0.064 A 
ATOM     31  C   UNL     1      -3.680   3.965   3.158  0.00  0.00    +0.002 A 
ATOM     32  C   UNL     1      -4.401   4.939   3.822  0.00  0.00    +0.000 A 
ATOM     33  C   UNL     1      -3.741   5.966   4.472  0.00  0.00    +0.000 A 
ATOM     34  C   UNL     1      -2.360   6.015   4.462  0.00  0.00    +0.000 A 
ATOM     35  C   UNL     1      -1.638   5.038   3.802  0.00  0.00    +0.002 A 
ENDBRANCH  29  30
ENDBRANCH  27  29
ENDBRANCH  21  22
ENDBRANCH   4  20
TORSDOF 6
