REMARK  Name = ZINC11121065
REMARK  11 active torsions:
REMARK  status: ('A' for Active; 'I' for Inactive)
REMARK    1  A    between atoms: C_1  and  C_2
REMARK    2  A    between atoms: C_2  and  C_3
REMARK    3  A    between atoms: C_2  and  C_4
REMARK    4  A    between atoms: C_2  and  N_5
REMARK    5  A    between atoms: C_6  and  C_8
REMARK    6  A    between atoms: C_8  and  N_66
REMARK    7  A    between atoms: C_14  and  C_16
REMARK    8  A    between atoms: C_16  and  S_17
REMARK    9  A    between atoms: S_17  and  C_18
REMARK   10  A    between atoms: N_28  and  C_29
REMARK   11  A    between atoms: C_29  and  C_30
REMARK                            x       y       z     vdW  Elec       q    Type
REMARK                         _______ _______ _______ _____ _____    ______ ____
ROOT
ATOM      1  C   UNL     1      -3.800  -1.496   0.030  0.00  0.00    +0.173 C 
ENDROOT
BRANCH   1   7
ATOM      2  C   UNL     1      -8.405  -0.904  -1.056  0.00  0.00    -0.059 C 
ATOM      3  C   UNL     1      -7.639  -1.613   0.066  0.00  0.00    +0.089 C 
ATOM      4  N   UNL     1      -6.248  -1.137   0.055  0.00  0.00    -0.304 N 
ATOM      5  C   UNL     1      -6.009   0.315   0.066  0.00  0.00    +0.089 C 
ATOM      6  C   UNL     1      -6.839   0.948  -1.061  0.00  0.00    -0.059 C 
ATOM      7  C   UNL     1      -5.218  -2.007   0.041  0.00  0.00    +0.226 C 
ATOM      8  O   UNL     1      -5.434  -3.200   0.037  0.00  0.00    -0.275 OA
ATOM      9  N   UNL     1      -8.255   0.558  -0.883  0.00  0.00    +0.387 N 
ATOM     10  H   UNL     1      -8.553   0.813   0.066  0.00  0.00    -0.081 HD
BRANCH   9  11
ATOM     11  C   UNL     1      -9.102   1.271  -1.861  0.00  0.00    +0.019 C 
BRANCH  11  13
ATOM     12  N   UNL     1      -9.822   3.603  -2.266  0.00  0.00    -0.312 N 
ATOM     13  C   UNL     1      -9.100   2.740  -1.524  0.00  0.00    +0.197 C 
ATOM     14  O   UNL     1      -8.450   3.146  -0.584  0.00  0.00    -0.278 OA
ATOM     15  H   UNL     1     -10.342   3.278  -3.018  0.00  0.00    +0.149 HD
BRANCH  12  17
ATOM     16  C   UNL     1      -8.392   5.572  -2.026  0.00  0.00    +0.031 C 
ATOM     17  C   UNL     1      -9.820   5.030  -1.938  0.00  0.00    +0.026 C 
ATOM     18  C   UNL     1     -10.713   5.782  -2.928  0.00  0.00    +0.031 C 
ATOM     19  C   UNL     1     -10.355   5.228  -0.518  0.00  0.00    +0.031 C 
ENDBRANCH  12  17
ENDBRANCH  11  13
ENDBRANCH   9  11
ENDBRANCH   1   7
BRANCH   1  20
ATOM     20  S   UNL     1      -2.655  -2.898   0.013  0.00  0.00    -0.078 S 
BRANCH  20  21
ATOM     21  C   UNL     1      -1.118  -2.037   0.003  0.00  0.00    +0.173 A 
ATOM     22  N   UNL     1      -1.136  -0.727   0.009  0.00  0.00    -0.223 NA
ATOM     23  C   UNL     1       0.002  -0.004   0.002  0.00  0.00    +0.079 A 
ATOM     24  C   UNL     1      -0.017   1.394   0.010  0.00  0.00    +0.028 A 
ATOM     25  C   UNL     1       1.161   2.086   0.002  0.00  0.00    +0.002 A 
ATOM     26  C   UNL     1       2.381   1.422  -0.013  0.00  0.00    +0.001 A 
ATOM     27  C   UNL     1       2.432   0.055  -0.021  0.00  0.00    +0.015 A 
ATOM     28  C   UNL     1       1.245  -0.677  -0.013  0.00  0.00    +0.065 A 
ATOM     29  C   UNL     1       1.240  -2.146  -0.021  0.00  0.00    +0.263 A 
ATOM     30  O   UNL     1       2.278  -2.781  -0.035  0.00  0.00    -0.267 OA
ATOM     31  N   UNL     1       0.037  -2.766  -0.012  0.00  0.00    -0.280 N 
BRANCH  31  32
ATOM     32  C   UNL     1      -0.027  -4.229  -0.019  0.00  0.00    +0.201 C 
BRANCH  32  33
ATOM     33  C   UNL     1      -0.063  -4.724  -1.442  0.00  0.00    +0.125 A 
ATOM     34  C   UNL     1       1.008  -5.025  -2.197  0.00  0.00    +0.046 A 
ATOM     35  C   UNL     1       0.518  -5.449  -3.454  0.00  0.00    +0.041 A 
ATOM     36  C   UNL     1      -0.824  -5.373  -3.394  0.00  0.00    +0.195 A 
ATOM     37  O   UNL     1      -1.170  -4.934  -2.173  0.00  0.00    -0.466 OA
ENDBRANCH  32  33
ENDBRANCH  31  32
ENDBRANCH  20  21
ENDBRANCH   1  20
TORSDOF 8
