REMARK  Name = ZINC03097710
REMARK  7 active torsions:
REMARK  status: ('A' for Active; 'I' for Inactive)
REMARK    1  A    between atoms: C_1  and  C_2
REMARK    2  A    between atoms: C_2  and  O_3
REMARK    3  A    between atoms: O_3  and  C_4
REMARK    4  A    between atoms: C_7  and  N_10
REMARK    5  A    between atoms: C_19  and  C_33
REMARK    6  A    between atoms: N_34  and  C_35
REMARK    7  A    between atoms: C_38  and  C_41
REMARK                            x       y       z     vdW  Elec       q    Type
REMARK                         _______ _______ _______ _____ _____    ______ ____
ROOT
ATOM      1  N   UNL     1       0.642  -5.780   2.048  0.00  0.00    -0.210 N 
ATOM      2  C   UNL     1       0.180  -6.641   1.132  0.00  0.00    +0.231 C 
ATOM      3  O   UNL     1      -0.564  -6.362   0.217  0.00  0.00    -0.274 OA
ATOM      4  C   UNL     1       0.736  -8.019   1.422  0.00  0.00    +0.101 C 
ATOM      5  C   UNL     1       1.606  -7.803   2.673  0.00  0.00    +0.109 C 
ATOM      6  C   UNL     1       1.457  -6.325   2.960  0.00  0.00    +0.232 C 
ATOM      7  O   UNL     1       1.989  -5.729   3.872  0.00  0.00    -0.274 OA
ATOM      8  C   UNL     1       1.069  -8.615   3.871  0.00  0.00    +0.068 C 
ATOM      9  C   UNL     1       1.006 -10.055   3.388  0.00  0.00    -0.027 A 
ATOM     10  C   UNL     1       1.649 -11.104   3.981  0.00  0.00    +0.005 A 
ATOM     11  C   UNL     1       1.505 -12.373   3.433  0.00  0.00    +0.000 A 
ATOM     12  C   UNL     1       0.723 -12.566   2.310  0.00  0.00    +0.000 A 
ATOM     13  C   UNL     1       0.071 -11.495   1.713  0.00  0.00    +0.004 A 
ATOM     14  C   UNL     1       0.218 -10.250   2.256  0.00  0.00    -0.035 A 
ATOM     15  C   UNL     1      -0.440  -8.977   1.705  0.00  0.00    +0.062 C 
ATOM     16  C   UNL     1      -1.187  -8.365   2.880  0.00  0.00    -0.035 A 
ATOM     17  C   UNL     1      -0.381  -8.186   4.032  0.00  0.00    -0.027 A 
ATOM     18  C   UNL     1      -0.914  -7.651   5.170  0.00  0.00    +0.005 A 
ATOM     19  C   UNL     1      -2.259  -7.301   5.179  0.00  0.00    +0.000 A 
ATOM     20  C   UNL     1      -3.040  -7.494   4.055  0.00  0.00    +0.000 A 
ATOM     21  C   UNL     1      -2.507  -8.016   2.867  0.00  0.00    +0.004 A 
ENDROOT
BRANCH   1  25
ATOM     22  C   UNL     1      -0.364  -1.731   2.048  0.00  0.00    +0.121 A 
ATOM     23  C   UNL     1       0.942  -2.121   1.788  0.00  0.00    +0.047 A 
ATOM     24  C   UNL     1       1.275  -3.461   1.788  0.00  0.00    +0.027 A 
ATOM     25  C   UNL     1       0.304  -4.418   2.048  0.00  0.00    +0.044 A 
ATOM     26  C   UNL     1      -1.003  -4.027   2.308  0.00  0.00    +0.027 A 
ATOM     27  C   UNL     1      -1.334  -2.686   2.314  0.00  0.00    +0.047 A 
BRANCH  22  28
ATOM     28  O   UNL     1      -0.691  -0.411   2.049  0.00  0.00    -0.492 OA
BRANCH  28  30
ATOM     29  C   UNL     1      -0.198   1.942   1.812  0.00  0.00    +0.048 C 
ATOM     30  C   UNL     1       0.358   0.517   1.767  0.00  0.00    +0.225 C 
ENDBRANCH  28  30
ENDBRANCH  22  28
ENDBRANCH   1  25
BRANCH   8  31
ATOM     31  C   UNL     1       1.884  -8.427   5.124  0.00  0.00    +0.101 C 
ATOM     32  N   UNL     1       2.979  -7.745   5.086  0.00  0.00    -0.259 NA
BRANCH  32  33
ATOM     33  C   UNL     1       3.721  -7.573   6.229  0.00  0.00    +0.064 A 
ATOM     34  C   UNL     1       3.093  -7.240   7.428  0.00  0.00    +0.028 A 
ATOM     35  C   UNL     1       3.845  -7.069   8.573  0.00  0.00    +0.005 A 
ATOM     36  C   UNL     1       5.218  -7.227   8.532  0.00  0.00    -0.050 A 
ATOM     37  C   UNL     1       5.847  -7.558   7.345  0.00  0.00    +0.005 A 
ATOM     38  C   UNL     1       5.106  -7.738   6.195  0.00  0.00    +0.028 A 
ATOM     39  C   UNL     1       6.033  -7.039   9.786  0.00  0.00    +0.044 C 
ENDBRANCH  32  33
ENDBRANCH   8  31
TORSDOF 5
