REMARK  Name = ZINC04908103
REMARK  3 active torsions:
REMARK  status: ('A' for Active; 'I' for Inactive)
REMARK    1  A    between atoms: C_1  and  C_2
REMARK    2  A    between atoms: C_5  and  N_9
REMARK    3  A    between atoms: C_16  and  C_25
REMARK                            x       y       z     vdW  Elec       q    Type
REMARK                         _______ _______ _______ _____ _____    ______ ____
ROOT
ATOM      1  N   UNL     1       0.072  -0.112   0.103  0.00  0.00    -0.216 N 
ATOM      2  C   UNL     1      -0.003   1.151  -0.344  0.00  0.00    +0.310 C 
ATOM      3  O   UNL     1      -1.095   1.612  -0.616  0.00  0.00    -0.252 OA
ATOM      4  N   UNL     1       1.085   1.923  -0.506  0.00  0.00    -0.292 N 
ATOM      5  C   UNL     1       2.423   1.360  -0.262  0.00  0.00    +0.114 C 
ATOM      6  C   UNL     1       2.312   0.402   0.935  0.00  0.00    +0.096 C 
ATOM      7  C   UNL     1       1.335  -0.710   0.527  0.00  0.00    +0.185 C 
ATOM      8  O   UNL     1       1.919  -1.466  -0.531  0.00  0.00    -0.468 OA
ATOM      9  C   UNL     1       2.521  -0.803  -1.552  0.00  0.00    +0.128 A 
ATOM     10  C   UNL     1       2.801   0.550  -1.482  0.00  0.00    +0.016 A 
ATOM     11  C   UNL     1       3.427   1.186  -2.539  0.00  0.00    +0.029 A 
ATOM     12  C   UNL     1       3.767   0.473  -3.675  0.00  0.00    +0.042 A 
ATOM     13  C   UNL     1       3.481  -0.878  -3.753  0.00  0.00    +0.023 A 
ATOM     14  C   UNL     1       2.861  -1.515  -2.698  0.00  0.00    +0.047 A 
ATOM     15 CL   UNL     1       4.552   1.274  -5.001  0.00  0.00    -0.084 Cl
ATOM     16  C   UNL     1       1.087  -1.625   1.727  0.00  0.00    +0.079 C 
ATOM     17  H   UNL     1       0.988   2.847  -0.783  0.00  0.00    +0.151 HD
ENDROOT
BRANCH   1  22
ATOM     18  C   UNL     1      -4.665  -3.225   0.359  0.00  0.00    +0.045 C 
ATOM     19  C   UNL     1      -3.407  -2.398   0.291  0.00  0.00    -0.032 A 
ATOM     20  C   UNL     1      -3.075  -1.558   1.338  0.00  0.00    +0.006 A 
ATOM     21  C   UNL     1      -1.923  -0.800   1.279  0.00  0.00    +0.024 A 
ATOM     22  C   UNL     1      -1.096  -0.880   0.166  0.00  0.00    +0.043 A 
ATOM     23  C   UNL     1      -1.434  -1.719  -0.888  0.00  0.00    +0.044 A 
ATOM     24  C   UNL     1      -2.586  -2.481  -0.820  0.00  0.00    +0.046 A 
ATOM     25 CL   UNL     1      -3.006  -3.536  -2.133  0.00  0.00    -0.083 Cl
ENDBRANCH   1  22
TORSDOF 1
