REMARK  Name = ZINC04668302
REMARK  9 active torsions:
REMARK  status: ('A' for Active; 'I' for Inactive)
REMARK    1  A    between atoms: C_1  and  C_2
REMARK    2  A    between atoms: C_5  and  N_9
REMARK    3  A    between atoms: C_6  and  C_8
REMARK    4  A    between atoms: N_9  and  C_10
REMARK    5  A    between atoms: C_10  and  N_12
REMARK    6  A    between atoms: C_15  and  N_61
REMARK    7  A    between atoms: C_18  and  N_61
REMARK    8  A    between atoms: C_19  and  N_61
REMARK    9  A    between atoms: C_25  and  C_27
REMARK                            x       y       z     vdW  Elec       q    Type
REMARK                         _______ _______ _______ _____ _____    ______ ____
ROOT
ATOM      1  N   UNL     1       1.298   1.291  -2.501  0.00  0.00    -0.313 N 
ATOM      2  C   UNL     1       2.000   0.693  -1.357  0.00  0.00    +0.105 C 
ATOM      3  C   UNL     1       1.420   1.275  -0.064  0.00  0.00    +0.004 C 
ATOM      4  C   UNL     1      -0.096   1.068  -0.050  0.00  0.00    -0.066 C 
ATOM      5  C   UNL     1      -0.724   1.804  -1.235  0.00  0.00    +0.004 C 
ATOM      6  C   UNL     1      -0.169   1.228  -2.542  0.00  0.00    +0.105 C 
ENDROOT
BRANCH   4   8
ATOM      7  C   UNL     1      -0.448   3.048   1.299  0.00  0.00    -0.095 C 
ATOM      8  N   UNL     1      -0.637   1.583   1.225  0.00  0.00    +0.382 N 
ATOM      9  H   UNL     1      -0.133   1.143   2.004  0.00  0.00    -0.081 HD
BRANCH   8  10
ATOM     10  C   UNL     1      -2.073   1.253   1.335  0.00  0.00    -0.066 C 
ATOM     11  C   UNL     1      -2.642   1.910   2.595  0.00  0.00    -0.015 C 
ATOM     12  C   UNL     1      -4.123   1.554   2.732  0.00  0.00    -0.002 C 
ATOM     13  C   UNL     1      -4.274   0.035   2.837  0.00  0.00    +0.000 C 
ATOM     14  C   UNL     1      -3.706  -0.622   1.577  0.00  0.00    +0.002 C 
ATOM     15  C   UNL     1      -2.224  -0.266   1.440  0.00  0.00    -0.028 C 
ATOM     16  C   UNL     1      -1.462  -0.771   2.667  0.00  0.00    +0.006 C 
ENDBRANCH   8  10
ENDBRANCH   4   8
BRANCH   1  17
ATOM     17  C   UNL     1       1.988   1.887  -3.494  0.00  0.00    +0.137 C 
ATOM     18  S   UNL     1       3.699   1.829  -3.502  0.00  0.00    -0.018 S 
BRANCH  17  19
ATOM     19  N   UNL     1       1.331   2.527  -4.481  0.00  0.00    -0.297 N 
ATOM     20  H   UNL     1       0.366   2.621  -4.440  0.00  0.00    +0.154 HD
BRANCH  19  25
ATOM     21  C   UNL     1       4.204   4.677  -8.875  0.00  0.00    +0.044 C 
ATOM     22  C   UNL     1       3.441   4.105  -7.707  0.00  0.00    -0.050 A 
ATOM     23  C   UNL     1       3.886   4.327  -6.417  0.00  0.00    +0.005 A 
ATOM     24  C   UNL     1       3.186   3.810  -5.345  0.00  0.00    +0.024 A 
ATOM     25  C   UNL     1       2.039   3.057  -5.564  0.00  0.00    +0.036 A 
ATOM     26  C   UNL     1       1.595   2.836  -6.862  0.00  0.00    -0.029 A 
ATOM     27  C   UNL     1       2.297   3.361  -7.929  0.00  0.00    +0.008 A 
ATOM     28  C   UNL     1       0.349   2.024  -7.104  0.00  0.00    +0.045 C 
ENDBRANCH  19  25
ENDBRANCH  17  19
ENDBRANCH   1  17
TORSDOF 5
