REMARK  Name = ZINC08123382
REMARK  6 active torsions:
REMARK  status: ('A' for Active; 'I' for Inactive)
REMARK    1  A    between atoms: C_1  and  C_2
REMARK    2  A    between atoms: C_2  and  C_3
REMARK    3  A    between atoms: C_4  and  C_21
REMARK    4  A    between atoms: C_6  and  C_8
REMARK    5  A    between atoms: N_10  and  N_11
REMARK    6  A    between atoms: C_12  and  C_14
REMARK                            x       y       z     vdW  Elec       q    Type
REMARK                         _______ _______ _______ _____ _____    ______ ____
ROOT
ATOM      1  C   UNL     1       1.670  -1.769  -4.993  0.00  0.00    +0.267 C 
ATOM      2  O   UNL     1       2.769  -2.076  -5.415  0.00  0.00    -0.268 OA
ATOM      3  N   UNL     1       0.595  -1.834  -5.803  0.00  0.00    -0.230 N 
ATOM      4  H   UNL     1      -0.281  -1.589  -5.466  0.00  0.00    +0.173 HD
ENDROOT
BRANCH   1   8
ATOM      5  C   UNL     1       0.707  -0.490  -1.238  0.00  0.00    -0.007 A 
ATOM      6  C   UNL     1       2.028  -0.754  -1.395  0.00  0.00    -0.040 A 
ATOM      7  C   UNL     1       2.480  -1.193  -2.617  0.00  0.00    +0.024 A 
ATOM      8  C   UNL     1       1.515  -1.329  -3.603  0.00  0.00    +0.076 A 
ATOM      9  S   UNL     1       0.036  -0.836  -2.739  0.00  0.00    -0.088 S 
ATOM     10  C   UNL     1       2.987  -0.569  -0.248  0.00  0.00    +0.044 C 
BRANCH   5  12
ATOM     11  C   UNL     1      -0.019   1.526   0.010  0.00  0.00    +0.009 C 
ATOM     12  C   UNL     1       0.002  -0.004   0.002  0.00  0.00    +0.039 C 
ENDBRANCH   5  12
ENDBRANCH   1   8
BRANCH   3  13
ATOM     13  N   UNL     1       0.743  -2.255  -7.131  0.00  0.00    -0.229 N 
ATOM     14  C   UNL     1      -0.333  -2.320  -7.941  0.00  0.00    +0.276 C 
ATOM     15  O   UNL     1      -1.432  -2.013  -7.519  0.00  0.00    -0.267 OA
ATOM     16  H   UNL     1       1.619  -2.499  -7.468  0.00  0.00    +0.173 HD
BRANCH  14  17
ATOM     17  C   UNL     1      -0.178  -2.760  -9.331  0.00  0.00    +0.104 A 
ATOM     18  C   UNL     1      -1.183  -2.868 -10.268  0.00  0.00    +0.047 A 
ATOM     19  C   UNL     1      -0.594  -3.321 -11.453  0.00  0.00    +0.036 A 
ATOM     20  C   UNL     1       0.732  -3.479 -11.224  0.00  0.00    +0.098 A 
ATOM     21  N   UNL     1       0.999  -3.135  -9.940  0.00  0.00    -0.356 N 
ATOM     22  H   UNL     1       1.872  -3.153  -9.519  0.00  0.00    +0.166 HD
ATOM     23 BR   UNL     1      -1.489  -3.656 -13.085  0.00  0.00    -0.049 Br
ENDBRANCH  14  17
ENDBRANCH   3  13
TORSDOF 4
