REMARK  Name = ZINC20080884
REMARK  11 active torsions:
REMARK  status: ('A' for Active; 'I' for Inactive)
REMARK    1  A    between atoms: C_1  and  C_2
REMARK    2  A    between atoms: C_2  and  C_3
REMARK    3  A    between atoms: C_3  and  C_4
REMARK    4  A    between atoms: C_3  and  C_5
REMARK    5  A    between atoms: C_3  and  N_6
REMARK    6  A    between atoms: C_7  and  C_11
REMARK    7  A    between atoms: C_11  and  C_13
REMARK    8  A    between atoms: C_11  and  N_28
REMARK    9  A    between atoms: N_31  and  C_34
REMARK   10  A    between atoms: C_38  and  C_41
REMARK   11  A    between atoms: C_39  and  C_40
REMARK                            x       y       z     vdW  Elec       q    Type
REMARK                         _______ _______ _______ _____ _____    ______ ____
ROOT
ATOM      1  C   UNL     1       3.624   0.565   0.317  0.00  0.00    +0.162 C 
ENDROOT
BRANCH   1   2
ATOM      2  C   UNL     1       3.843   0.430   1.802  0.00  0.00    +0.042 A 
ATOM      3  C   UNL     1       4.355   1.470   2.507  0.00  0.00    +0.021 A 
ATOM      4  C   UNL     1       4.555   1.308   3.947  0.00  0.00    +0.003 A 
ATOM      5  C   UNL     1       5.078   2.348   4.726  0.00  0.00    +0.059 A 
ATOM      6  C   UNL     1       5.255   2.165   6.079  0.00  0.00    +0.167 A 
ATOM      7  C   UNL     1       4.914   0.945   6.677  0.00  0.00    +0.168 A 
ATOM      8  C   UNL     1       4.397  -0.087   5.916  0.00  0.00    +0.075 A 
ATOM      9  C   UNL     1       4.212   0.082   4.550  0.00  0.00    +0.053 A 
ATOM     10  N   UNL     1       3.696  -0.937   3.775  0.00  0.00    -0.322 N 
ATOM     11  H   UNL     1       3.431  -1.899   4.237  0.00  0.00    +0.169 HD
ATOM     12  C   UNL     1       3.510  -0.775   2.453  0.00  0.00    +0.254 A 
ATOM     13  O   UNL     1       3.047  -1.695   1.801  0.00  0.00    -0.268 OA
ATOM     14  O   UNL     1       5.184   1.028   8.012  0.00  0.00    -0.453 OA
ATOM     15  C   UNL     1       5.304   2.434   8.296  0.00  0.00    +0.466 C 
ATOM     16  O   UNL     1       5.736   3.002   7.045  0.00  0.00    -0.453 OA
ENDBRANCH   1   2
BRANCH   1  17
ATOM     17  N   UNL     1       4.334  -0.513  -0.383  0.00  0.00    -0.286 NA
ATOM     18  C   UNL     1       5.757  -0.530  -0.019  0.00  0.00    +0.104 C 
ATOM     19  C   UNL     1       6.443  -1.714  -0.706  0.00  0.00    +0.120 C 
ATOM     20  N   UNL     1       6.277  -1.596  -2.161  0.00  0.00    -0.327 N 
ATOM     21  C   UNL     1       4.853  -1.579  -2.525  0.00  0.00    +0.120 C 
ATOM     22  C   UNL     1       4.167  -0.396  -1.839  0.00  0.00    +0.104 C 
BRANCH  20  23
ATOM     23  C   UNL     1       6.952  -2.622  -2.827  0.00  0.00    +0.033 A 
ATOM     24  C   UNL     1       6.567  -3.943  -2.641  0.00  0.00    +0.023 A 
ATOM     25  C   UNL     1       7.236  -4.955  -3.301  0.00  0.00    +0.002 A 
ATOM     26  C   UNL     1       8.289  -4.653  -4.146  0.00  0.00    +0.004 A 
ATOM     27  C   UNL     1       8.674  -3.339  -4.333  0.00  0.00    -0.046 A 
ATOM     28  C   UNL     1       8.005  -2.322  -3.680  0.00  0.00    -0.027 A 
ATOM     29  C   UNL     1       8.422  -0.889  -3.889  0.00  0.00    +0.046 C 
ATOM     30  C   UNL     1       9.822  -3.015  -5.255  0.00  0.00    +0.044 C 
ENDBRANCH  20  23
ENDBRANCH   1  17
BRANCH   1  32
ATOM     31  N   UNL     1       1.357   1.468  -0.426  0.00  0.00    -0.222 N 
ATOM     32  C   UNL     1       2.150   0.475   0.016  0.00  0.00    +0.174 A 
ATOM     33  N   UNL     1       1.391  -0.588   0.134  0.00  0.00    -0.111 NA
ATOM     34  N   UNL     1       0.195  -0.263  -0.218  0.00  0.00    -0.023 NA
ATOM     35  N   UNL     1       0.171   0.979  -0.556  0.00  0.00    -0.043 NA
BRANCH  31  36
ATOM     36  C   UNL     1       1.765   2.847  -0.706  0.00  0.00    +0.062 C 
ATOM     37  C   UNL     1       2.404   3.455   0.544  0.00  0.00    +0.036 C 
ATOM     38  C   UNL     1       2.779   2.856  -1.852  0.00  0.00    +0.036 C 
BRANCH  36  40
ATOM     39  C   UNL     1       0.965   5.111  -1.397  0.00  0.00    +0.006 C 
ATOM     40  C   UNL     1       0.539   3.671  -1.104  0.00  0.00    +0.026 C 
ENDBRANCH  36  40
ENDBRANCH  31  36
ENDBRANCH   1  32
TORSDOF 6
