REMARK  Name = ZINC16545279
REMARK  3 active torsions:
REMARK  status: ('A' for Active; 'I' for Inactive)
REMARK    1  A    between atoms: C_8  and  S_10
REMARK    2  A    between atoms: S_10  and  C_11
REMARK    3  A    between atoms: N_21  and  O_22
REMARK                            x       y       z     vdW  Elec       q    Type
REMARK                         _______ _______ _______ _____ _____    ______ ____
ROOT
ATOM      1  S   UNL     1       1.550   4.398  -0.765  0.00  0.00    -0.057 S 
ENDROOT
BRANCH   1   9
ATOM      2  C   UNL     1       7.649   3.030  -0.494  0.00  0.00    +0.002 A 
ATOM      3  C   UNL     1       7.758   4.006  -1.472  0.00  0.00    +0.004 A 
ATOM      4  C   UNL     1       6.636   4.669  -1.927  0.00  0.00    +0.048 A 
ATOM      5  C   UNL     1       5.391   4.359  -1.403  0.00  0.00    +0.156 A 
ATOM      6  C   UNL     1       5.277   3.372  -0.413  0.00  0.00    +0.110 A 
ATOM      7  C   UNL     1       6.419   2.709   0.037  0.00  0.00    +0.031 A 
ATOM      8  N   UNL     1       3.956   3.291  -0.094  0.00  0.00    -0.203 NA
ATOM      9  C   UNL     1       3.293   4.149  -0.828  0.00  0.00    +0.259 A 
ATOM     10  O   UNL     1       4.139   4.817  -1.633  0.00  0.00    -0.431 OA
ENDBRANCH   1   9
BRANCH   1  11
ATOM     11  C   UNL     1       1.105   3.187   0.504  0.00  0.00    +0.107 C 
ATOM     12  C   UNL     1      -0.427   3.239   0.791  0.00  0.00    +0.009 C 
ATOM     13  C   UNL     1      -1.085   3.204  -0.623  0.00  0.00    +0.005 C 
ATOM     14  C   UNL     1      -0.798   1.762  -1.157  0.00  0.00    +0.010 C 
ATOM     15  C   UNL     1      -0.013   1.086   0.008  0.00  0.00    +0.038 C 
ATOM     16  C   UNL     1      -0.673   1.761   1.261  0.00  0.00    +0.014 C 
ATOM     17  C   UNL     1       1.360   1.774  -0.001  0.00  0.00    +0.074 C 
ATOM     18  N   UNL     1       2.479   1.267  -0.358  0.00  0.00    -0.095 NA
BRANCH  18  19
ATOM     19  O   UNL     1       2.538  -0.075  -0.807  0.00  0.00    -0.409 OA
ATOM     20  H   UNL     1       3.426  -0.368  -1.054  0.00  0.00    +0.328 HD
ENDBRANCH  18  19
ENDBRANCH   1  11
TORSDOF 3
