REMARK  Name = ZINC44636479
REMARK  9 active torsions:
REMARK  status: ('A' for Active; 'I' for Inactive)
REMARK    1  A    between atoms: C_1  and  C_2
REMARK    2  A    between atoms: C_2  and  C_3
REMARK    3  A    between atoms: C_8  and  N_9
REMARK    4  A    between atoms: C_10  and  C_12
REMARK    5  A    between atoms: C_12  and  C_14
REMARK    6  A    between atoms: C_12  and  S_15
REMARK    7  A    between atoms: S_15  and  C_18
REMARK    8  A    between atoms: C_18  and  C_19
REMARK    9  A    between atoms: C_20  and  C_21
REMARK                            x       y       z     vdW  Elec       q    Type
REMARK                         _______ _______ _______ _____ _____    ______ ____
ROOT
ATOM      1  C   UNL     1      -1.451  -0.272  -4.864  0.00  0.00    +0.213 C 
ATOM      2  C   UNL     1      -0.615  -1.492  -5.257  0.00  0.00    +0.042 C 
ENDROOT
BRANCH   1   4
ATOM      3  N   UNL     1      -1.505  -0.315  -2.391  0.00  0.00    -0.284 N 
ATOM      4  C   UNL     1      -2.147  -0.541  -3.555  0.00  0.00    +0.241 C 
ATOM      5  O   UNL     1      -3.285  -0.961  -3.548  0.00  0.00    -0.273 OA
ATOM      6  H   UNL     1      -0.620   0.082  -2.395  0.00  0.00    +0.155 HD
BRANCH   3  12
ATOM      7  C   UNL     1      -1.349  -1.119  -0.119  0.00  0.00    -0.026 A 
ATOM      8  C   UNL     1      -1.954  -1.445   1.079  0.00  0.00    +0.005 A 
ATOM      9  C   UNL     1      -3.322  -1.313   1.222  0.00  0.00    +0.000 A 
ATOM     10  C   UNL     1      -4.090  -0.854   0.168  0.00  0.00    +0.002 A 
ATOM     11  C   UNL     1      -3.491  -0.525  -1.033  0.00  0.00    +0.023 A 
ATOM     12  C   UNL     1      -2.116  -0.652  -1.178  0.00  0.00    +0.037 A 
BRANCH   7  14
ATOM     13  C   UNL     1       0.819   0.078   0.019  0.00  0.00    +0.009 C 
ATOM     14  C   UNL     1       0.143  -1.263  -0.275  0.00  0.00    +0.033 C 
ENDBRANCH   7  14
ENDBRANCH   3  12
ENDBRANCH   1   4
BRANCH   1  15
ATOM     15  S   UNL     1      -2.687   0.054  -6.151  0.00  0.00    -0.017 S 
ATOM     16  O   UNL     1      -3.518  -1.092  -6.276  0.00  0.00    -0.173 OA
ATOM     17  O   UNL     1      -3.286   1.316  -5.890  0.00  0.00    -0.173 OA
BRANCH  15  18
ATOM     18  C   UNL     1      -1.677   0.196  -7.650  0.00  0.00    +0.194 C 
BRANCH  18  19
ATOM     19  C   UNL     1      -2.570   0.472  -8.833  0.00  0.00    -0.004 C 
ATOM     20  C   UNL     1      -2.475   1.625  -9.480  0.00  0.00    +0.005 C 
BRANCH  20  21
ATOM     21  C   UNL     1      -3.350   1.896 -10.640  0.00  0.00    -0.025 A 
ATOM     22  C   UNL     1      -4.281   0.942 -11.053  0.00  0.00    +0.008 A 
ATOM     23  C   UNL     1      -5.096   1.201 -12.136  0.00  0.00    +0.001 A 
ATOM     24  C   UNL     1      -4.990   2.403 -12.813  0.00  0.00    +0.000 A 
ATOM     25  C   UNL     1      -4.069   3.353 -12.409  0.00  0.00    +0.001 A 
ATOM     26  C   UNL     1      -3.253   3.109 -11.323  0.00  0.00    +0.008 A 
ENDBRANCH  20  21
ENDBRANCH  18  19
ENDBRANCH  15  18
ENDBRANCH   1  15
TORSDOF 7
