REMARK  Name = ZINC36599442
REMARK  19 active torsions:
REMARK  status: ('A' for Active; 'I' for Inactive)
REMARK    1  A    between atoms: C_1  and  C_2
REMARK    2  A    between atoms: C_5  and  C_7
REMARK    3  A    between atoms: C_7  and  N_8
REMARK    4  A    between atoms: N_8  and  C_9
REMARK    5  A    between atoms: C_9  and  C_11
REMARK    6  A    between atoms: C_9  and  C_23
REMARK    7  A    between atoms: C_20  and  O_21
REMARK    8  A    between atoms: O_21  and  C_22
REMARK    9  A    between atoms: N_25  and  C_26
REMARK   10  A    between atoms: C_26  and  C_27
REMARK   11  A    between atoms: C_26  and  C_28
REMARK   12  A    between atoms: C_26  and  C_29
REMARK   13  A    between atoms: C_29  and  C_30
REMARK   14  A    between atoms: C_30  and  C_31
REMARK   15  A    between atoms: C_30  and  C_32
REMARK   16  A    between atoms: C_30  and  C_33
REMARK   17  A    between atoms: C_34  and  C_36
REMARK   18  A    between atoms: C_37  and  C_38
REMARK   19  A    between atoms: C_37  and  C_39
REMARK                            x       y       z     vdW  Elec       q    Type
REMARK                         _______ _______ _______ _____ _____    ______ ____
ROOT
ATOM      1  C   UNL     1       2.399  -3.492  -3.173  0.00  0.00    +0.197 C 
ENDROOT
BRANCH   1   2
ATOM      2  C   UNL     1       3.697  -4.231  -2.973  0.00  0.00    +0.031 A 
ATOM      3  C   UNL     1       4.454  -4.026  -1.808  0.00  0.00    -0.009 A 
ATOM      4  C   UNL     1       4.025  -3.136  -0.807  0.00  0.00    +0.009 A 
ATOM      5  C   UNL     1       4.784  -2.963   0.309  0.00  0.00    +0.001 A 
ATOM      6  C   UNL     1       5.982  -3.655   0.477  0.00  0.00    +0.001 A 
ATOM      7  C   UNL     1       6.428  -4.524  -0.470  0.00  0.00    +0.008 A 
ATOM      8  C   UNL     1       5.672  -4.730  -1.637  0.00  0.00    -0.017 A 
ATOM      9  C   UNL     1       6.102  -5.621  -2.636  0.00  0.00    +0.012 A 
ATOM     10  C   UNL     1       5.346  -5.797  -3.753  0.00  0.00    +0.046 A 
ATOM     11  C   UNL     1       4.141  -5.107  -3.921  0.00  0.00    +0.126 A 
BRANCH  11  12
ATOM     12  O   UNL     1       3.405  -5.309  -5.046  0.00  0.00    -0.495 OA
ATOM     13  C   UNL     1       3.866  -6.313  -5.952  0.00  0.00    +0.277 C 
ENDBRANCH  11  12
ENDBRANCH   1   2
BRANCH   1  14
ATOM     14  C   UNL     1       2.398  -2.836  -4.529  0.00  0.00    +0.239 C 
ATOM     15  O   UNL     1       1.534  -3.111  -5.335  0.00  0.00    -0.273 OA
ATOM     16  N   UNL     1       3.357  -1.944  -4.847  0.00  0.00    -0.308 N 
ATOM     17  H   UNL     1       4.047  -1.724  -4.203  0.00  0.00    +0.149 HD
BRANCH  16  18
ATOM     18  C   UNL     1       3.356  -1.306  -6.166  0.00  0.00    +0.030 C 
ATOM     19  C   UNL     1       3.900  -2.287  -7.207  0.00  0.00    +0.031 C 
ATOM     20  C   UNL     1       1.926  -0.907  -6.539  0.00  0.00    +0.031 C 
BRANCH  18  21
ATOM     21  C   UNL     1       4.240  -0.058  -6.130  0.00  0.00    +0.031 C 
BRANCH  21  22
ATOM     22  C   UNL     1       3.951   0.735  -4.854  0.00  0.00    -0.036 C 
ATOM     23  C   UNL     1       4.637   0.057  -3.666  0.00  0.00    +0.010 C 
ATOM     24  C   UNL     1       4.487   2.160  -5.006  0.00  0.00    +0.010 C 
ATOM     25  C   UNL     1       2.441   0.781  -4.613  0.00  0.00    +0.010 C 
ENDBRANCH  21  22
ENDBRANCH  18  21
ENDBRANCH  16  18
ENDBRANCH   1  14
BRANCH   1  26
ATOM     26  N   UNL     1       1.281  -4.435  -3.086  0.00  0.00    -0.275 N 
ATOM     27  C   UNL     1       1.455  -5.632  -2.490  0.00  0.00    +0.241 C 
ATOM     28  O   UNL     1       2.560  -5.968  -2.112  0.00  0.00    -0.271 OA
BRANCH  27  29
ATOM     29  C   UNL     1       0.306  -6.531  -2.298  0.00  0.00    +0.066 C 
ATOM     30  C   UNL     1       0.500  -7.776  -1.871  0.00  0.00    -0.071 C 
ATOM     31  C   UNL     1       1.897  -8.265  -1.587  0.00  0.00    +0.039 C 
ATOM     32  C   UNL     1      -0.676  -8.696  -1.672  0.00  0.00    +0.039 C 
ENDBRANCH  27  29
BRANCH  26  33
ATOM     33  C   UNL     1      -0.024  -4.078  -3.646  0.00  0.00    +0.183 C 
BRANCH  33  38
ATOM     34  C   UNL     1      -0.204  -4.904  -8.619  0.00  0.00    +0.086 C 
ATOM     35  C   UNL     1      -0.289  -5.134  -7.132  0.00  0.00    +0.102 A 
ATOM     36  C   UNL     1      -0.633  -6.288  -6.532  0.00  0.00    +0.045 A 
ATOM     37  C   UNL     1      -0.582  -6.056  -5.139  0.00  0.00    +0.046 A 
ATOM     38  C   UNL     1      -0.211  -4.775  -4.970  0.00  0.00    +0.122 A 
ATOM     39  O   UNL     1      -0.029  -4.222  -6.180  0.00  0.00    -0.463 OA
ENDBRANCH  33  38
ENDBRANCH  26  33
ENDBRANCH   1  26
TORSDOF 10
