REMARK  Name = ZINC00493844
REMARK  4 active torsions:
REMARK  status: ('A' for Active; 'I' for Inactive)
REMARK    1  A    between atoms: C_4  and  C_7
REMARK    2  A    between atoms: C_9  and  C_24
REMARK    3  A    between atoms: C_10  and  N_23
REMARK    4  A    between atoms: C_20  and  C_21
REMARK                            x       y       z     vdW  Elec       q    Type
REMARK                         _______ _______ _______ _____ _____    ______ ____
ROOT
ATOM      1  C   UNL     1       1.304   2.104   0.048  0.00  0.00    +0.106 C 
ATOM      2  C   UNL     1       2.559   1.255   0.031  0.00  0.00    +0.078 C 
ATOM      3  C   UNL     1       2.415  -0.096  -0.022  0.00  0.00    +0.108 C 
ATOM      4  N   UNL     1       1.179  -0.705  -0.061  0.00  0.00    -0.242 N 
ATOM      5  C   UNL     1       0.862  -2.069  -0.117  0.00  0.00    +0.062 A 
ATOM      6  C   UNL     1       1.650  -3.211  -0.150  0.00  0.00    +0.026 A 
ATOM      7  C   UNL     1       1.053  -4.455  -0.205  0.00  0.00    +0.002 A 
ATOM      8  C   UNL     1      -0.327  -4.567  -0.227  0.00  0.00    +0.002 A 
ATOM      9  C   UNL     1      -1.118  -3.435  -0.194  0.00  0.00    +0.025 A 
ATOM     10  C   UNL     1      -0.526  -2.180  -0.139  0.00  0.00    +0.054 A 
ATOM     11  N   UNL     1      -1.047  -0.891  -0.097  0.00  0.00    -0.300 N 
ATOM     12  C   UNL     1       0.002  -0.003  -0.050  0.00  0.00    +0.115 C 
ATOM     13  C   UNL     1      -0.017   1.367   0.002  0.00  0.00    +0.078 C 
ATOM     14  H   UNL     1      -1.988  -0.658  -0.101  0.00  0.00    +0.153 HD
ENDROOT
BRANCH   1  18
ATOM     15  C   UNL     1       1.365   4.485   3.594  0.00  0.00    +0.000 A 
ATOM     16  C   UNL     1       1.479   5.087   2.355  0.00  0.00    +0.000 A 
ATOM     17  C   UNL     1       1.460   4.317   1.207  0.00  0.00    +0.004 A 
ATOM     18  C   UNL     1       1.326   2.944   1.299  0.00  0.00    -0.034 A 
ATOM     19  C   UNL     1       1.206   2.342   2.537  0.00  0.00    +0.004 A 
ATOM     20  C   UNL     1       1.231   3.112   3.685  0.00  0.00    +0.000 A 
ENDBRANCH   1  18
BRANCH   3  21
ATOM     21  N   UNL     1       3.542  -0.883  -0.037  0.00  0.00    -0.345 N 
ATOM     22  H   UNL     1       3.501  -1.783  -0.396  0.00  0.00    +0.144 HD
ATOM     23  H   UNL     1       4.379  -0.538   0.312  0.00  0.00    +0.144 HD
ENDBRANCH   3  21
BRANCH  13  24
ATOM     24  C   UNL     1      -1.256   2.083   0.007  0.00  0.00    +0.099 C 
ATOM     25  N   UNL     1      -2.240   2.651   0.011  0.00  0.00    -0.191 NA
ENDBRANCH  13  24
BRANCH   2  26
ATOM     26  C   UNL     1       3.857   1.857   0.070  0.00  0.00    +0.099 C 
ATOM     27  N   UNL     1       4.888   2.335   0.102  0.00  0.00    -0.191 NA
ENDBRANCH   2  26
TORSDOF 4
