REMARK  Name = ZINC02447069
REMARK  16 active torsions:
REMARK  status: ('A' for Active; 'I' for Inactive)
REMARK    1  A    between atoms: C_1  and  C_2
REMARK    2  A    between atoms: C_2  and  O_3
REMARK    3  A    between atoms: O_3  and  C_4
REMARK    4  A    between atoms: C_7  and  N_10
REMARK    5  A    between atoms: C_11  and  C_29
REMARK    6  A    between atoms: C_14  and  S_15
REMARK    7  A    between atoms: S_15  and  C_16
REMARK    8  A    between atoms: C_16  and  C_17
REMARK    9  A    between atoms: N_19  and  C_20
REMARK   10  A    between atoms: C_22  and  C_28
REMARK   11  A    between atoms: C_25  and  O_26
REMARK   12  A    between atoms: O_26  and  C_27
REMARK   13  A    between atoms: C_32  and  C_35
REMARK   14  A    between atoms: C_35  and  C_36
REMARK   15  A    between atoms: C_35  and  C_37
REMARK   16  A    between atoms: C_35  and  C_38
REMARK                            x       y       z     vdW  Elec       q    Type
REMARK                         _______ _______ _______ _____ _____    ______ ____
ROOT
ATOM      1  N   UNL     1      -3.894   1.543  -0.082  0.00  0.00    -0.270 N 
ATOM      2  C   UNL     1      -2.748   0.779  -0.044  0.00  0.00    +0.169 A 
ATOM      3  N   UNL     1      -3.122  -0.467   0.132  0.00  0.00    -0.128 NA
ATOM      4  N   UNL     1      -4.403  -0.537   0.202  0.00  0.00    -0.122 NA
ATOM      5  C   UNL     1      -4.929   0.661   0.074  0.00  0.00    +0.197 A 
ENDROOT
BRANCH   1   9
ATOM      6  C   UNL     1      -4.157   5.677  -0.575  0.00  0.00    +0.121 A 
ATOM      7  C   UNL     1      -4.615   4.829  -1.573  0.00  0.00    +0.047 A 
ATOM      8  C   UNL     1      -4.528   3.461  -1.410  0.00  0.00    +0.030 A 
ATOM      9  C   UNL     1      -3.982   2.933  -0.247  0.00  0.00    +0.051 A 
ATOM     10  C   UNL     1      -3.530   3.782   0.753  0.00  0.00    +0.030 A 
ATOM     11  C   UNL     1      -3.612   5.150   0.588  0.00  0.00    +0.047 A 
BRANCH   6  12
ATOM     12  O   UNL     1      -4.242   7.024  -0.735  0.00  0.00    -0.492 OA
BRANCH  12  14
ATOM     13  C   UNL     1      -3.930   9.314  -0.027  0.00  0.00    +0.048 C 
ATOM     14  C   UNL     1      -3.752   7.837   0.333  0.00  0.00    +0.225 C 
ENDBRANCH  12  14
ENDBRANCH   6  12
ENDBRANCH   1   9
BRANCH   2  15
ATOM     15  C   UNL     1      -1.360   1.271  -0.172  0.00  0.00    +0.020 A 
ATOM     16  C   UNL     1      -1.111   2.532  -0.717  0.00  0.00    +0.012 A 
ATOM     17  C   UNL     1       0.187   2.987  -0.828  0.00  0.00    +0.005 A 
ATOM     18  C   UNL     1       1.240   2.195  -0.407  0.00  0.00    -0.042 A 
ATOM     19  C   UNL     1       1.000   0.943   0.130  0.00  0.00    +0.005 A 
ATOM     20  C   UNL     1      -0.293   0.475   0.247  0.00  0.00    +0.012 A 
BRANCH  18  21
ATOM     21  C   UNL     1       2.654   2.699  -0.532  0.00  0.00    -0.013 C 
ATOM     22  C   UNL     1       2.811   3.987   0.279  0.00  0.00    +0.015 C 
ATOM     23  C   UNL     1       3.622   1.641   0.001  0.00  0.00    +0.015 C 
ATOM     24  C   UNL     1       2.967   2.981  -2.003  0.00  0.00    +0.015 C 
ENDBRANCH  18  21
ENDBRANCH   2  15
BRANCH   5  25
ATOM     25  S   UNL     1      -6.645   1.058   0.105  0.00  0.00    -0.076 S 
BRANCH  25  26
ATOM     26  C   UNL     1      -7.345  -0.593   0.348  0.00  0.00    +0.173 C 
BRANCH  26  27
ATOM     27  C   UNL     1      -8.848  -0.497   0.406  0.00  0.00    +0.228 C 
ATOM     28  O   UNL     1      -9.392   0.581   0.295  0.00  0.00    -0.275 OA
ATOM     29  N   UNL     1      -9.588  -1.610   0.583  0.00  0.00    -0.282 N 
ATOM     30  H   UNL     1      -9.093  -2.577   0.761  0.00  0.00    +0.155 HD
BRANCH  29  31
ATOM     31  C   UNL     1     -10.986  -1.536   0.540  0.00  0.00    +0.076 A 
ATOM     32  C   UNL     1     -11.637  -0.401   1.000  0.00  0.00    +0.030 A 
ATOM     33  C   UNL     1     -13.017  -0.329   0.952  0.00  0.00    -0.048 A 
ATOM     34  C   UNL     1     -13.751  -1.390   0.454  0.00  0.00    +0.007 A 
ATOM     35  C   UNL     1     -13.109  -2.526  -0.001  0.00  0.00    +0.048 A 
ATOM     36  C   UNL     1     -11.727  -2.605   0.039  0.00  0.00    +0.141 A 
ATOM     37  C   UNL     1     -13.722   0.907   1.448  0.00  0.00    +0.044 C 
BRANCH  36  38
ATOM     38  O   UNL     1     -11.094  -3.722  -0.408  0.00  0.00    -0.493 OA
ATOM     39  C   UNL     1     -11.918  -4.778  -0.908  0.00  0.00    +0.277 C 
ENDBRANCH  36  38
ENDBRANCH  29  31
ENDBRANCH  26  27
ENDBRANCH  25  26
ENDBRANCH   5  25
TORSDOF 10
