REMARK  Name = ZINC65479686
REMARK  9 active torsions:
REMARK  status: ('A' for Active; 'I' for Inactive)
REMARK    1  A    between atoms: C_1  and  C_2
REMARK    2  A    between atoms: C_4  and  C_22
REMARK    3  A    between atoms: C_7  and  N_8
REMARK    4  A    between atoms: N_11  and  C_12
REMARK    5  A    between atoms: C_12  and  C_13
REMARK    6  A    between atoms: C_12  and  C_14
REMARK    7  A    between atoms: C_14  and  C_15
REMARK    8  A    between atoms: C_18  and  O_21
REMARK    9  A    between atoms: N_24  and  C_25
REMARK                            x       y       z     vdW  Elec       q    Type
REMARK                         _______ _______ _______ _____ _____    ______ ____
ROOT
ATOM      1  N   UNL     1       0.025  -0.012   2.413  0.00  0.00    -0.269 N 
ATOM      2  C   UNL     1      -0.632  -0.513   3.478  0.00  0.00    +0.304 C 
ATOM      3  O   UNL     1      -1.150  -1.611   3.411  0.00  0.00    -0.253 OA
ATOM      4  N   UNL     1      -0.716   0.203   4.617  0.00  0.00    -0.296 N 
ATOM      5  H   UNL     1       0.494   0.834   2.487  0.00  0.00    +0.156 HD
ATOM      6  H   UNL     1      -0.302   1.079   4.670  0.00  0.00    +0.151 HD
ENDROOT
BRANCH   1  13
ATOM      7  C   UNL     1      -0.013   1.493   0.004  0.00  0.00    +0.045 C 
ATOM      8  C   UNL     1       0.013  -0.014   0.002  0.00  0.00    -0.028 A 
ATOM      9  C   UNL     1       0.025  -0.699  -1.192  0.00  0.00    +0.018 A 
ATOM     10  C   UNL     1       0.049  -2.096  -1.193  0.00  0.00    +0.037 A 
ATOM     11  C   UNL     1       0.061  -2.793   0.019  0.00  0.00    +0.015 A 
ATOM     12  C   UNL     1       0.049  -2.101   1.208  0.00  0.00    +0.024 A 
ATOM     13  C   UNL     1       0.031  -0.710   1.206  0.00  0.00    +0.038 A 
BRANCH  10  14
ATOM     14  C   UNL     1       0.060  -2.835  -2.471  0.00  0.00    +0.244 C 
ATOM     15  O   UNL     1       0.049  -2.227  -3.524  0.00  0.00    -0.270 OA
ATOM     16  N   UNL     1       0.084  -4.182  -2.470  0.00  0.00    -0.308 N 
ATOM     17  H   UNL     1       0.092  -4.667  -1.630  0.00  0.00    +0.149 HD
BRANCH  16  18
ATOM     18  C   UNL     1       0.096  -4.915  -3.739  0.00  0.00    +0.073 C 
ATOM     19  C   UNL     1      -1.349  -5.157  -4.223  0.00  0.00    +0.022 C 
ATOM     20  C   UNL     1      -1.306  -6.570  -4.856  0.00  0.00    +0.002 C 
ATOM     21  C   UNL     1      -0.350  -7.339  -3.910  0.00  0.00    +0.002 C 
ATOM     22  C   UNL     1       0.731  -6.303  -3.540  0.00  0.00    +0.022 C 
ENDBRANCH  16  18
ENDBRANCH  10  14
ENDBRANCH   1  13
BRANCH   4  23
ATOM     23  C   UNL     1      -1.430  -0.342   5.774  0.00  0.00    +0.076 C 
ATOM     24  C   UNL     1      -2.923  -0.033   5.643  0.00  0.00    +0.028 C 
BRANCH  23  25
ATOM     25  C   UNL     1      -0.887   0.296   7.054  0.00  0.00    +0.057 C 
BRANCH  25  26
ATOM     26  C   UNL     1       0.551  -0.110   7.247  0.00  0.00    -0.045 A 
ATOM     27  C   UNL     1       0.856  -1.256   7.957  0.00  0.00    +0.007 A 
ATOM     28  C   UNL     1       2.174  -1.630   8.135  0.00  0.00    +0.045 A 
ATOM     29  C   UNL     1       3.192  -0.854   7.601  0.00  0.00    +0.117 A 
ATOM     30  C   UNL     1       2.884   0.296   6.888  0.00  0.00    +0.045 A 
ATOM     31  C   UNL     1       1.564   0.662   6.708  0.00  0.00    +0.007 A 
BRANCH  29  32
ATOM     32  O   UNL     1       4.489  -1.220   7.775  0.00  0.00    -0.507 OA
ATOM     33  H   UNL     1       4.832  -1.797   7.079  0.00  0.00    +0.292 HD
ENDBRANCH  29  32
ENDBRANCH  25  26
ENDBRANCH  23  25
ENDBRANCH   4  23
TORSDOF 7
