REMARK  Name = ZINC33936811
REMARK  11 active torsions:
REMARK  status: ('A' for Active; 'I' for Inactive)
REMARK    1  A    between atoms: C_1  and  C_2
REMARK    2  A    between atoms: C_7  and  C_14
REMARK    3  A    between atoms: C_14  and  C_16
REMARK    4  A    between atoms: C_14  and  N_26
REMARK    5  A    between atoms: N_20  and  C_21
REMARK    6  A    between atoms: N_26  and  C_27
REMARK    7  A    between atoms: N_26  and  C_36
REMARK    8  A    between atoms: C_27  and  C_28
REMARK    9  A    between atoms: C_31  and  O_34
REMARK   10  A    between atoms: O_34  and  C_35
REMARK   11  A    between atoms: C_36  and  C_37
REMARK                            x       y       z     vdW  Elec       q    Type
REMARK                         _______ _______ _______ _____ _____    ______ ____
ROOT
ATOM      1  C   UNL     1       0.770  -6.174   0.918  0.00  0.00    +0.163 C 
ENDROOT
BRANCH   1   8
ATOM      2  C   UNL     1       1.215   0.463  -3.483  0.00  0.00    +0.044 C 
ATOM      3  C   UNL     1       1.184  -0.904  -2.849  0.00  0.00    -0.048 A 
ATOM      4  C   UNL     1       1.447  -2.026  -3.623  0.00  0.00    +0.004 A 
ATOM      5  C   UNL     1       1.425  -3.274  -3.068  0.00  0.00    +0.010 A 
ATOM      6  C   UNL     1       1.133  -3.423  -1.708  0.00  0.00    -0.001 A 
ATOM      7  C   UNL     1       1.100  -4.745  -1.081  0.00  0.00    +0.021 A 
ATOM      8  C   UNL     1       0.812  -4.828   0.241  0.00  0.00    +0.042 A 
ATOM      9  C   UNL     1       0.551  -3.659   0.987  0.00  0.00    +0.254 A 
ATOM     10  O   UNL     1       0.294  -3.756   2.174  0.00  0.00    -0.268 OA
ATOM     11  N   UNL     1       0.578  -2.440   0.420  0.00  0.00    -0.322 N 
ATOM     12  H   UNL     1       0.394  -1.656   0.961  0.00  0.00    +0.169 HD
ATOM     13  C   UNL     1       0.865  -2.288  -0.920  0.00  0.00    +0.049 A 
ATOM     14  C   UNL     1       0.899  -1.026  -1.506  0.00  0.00    +0.029 A 
ENDBRANCH   1   8
BRANCH   1  15
ATOM     15  C   UNL     1       1.871  -6.256   1.943  0.00  0.00    +0.173 A 
ATOM     16  N   UNL     1       1.823  -5.825   3.180  0.00  0.00    -0.111 NA
ATOM     17  N   UNL     1       2.958  -6.077   3.734  0.00  0.00    -0.023 NA
ATOM     18  N   UNL     1       3.730  -6.658   2.883  0.00  0.00    -0.044 NA
ATOM     19  N   UNL     1       3.094  -6.791   1.769  0.00  0.00    -0.224 N 
BRANCH  19  20
ATOM     20  C   UNL     1       3.608  -7.406   0.542  0.00  0.00    +0.111 C 
ATOM     21  C   UNL     1       4.080  -8.846   0.831  0.00  0.00    +0.027 C 
ATOM     22  C   UNL     1       5.339  -9.018  -0.056  0.00  0.00    +0.002 C 
ATOM     23  C   UNL     1       6.017  -7.628   0.041  0.00  0.00    +0.002 C 
ATOM     24  C   UNL     1       4.839  -6.632   0.040  0.00  0.00    +0.027 C 
ENDBRANCH  19  20
ENDBRANCH   1  15
BRANCH   1  25
ATOM     25  N   UNL     1      -0.529  -6.349   1.580  0.00  0.00    -0.282 NA
BRANCH  25  26
ATOM     26  C   UNL     1      -0.599  -7.645   2.269  0.00  0.00    +0.120 C 
BRANCH  26  27
ATOM     27  C   UNL     1      -0.453  -8.758   1.263  0.00  0.00    -0.033 A 
ATOM     28  C   UNL     1      -1.570  -9.259   0.622  0.00  0.00    +0.008 A 
ATOM     29  C   UNL     1      -1.439 -10.279  -0.300  0.00  0.00    +0.046 A 
ATOM     30  C   UNL     1      -0.184 -10.800  -0.583  0.00  0.00    +0.120 A 
ATOM     31  C   UNL     1       0.935 -10.295   0.062  0.00  0.00    +0.046 A 
ATOM     32  C   UNL     1       0.799  -9.271   0.980  0.00  0.00    +0.008 A 
BRANCH  30  33
ATOM     33  O   UNL     1      -0.053 -11.804  -1.489  0.00  0.00    -0.495 OA
ATOM     34  C   UNL     1       1.269 -12.292  -1.730  0.00  0.00    +0.277 C 
ENDBRANCH  30  33
ENDBRANCH  26  27
ENDBRANCH  25  26
BRANCH  25  35
ATOM     35  C   UNL     1      -1.633  -6.204   0.621  0.00  0.00    +0.117 C 
BRANCH  35  36
ATOM     36  C   UNL     1      -2.954  -6.067   1.381  0.00  0.00    +0.132 C 
ATOM     37  C   UNL     1      -4.119  -5.909   0.380  0.00  0.00    +0.035 C 
ATOM     38  C   UNL     1      -5.017  -4.855   1.084  0.00  0.00    +0.031 C 
ATOM     39  C   UNL     1      -3.949  -3.976   1.781  0.00  0.00    +0.160 C 
ATOM     40  O   UNL     1      -2.923  -4.893   2.201  0.00  0.00    -0.375 OA
ENDBRANCH  35  36
ENDBRANCH  25  35
ENDBRANCH   1  25
TORSDOF 9
