REMARK  Name = ZINC58157146
REMARK  4 active torsions:
REMARK  status: ('A' for Active; 'I' for Inactive)
REMARK    1  A    between atoms: C_8  and  C_11
REMARK    2  A    between atoms: C_11  and  N_12
REMARK    3  A    between atoms: N_15  and  C_16
REMARK    4  A    between atoms: C_16  and  C_17
REMARK                            x       y       z     vdW  Elec       q    Type
REMARK                         _______ _______ _______ _____ _____    ______ ____
ROOT
ATOM      1  N   UNL     1       4.122  -3.739  -1.434  0.00  0.00    -0.294 N 
ATOM      2  C   UNL     1       4.861  -4.836  -1.692  0.00  0.00    +0.300 C 
ATOM      3  O   UNL     1       5.233  -5.548  -0.779  0.00  0.00    -0.253 OA
ATOM      4  N   UNL     1       5.187  -5.145  -2.963  0.00  0.00    -0.294 N 
ATOM      5  H   UNL     1       3.825  -3.172  -2.162  0.00  0.00    +0.151 HD
ATOM      6  H   UNL     1       4.890  -4.578  -3.692  0.00  0.00    +0.151 HD
ENDROOT
BRANCH   1   7
ATOM      7  C   UNL     1       3.768  -3.404  -0.052  0.00  0.00    +0.159 C 
BRANCH   7  15
ATOM      8  C   UNL     1      -0.017   1.362   0.009  0.00  0.00    +0.001 A 
ATOM      9  C   UNL     1       1.170   2.083   0.002  0.00  0.00    +0.002 A 
ATOM     10  C   UNL     1       2.386   1.436  -0.013  0.00  0.00    +0.026 A 
ATOM     11  C   UNL     1       2.428   0.046  -0.021  0.00  0.00    +0.047 A 
ATOM     12  C   UNL     1       1.223  -0.681  -0.013  0.00  0.00    -0.000 A 
ATOM     13  C   UNL     1       0.002  -0.004   0.002  0.00  0.00    +0.010 A 
ATOM     14  C   UNL     1       1.604  -2.095  -0.024  0.00  0.00    +0.032 A 
ATOM     15  C   UNL     1       2.945  -2.141  -0.037  0.00  0.00    +0.034 A 
ATOM     16  N   UNL     1       3.455  -0.871  -0.035  0.00  0.00    -0.357 N 
ATOM     17  H   UNL     1       4.399  -0.650  -0.043  0.00  0.00    +0.166 HD
ENDBRANCH   7  15
ENDBRANCH   1   7
BRANCH   4  18
ATOM     18  C   UNL     1       5.990  -6.338  -3.244  0.00  0.00    +0.159 C 
BRANCH  18  19
ATOM     19  C   UNL     1       6.212  -6.455  -4.730  0.00  0.00    +0.034 A 
ATOM     20  C   UNL     1       5.458  -7.185  -5.567  0.00  0.00    +0.032 A 
ATOM     21  C   UNL     1       6.022  -7.016  -6.909  0.00  0.00    -0.000 A 
ATOM     22  C   UNL     1       5.688  -7.511  -8.171  0.00  0.00    +0.010 A 
ATOM     23  C   UNL     1       6.434  -7.155  -9.258  0.00  0.00    +0.001 A 
ATOM     24  C   UNL     1       7.523  -6.305  -9.119  0.00  0.00    +0.002 A 
ATOM     25  C   UNL     1       7.871  -5.806  -7.883  0.00  0.00    +0.026 A 
ATOM     26  C   UNL     1       7.124  -6.154  -6.762  0.00  0.00    +0.047 A 
ATOM     27  N   UNL     1       7.209  -5.828  -5.427  0.00  0.00    -0.357 N 
ATOM     28  H   UNL     1       7.877  -5.242  -5.038  0.00  0.00    +0.166 HD
ENDBRANCH  18  19
ENDBRANCH   4  18
TORSDOF 4
