REMARK  Name = ZINC16789413
REMARK  9 active torsions:
REMARK  status: ('A' for Active; 'I' for Inactive)
REMARK    1  A    between atoms: C_1  and  C_2
REMARK    2  A    between atoms: C_2  and  N_3
REMARK    3  A    between atoms: C_4  and  C_28
REMARK    4  A    between atoms: C_7  and  S_8
REMARK    5  A    between atoms: S_8  and  C_9
REMARK    6  A    between atoms: C_9  and  C_10
REMARK    7  A    between atoms: N_12  and  C_13
REMARK    8  A    between atoms: C_16  and  S_19
REMARK    9  A    between atoms: S_19  and  N_22
REMARK                            x       y       z     vdW  Elec       q    Type
REMARK                         _______ _______ _______ _____ _____    ______ ____
ROOT
ATOM      1  C   UNL     1      -0.551   1.753   1.319  0.00  0.00    +0.227 C 
ATOM      2  O   UNL     1      -1.339   2.673   1.258  0.00  0.00    -0.275 OA
ATOM      3  N   UNL     1      -0.239   1.211   2.513  0.00  0.00    -0.285 N 
ATOM      4  H   UNL     1       0.444   0.524   2.570  0.00  0.00    +0.155 HD
ENDROOT
BRANCH   3   5
ATOM      5  C   UNL     1      -0.900   1.638   3.670  0.00  0.00    +0.034 A 
ATOM      6  C   UNL     1      -0.229   1.663   4.885  0.00  0.00    +0.025 A 
ATOM      7  C   UNL     1      -0.882   2.091   6.024  0.00  0.00    +0.030 A 
ATOM      8  C   UNL     1      -2.206   2.484   5.957  0.00  0.00    +0.109 A 
ATOM      9  C   UNL     1      -2.879   2.455   4.750  0.00  0.00    +0.030 A 
ATOM     10  C   UNL     1      -2.229   2.033   3.606  0.00  0.00    +0.025 A 
BRANCH   8  11
ATOM     11  S   UNL     1      -3.038   3.023   7.414  0.00  0.00    +0.074 S 
ATOM     12  O   UNL     1      -2.033   3.476   8.311  0.00  0.00    -0.150 OA
ATOM     13  O   UNL     1      -4.108   3.854   6.987  0.00  0.00    -0.150 OA
BRANCH  11  14
ATOM     14  N   UNL     1      -3.725   1.686   8.109  0.00  0.00    -0.194 N 
ATOM     15  C   UNL     1      -2.920   0.672   8.605  0.00  0.00    +0.177 A 
ATOM     16  N   UNL     1      -1.604   0.587   8.611  0.00  0.00    -0.232 NA
ATOM     17  C   UNL     1      -0.990  -0.459   9.134  0.00  0.00    +0.120 A 
ATOM     18  C   UNL     1      -1.743  -1.455   9.657  0.00  0.00    +0.068 A 
ATOM     19  S   UNL     1      -3.387  -0.815   9.371  0.00  0.00    -0.059 S 
ATOM     20  H   UNL     1      -4.690   1.612   8.168  0.00  0.00    +0.176 HD
ENDBRANCH  11  14
ENDBRANCH   8  11
ENDBRANCH   3   5
BRANCH   1  21
ATOM     21  C   UNL     1       0.081   1.218   0.060  0.00  0.00    +0.173 C 
BRANCH  21  22
ATOM     22  S   UNL     1      -0.535   2.147  -1.366  0.00  0.00    -0.077 S 
BRANCH  22  27
ATOM     23  N   UNL     1       0.267   1.624  -3.995  0.00  0.00    -0.302 N 
ATOM     24  C   UNL     1       1.118   0.738  -4.614  0.00  0.00    +0.168 A 
ATOM     25  N   UNL     1       1.644  -0.012  -3.674  0.00  0.00    -0.128 NA
ATOM     26  N   UNL     1       1.191   0.342  -2.525  0.00  0.00    -0.122 NA
ATOM     27  C   UNL     1       0.341   1.335  -2.662  0.00  0.00    +0.192 A 
BRANCH  24  28
ATOM     28  C   UNL     1       1.388   0.648  -6.065  0.00  0.00    +0.054 A 
ATOM     29  C   UNL     1       0.331   0.633  -6.976  0.00  0.00    +0.014 A 
ATOM     30  C   UNL     1       0.590   0.549  -8.328  0.00  0.00    +0.001 A 
ATOM     31  C   UNL     1       1.895   0.480  -8.784  0.00  0.00    +0.003 A 
ATOM     32  C   UNL     1       2.949   0.494  -7.888  0.00  0.00    +0.039 A 
ATOM     33  C   UNL     1       2.704   0.584  -6.531  0.00  0.00    +0.134 A 
ATOM     34  F   UNL     1       3.734   0.603  -5.657  0.00  0.00    -0.205 F 
ENDBRANCH  24  28
BRANCH  23  36
ATOM     35  C   UNL     1       0.206   3.993  -4.602  0.00  0.00    +0.027 C 
ATOM     36  C   UNL     1      -0.548   2.662  -4.632  0.00  0.00    +0.122 C 
ENDBRANCH  23  36
ENDBRANCH  22  27
ENDBRANCH  21  22
ENDBRANCH   1  21
TORSDOF 8
