REMARK  Name = ZINC16973898
REMARK  12 active torsions:
REMARK  status: ('A' for Active; 'I' for Inactive)
REMARK    1  A    between atoms: C_1  and  O_2
REMARK    2  A    between atoms: O_2  and  C_3
REMARK    3  A    between atoms: C_8  and  N_9
REMARK    4  A    between atoms: N_9  and  C_10
REMARK    5  A    between atoms: C_10  and  N_12
REMARK    6  A    between atoms: C_20  and  C_22
REMARK    7  A    between atoms: C_24  and  O_32
REMARK    8  A    between atoms: C_25  and  O_30
REMARK    9  A    between atoms: C_26  and  O_28
REMARK   10  A    between atoms: O_28  and  C_29
REMARK   11  A    between atoms: O_30  and  C_31
REMARK   12  A    between atoms: O_32  and  C_33
REMARK                            x       y       z     vdW  Elec       q    Type
REMARK                         _______ _______ _______ _____ _____    ______ ____
ROOT
ATOM      1  N   UNL     1      -1.149  -0.677   0.143  0.00  0.00    -0.298 N 
ATOM      2  C   UNL     1      -2.450   0.007   0.167  0.00  0.00    +0.129 C 
ATOM      3  C   UNL     1      -3.119  -0.212   1.521  0.00  0.00    +0.140 C 
ATOM      4  N   UNL     1      -3.019  -1.630   1.887  0.00  0.00    -0.347 N 
ATOM      5  C   UNL     1      -3.765  -2.290   2.813  0.00  0.00    +0.086 A 
ATOM      6  C   UNL     1      -3.350  -3.574   2.854  0.00  0.00    +0.019 A 
ATOM      7  C   UNL     1      -2.308  -3.712   1.914  0.00  0.00    +0.025 A 
ATOM      8  C   UNL     1      -2.131  -2.514   1.336  0.00  0.00    +0.044 A 
ATOM      9  C   UNL     1      -1.136  -2.147   0.259  0.00  0.00    +0.152 C 
ENDROOT
BRANCH   9  10
ATOM     10  C   UNL     1      -1.543  -2.770  -1.052  0.00  0.00    -0.014 A 
ATOM     11  C   UNL     1      -2.823  -2.577  -1.539  0.00  0.00    +0.055 A 
ATOM     12  C   UNL     1      -3.199  -3.143  -2.748  0.00  0.00    +0.165 A 
ATOM     13  C   UNL     1      -2.292  -3.915  -3.464  0.00  0.00    +0.204 A 
ATOM     14  C   UNL     1      -1.009  -4.112  -2.968  0.00  0.00    +0.165 A 
ATOM     15  C   UNL     1      -0.638  -3.537  -1.762  0.00  0.00    +0.055 A 
BRANCH  14  16
ATOM     16  O   UNL     1      -0.118  -4.866  -3.665  0.00  0.00    -0.491 OA
ATOM     17  C   UNL     1       1.183  -5.025  -3.096  0.00  0.00    +0.277 C 
ENDBRANCH  14  16
BRANCH  13  18
ATOM     18  O   UNL     1      -2.660  -4.478  -4.647  0.00  0.00    -0.488 OA
ATOM     19  C   UNL     1      -3.234  -5.786  -4.593  0.00  0.00    +0.277 C 
ENDBRANCH  13  18
BRANCH  12  20
ATOM     20  O   UNL     1      -4.456  -2.948  -3.228  0.00  0.00    -0.491 OA
ATOM     21  C   UNL     1      -5.335  -2.143  -2.440  0.00  0.00    +0.277 C 
ENDBRANCH  12  20
ENDBRANCH   9  10
BRANCH   1  22
ATOM     22  C   UNL     1      -0.001   0.019   0.025  0.00  0.00    +0.138 C 
ATOM     23  S   UNL     1       1.491  -0.808  -0.119  0.00  0.00    -0.018 S 
BRANCH  22  24
ATOM     24  N   UNL     1      -0.027   1.367   0.019  0.00  0.00    -0.294 N 
ATOM     25  H   UNL     1       0.197   1.859   0.825  0.00  0.00    +0.154 HD
BRANCH  24  31
ATOM     26  C   UNL     1      -0.319   3.447  -1.184  0.00  0.00    +0.141 A 
ATOM     27  C   UNL     1      -0.668   4.123  -2.341  0.00  0.00    +0.047 A 
ATOM     28  C   UNL     1      -1.091   3.418  -3.453  0.00  0.00    +0.004 A 
ATOM     29  C   UNL     1      -1.161   2.037  -3.416  0.00  0.00    +0.002 A 
ATOM     30  C   UNL     1      -0.809   1.355  -2.266  0.00  0.00    +0.027 A 
ATOM     31  C   UNL     1      -0.384   2.056  -1.147  0.00  0.00    +0.075 A 
BRANCH  26  33
ATOM     32  C   UNL     1       0.134   5.563  -0.198  0.00  0.00    +0.277 C 
ATOM     33  O   UNL     1       0.092   4.139  -0.088  0.00  0.00    -0.493 OA
ENDBRANCH  26  33
ENDBRANCH  24  31
ENDBRANCH  22  24
ENDBRANCH   1  22
TORSDOF 8
