REMARK  Name = ZINC11978601
REMARK  8 active torsions:
REMARK  status: ('A' for Active; 'I' for Inactive)
REMARK    1  A    between atoms: C_1  and  C_2
REMARK    2  A    between atoms: C_2  and  C_3
REMARK    3  A    between atoms: C_3  and  C_20
REMARK    4  A    between atoms: N_6  and  C_10
REMARK    5  A    between atoms: C_10  and  C_11
REMARK    6  A    between atoms: C_25  and  C_26
REMARK    7  A    between atoms: C_25  and  N_68
REMARK    8  A    between atoms: C_27  and  C_36
REMARK                            x       y       z     vdW  Elec       q    Type
REMARK                         _______ _______ _______ _____ _____    ______ ____
ROOT
ATOM      1  C   UNL     1      -0.756   2.035  -1.230  0.00  0.00    +0.115 C 
ATOM      2  C   UNL     1      -2.162   1.470  -1.284  0.00  0.00    +0.247 C 
ATOM      3  O   UNL     1      -3.049   1.634  -0.474  0.00  0.00    -0.273 OA
ATOM      4  N   UNL     1      -2.220   0.746  -2.419  0.00  0.00    -0.220 N 
ATOM      5  C   UNL     1      -1.059   0.775  -3.083  0.00  0.00    +0.310 C 
ATOM      6  O   UNL     1      -0.868   0.198  -4.135  0.00  0.00    -0.252 OA
ATOM      7  N   UNL     1      -0.125   1.519  -2.457  0.00  0.00    -0.285 N 
ATOM      8  H   UNL     1       0.784   1.683  -2.753  0.00  0.00    +0.151 HD
ENDROOT
BRANCH   1   9
ATOM      9  C   UNL     1      -0.019   1.527   0.010  0.00  0.00    +0.018 C 
ATOM     10  C   UNL     1       1.421   2.049  -0.001  0.00  0.00    -0.013 C 
ATOM     11  C   UNL     1       2.171   1.488   1.210  0.00  0.00    -0.078 C 
ATOM     12  C   UNL     1       0.793  -0.505   1.212  0.00  0.00    -0.078 C 
ATOM     13  C   UNL     1       0.002  -0.004   0.002  0.00  0.00    -0.013 C 
ATOM     14  N   UNL     1       2.176   0.012   1.129  0.00  0.00    +0.382 N 
ATOM     15  H   UNL     1       2.584  -0.271   0.231  0.00  0.00    -0.081 HD
BRANCH  14  16
ATOM     16  C   UNL     1       2.991  -0.550   2.226  0.00  0.00    -0.041 C 
BRANCH  16  17
ATOM     17  C   UNL     1       4.305   0.186   2.291  0.00  0.00    -0.036 A 
ATOM     18  C   UNL     1       4.574   1.274   3.029  0.00  0.00    +0.015 A 
ATOM     19  N   UNL     1       5.872   1.662   2.833  0.00  0.00    -0.358 N 
ATOM     20  H   UNL     1       6.296   2.424   3.258  0.00  0.00    +0.166 HD
ATOM     21  C   UNL     1       6.484   0.811   1.940  0.00  0.00    +0.047 A 
ATOM     22  C   UNL     1       5.532  -0.154   1.567  0.00  0.00    +0.001 A 
ATOM     23  C   UNL     1       5.875  -1.155   0.656  0.00  0.00    +0.010 A 
ATOM     24  C   UNL     1       7.139  -1.198   0.139  0.00  0.00    +0.001 A 
ATOM     25  C   UNL     1       8.084  -0.251   0.509  0.00  0.00    +0.002 A 
ATOM     26  C   UNL     1       7.765   0.748   1.403  0.00  0.00    +0.026 A 
ATOM     27  C   UNL     1       3.593   1.966   3.940  0.00  0.00    +0.063 C 
ENDBRANCH  16  17
ENDBRANCH  14  16
ENDBRANCH   1   9
BRANCH   1  29
ATOM     28  C   UNL     1      -1.533   4.046  -2.493  0.00  0.00    +0.006 C 
ATOM     29  C   UNL     1      -0.791   3.565  -1.245  0.00  0.00    +0.032 C 
ENDBRANCH   1  29
BRANCH   4  30
ATOM     30  C   UNL     1      -3.408   0.018  -2.871  0.00  0.00    +0.153 C 
BRANCH  30  31
ATOM     31  C   UNL     1      -4.251   0.918  -3.737  0.00  0.00    -0.026 A 
ATOM     32  C   UNL     1      -4.039   0.958  -5.102  0.00  0.00    +0.009 A 
ATOM     33  C   UNL     1      -4.809   1.782  -5.901  0.00  0.00    +0.050 A 
ATOM     34  C   UNL     1      -5.797   2.571  -5.333  0.00  0.00    +0.166 A 
ATOM     35  C   UNL     1      -6.010   2.532  -3.958  0.00  0.00    +0.167 A 
ATOM     36  C   UNL     1      -5.237   1.700  -3.164  0.00  0.00    +0.054 A 
ATOM     37  O   UNL     1      -7.026   3.390  -3.649  0.00  0.00    -0.453 OA
ATOM     38  C   UNL     1      -7.157   4.257  -4.791  0.00  0.00    +0.466 C 
ATOM     39  O   UNL     1      -6.679   3.454  -5.887  0.00  0.00    -0.453 OA
ENDBRANCH  30  31
ENDBRANCH   4  30
TORSDOF 6
