REMARK  Name = ZINC02672075
REMARK  10 active torsions:
REMARK  status: ('A' for Active; 'I' for Inactive)
REMARK    1  A    between atoms: C_1  and  C_2
REMARK    2  A    between atoms: C_2  and  N_3
REMARK    3  A    between atoms: C_7  and  C_8
REMARK    4  A    between atoms: C_9  and  N_20
REMARK    5  A    between atoms: C_14  and  C_19
REMARK    6  A    between atoms: N_20  and  C_21
REMARK    7  A    between atoms: C_23  and  C_28
REMARK    8  A    between atoms: C_23  and  C_29
REMARK    9  A    between atoms: C_24  and  C_26
REMARK   10  A    between atoms: C_24  and  C_27
REMARK                            x       y       z     vdW  Elec       q    Type
REMARK                         _______ _______ _______ _____ _____    ______ ____
ROOT
ATOM      1  C   UNL     1       4.752   0.047  -0.058  0.00  0.00    +0.081 A 
ATOM      2  C   UNL     1       4.705   1.439  -0.311  0.00  0.00    +0.134 A 
ATOM      3  N   UNL     1       3.537   2.065  -0.304  0.00  0.00    -0.214 NA
ATOM      4  C   UNL     1       2.397   1.417  -0.064  0.00  0.00    +0.142 A 
ATOM      5  C   UNL     1       1.187   2.135  -0.069  0.00  0.00    +0.047 A 
ATOM      6  C   UNL     1       0.016   1.480   0.174  0.00  0.00    +0.008 A 
ATOM      7  C   UNL     1       0.034   0.102   0.427  0.00  0.00    -0.034 A 
ATOM      8  C   UNL     1       1.206  -0.572   0.429  0.00  0.00    +0.099 A 
ATOM      9  N   UNL     1       2.382   0.073   0.186  0.00  0.00    -0.267 N 
ATOM     10  C   UNL     1       3.535  -0.630   0.195  0.00  0.00    +0.267 A 
ATOM     11  O   UNL     1       3.528  -1.829   0.418  0.00  0.00    -0.267 OA
ATOM     12  C   UNL     1      -1.255  -0.630   0.698  0.00  0.00    +0.045 C 
ENDROOT
BRANCH   1  17
ATOM     13  N   UNL     1       9.133  -0.170   1.749  0.00  0.00    -0.256 N 
ATOM     14  C   UNL     1       8.332  -0.726   0.856  0.00  0.00    +0.258 C 
ATOM     15  O   UNL     1       8.730  -1.617   0.126  0.00  0.00    -0.269 OA
ATOM     16  C   UNL     1       6.992  -0.251   0.768  0.00  0.00    +0.077 C 
ATOM     17  C   UNL     1       5.983  -0.649  -0.060  0.00  0.00    +0.037 C 
ATOM     18  S   UNL     1       6.991   1.003   2.042  0.00  0.00    -0.061 S 
ATOM     19  C   UNL     1       8.689   0.814   2.563  0.00  0.00    +0.121 C 
ATOM     20  S   UNL     1       9.539   1.662   3.783  0.00  0.00    -0.027 S 
BRANCH  13  22
ATOM     21  C   UNL     1      10.593  -1.778   2.873  0.00  0.00    +0.025 C 
ATOM     22  C   UNL     1      10.518  -0.632   1.862  0.00  0.00    +0.111 C 
ENDBRANCH  13  22
ENDBRANCH   1  17
BRANCH   2  23
ATOM     23  N   UNL     1       5.865   2.138  -0.562  0.00  0.00    -0.326 N 
ATOM     24  H   UNL     1       6.718   1.676  -0.566  0.00  0.00    +0.148 HD
BRANCH  23  25
ATOM     25  C   UNL     1       5.811   3.582  -0.823  0.00  0.00    +0.069 C 
ATOM     26  C   UNL     1       5.537   3.814  -2.308  0.00  0.00    +0.009 C 
ATOM     27  C   UNL     1       5.499   5.309  -2.615  0.00  0.00    -0.072 C 
ATOM     28  C   UNL     1       7.139   5.708  -0.755  0.00  0.00    -0.072 C 
ATOM     29  C   UNL     1       7.161   4.207  -0.473  0.00  0.00    +0.009 C 
ATOM     30  C   UNL     1       6.333   6.423   0.335  0.00  0.00    -0.010 C 
ATOM     31  C   UNL     1       8.594   6.220  -0.659  0.00  0.00    -0.010 C 
ATOM     32  C   UNL     1       4.178   5.902  -2.110  0.00  0.00    -0.010 C 
ATOM     33  C   UNL     1       5.514   5.470  -4.151  0.00  0.00    -0.010 C 
ATOM     34  N   UNL     1       6.668   6.082  -2.116  0.00  0.00    +0.386 N 
ATOM     35  H   UNL     1       6.408   7.076  -2.100  0.00  0.00    -0.084 HD
ATOM     36  H   UNL     1       7.445   5.942  -2.772  0.00  0.00    -0.084 HD
ENDBRANCH  23  25
ENDBRANCH   2  23
TORSDOF 4
