REMARK  Name = ZINC34927463
REMARK  4 active torsions:
REMARK  status: ('A' for Active; 'I' for Inactive)
REMARK    1  A    between atoms: C_1  and  C_2
REMARK    2  A    between atoms: C_6  and  N_9
REMARK    3  A    between atoms: C_7  and  C_8
REMARK    4  A    between atoms: N_18  and  C_23
REMARK                            x       y       z     vdW  Elec       q    Type
REMARK                         _______ _______ _______ _____ _____    ______ ____
ROOT
ATOM      1  N   UNL     1       0.904  -5.279   1.216  0.00  0.00    -0.269 N 
ATOM      2  C   UNL     1       0.848  -6.456   1.870  0.00  0.00    +0.306 C 
ATOM      3  O   UNL     1       1.098  -7.491   1.283  0.00  0.00    -0.252 OA
ATOM      4  N   UNL     1       0.515  -6.486   3.176  0.00  0.00    -0.285 N 
ATOM      5  C   UNL     1       0.110  -5.257   3.872  0.00  0.00    +0.112 C 
ATOM      6  C   UNL     1      -1.258  -5.491   4.525  0.00  0.00    +0.056 C 
ATOM      7  C   UNL     1      -1.200  -6.740   5.389  0.00  0.00    +0.091 C 
ATOM      8  C   UNL     1      -0.819  -7.970   4.580  0.00  0.00    +0.056 C 
ATOM      9  C   UNL     1       0.545  -7.749   3.926  0.00  0.00    +0.112 C 
ATOM     10  N   UNL     1      -0.315  -6.558   6.544  0.00  0.00    -0.255 N 
ATOM     11  C   UNL     1      -0.752  -6.901   7.752  0.00  0.00    +0.231 C 
ATOM     12  O   UNL     1      -0.054  -6.764   8.735  0.00  0.00    -0.274 OA
ATOM     13  C   UNL     1      -2.158  -7.471   7.855  0.00  0.00    +0.167 C 
ATOM     14  S   UNL     1      -2.830  -7.011   6.198  0.00  0.00    -0.125 S 
ATOM     15  H   UNL     1       0.743  -4.451   1.693  0.00  0.00    +0.156 HD
ENDROOT
BRANCH   1  21
ATOM     16  C   UNL     1       0.597  -3.005  -3.132  0.00  0.00    +0.044 C 
ATOM     17  C   UNL     1       1.057  -4.163  -2.284  0.00  0.00    -0.046 A 
ATOM     18  C   UNL     1       1.766  -5.201  -2.860  0.00  0.00    +0.004 A 
ATOM     19  C   UNL     1       2.190  -6.265  -2.085  0.00  0.00    +0.002 A 
ATOM     20  C   UNL     1       1.905  -6.294  -0.734  0.00  0.00    +0.023 A 
ATOM     21  C   UNL     1       1.193  -5.253  -0.153  0.00  0.00    +0.038 A 
ATOM     22  C   UNL     1       0.774  -4.183  -0.933  0.00  0.00    -0.026 A 
ATOM     23  C   UNL     1       0.007  -3.047  -0.306  0.00  0.00    +0.046 C 
ENDBRANCH   1  21
BRANCH  10  24
ATOM     24  C   UNL     1       0.972  -6.032   6.376  0.00  0.00    +0.038 A 
ATOM     25  C   UNL     1       1.169  -4.657   6.404  0.00  0.00    +0.026 A 
ATOM     26  C   UNL     1       2.439  -4.140   6.239  0.00  0.00    +0.040 A 
ATOM     27  C   UNL     1       3.514  -4.990   6.044  0.00  0.00    +0.124 A 
ATOM     28  C   UNL     1       3.319  -6.361   6.016  0.00  0.00    +0.040 A 
ATOM     29  C   UNL     1       2.052  -6.883   6.187  0.00  0.00    +0.026 A 
ATOM     30  F   UNL     1       4.756  -4.482   5.881  0.00  0.00    -0.205 F 
ENDBRANCH  10  24
TORSDOF 2
