REMARK  Name = ZINC63375164
REMARK  6 active torsions:
REMARK  status: ('A' for Active; 'I' for Inactive)
REMARK    1  A    between atoms: C_1  and  C_2
REMARK    2  A    between atoms: C_2  and  C_3
REMARK    3  A    between atoms: C_6  and  C_9
REMARK    4  A    between atoms: N_16  and  C_31
REMARK    5  A    between atoms: C_19  and  C_30
REMARK    6  A    between atoms: C_31  and  C_32
REMARK                            x       y       z     vdW  Elec       q    Type
REMARK                         _______ _______ _______ _____ _____    ______ ____
ROOT
ATOM      1  C   UNL     1       2.866  -1.677   4.729  0.00  0.00    +0.065 C 
ATOM      2  C   UNL     1       2.869  -0.684   5.904  0.00  0.00    +0.121 C 
ATOM      3  N   UNL     1       3.211  -1.402   7.148  0.00  0.00    -0.283 N 
ATOM      4  C   UNL     1       4.289  -1.001   7.831  0.00  0.00    +0.234 C 
ATOM      5  O   UNL     1       4.937  -0.085   7.370  0.00  0.00    -0.274 OA
ATOM      6  C   UNL     1       4.754  -1.597   9.117  0.00  0.00    +0.204 C 
ATOM      7  N   UNL     1       3.890  -2.676   9.566  0.00  0.00    -0.286 N 
ATOM      8  C   UNL     1       2.822  -3.093   8.890  0.00  0.00    +0.242 C 
ATOM      9  O   UNL     1       2.172  -4.002   9.362  0.00  0.00    -0.273 OA
ATOM     10  C   UNL     1       2.370  -2.517   7.589  0.00  0.00    +0.135 C 
ATOM     11  C   UNL     1       2.393  -3.595   6.501  0.00  0.00    +0.139 C 
ATOM     12  C   UNL     1       2.090  -2.888   5.184  0.00  0.00    -0.027 C 
ATOM     13  C   UNL     1       1.072  -3.539   4.637  0.00  0.00    -0.000 A 
ATOM     14  C   UNL     1       0.403  -3.396   3.334  0.00  0.00    +0.010 A 
ATOM     15  C   UNL     1      -0.645  -4.230   3.103  0.00  0.00    +0.001 A 
ATOM     16  C   UNL     1      -1.089  -5.181   4.027  0.00  0.00    +0.002 A 
ATOM     17  C   UNL     1      -0.528  -5.388   5.245  0.00  0.00    +0.026 A 
ATOM     18  C   UNL     1       0.590  -4.578   5.598  0.00  0.00    +0.043 A 
ATOM     19  N   UNL     1       1.338  -4.591   6.687  0.00  0.00    -0.375 N 
ATOM     20  C   UNL     1       0.931  -2.021   7.741  0.00  0.00    +0.044 C 
ATOM     21  H   UNL     1       1.218  -5.151   7.470  0.00  0.00    +0.160 HD
ENDROOT
BRANCH   1  25
ATOM     22  C   UNL     1       0.963   0.083   1.333  0.00  0.00    -0.048 A 
ATOM     23  C   UNL     1       2.271  -0.354   1.243  0.00  0.00    +0.004 A 
ATOM     24  C   UNL     1       2.887  -0.923   2.342  0.00  0.00    +0.004 A 
ATOM     25  C   UNL     1       2.195  -1.055   3.531  0.00  0.00    -0.039 A 
ATOM     26  C   UNL     1       0.886  -0.618   3.622  0.00  0.00    +0.004 A 
ATOM     27  C   UNL     1       0.272  -0.045   2.524  0.00  0.00    +0.004 A 
BRANCH  22  29
ATOM     28  C   UNL     1       0.533   2.214   0.141  0.00  0.00    +0.009 C 
ATOM     29  C   UNL     1       0.291   0.704   0.135  0.00  0.00    +0.032 C 
ENDBRANCH  22  29
ENDBRANCH   1  25
BRANCH   7  30
ATOM     30  C   UNL     1       4.213  -3.341  10.831  0.00  0.00    +0.147 C 
BRANCH  30  31
ATOM     31  C   UNL     1       5.238  -4.418  10.585  0.00  0.00    +0.023 A 
ATOM     32  C   UNL     1       4.830  -5.699  10.251  0.00  0.00    +0.129 A 
ATOM     33  C   UNL     1       5.772  -6.687  10.025  0.00  0.00    +0.039 A 
ATOM     34  C   UNL     1       7.119  -6.396  10.133  0.00  0.00    +0.004 A 
ATOM     35  C   UNL     1       7.526  -5.118  10.467  0.00  0.00    +0.020 A 
ATOM     36  C   UNL     1       6.586  -4.127  10.687  0.00  0.00    +0.048 A 
ATOM     37 CL   UNL     1       7.098  -2.520  11.099  0.00  0.00    -0.083 Cl
ATOM     38  F   UNL     1       3.514  -5.983  10.146  0.00  0.00    -0.205 F 
ENDBRANCH  30  31
ENDBRANCH   7  30
TORSDOF 4
