REMARK  Name = ZINC32857455
REMARK  13 active torsions:
REMARK  status: ('A' for Active; 'I' for Inactive)
REMARK    1  A    between atoms: C_1  and  C_2
REMARK    2  A    between atoms: C_9  and  C_13
REMARK    3  A    between atoms: C_13  and  S_14
REMARK    4  A    between atoms: S_14  and  C_15
REMARK    5  A    between atoms: N_25  and  C_26
REMARK    6  A    between atoms: C_26  and  C_27
REMARK    7  A    between atoms: C_27  and  N_28
REMARK    8  A    between atoms: N_28  and  C_29
REMARK    9  A    between atoms: N_28  and  C_32
REMARK   10  A    between atoms: C_29  and  C_30
REMARK   11  A    between atoms: C_29  and  C_31
REMARK   12  A    between atoms: C_32  and  C_33
REMARK   13  A    between atoms: C_32  and  C_34
REMARK                            x       y       z     vdW  Elec       q    Type
REMARK                         _______ _______ _______ _____ _____    ______ ____
ROOT
ATOM      1  C   UNL     1       0.062   2.564   3.523  0.00  0.00    +0.172 A 
ATOM      2  N   UNL     1       0.544   2.429   4.734  0.00  0.00    -0.223 NA
ATOM      3  C   UNL     1       0.523   1.242   5.375  0.00  0.00    +0.079 A 
ATOM      4  C   UNL     1       1.037   1.098   6.667  0.00  0.00    +0.028 A 
ATOM      5  C   UNL     1       0.996  -0.123   7.278  0.00  0.00    +0.002 A 
ATOM      6  C   UNL     1       0.449  -1.226   6.636  0.00  0.00    +0.001 A 
ATOM      7  C   UNL     1      -0.062  -1.117   5.372  0.00  0.00    +0.015 A 
ATOM      8  C   UNL     1      -0.032   0.117   4.724  0.00  0.00    +0.065 A 
ATOM      9  C   UNL     1      -0.571   0.295   3.369  0.00  0.00    +0.262 A 
ATOM     10  O   UNL     1      -1.066  -0.634   2.758  0.00  0.00    -0.267 OA
ATOM     11  N   UNL     1      -0.491   1.531   2.822  0.00  0.00    -0.289 N 
ENDROOT
BRANCH   1  12
ATOM     12  S   UNL     1       0.133   4.152   2.764  0.00  0.00    -0.081 S 
BRANCH  12  13
ATOM     13  C   UNL     1       0.929   5.098   4.087  0.00  0.00    +0.133 C 
BRANCH  13  22
ATOM     14  C   UNL     1       4.107   7.301   0.901  0.00  0.00    +0.047 C 
ATOM     15  C   UNL     1       3.224   8.399   1.437  0.00  0.00    -0.008 A 
ATOM     16  C   UNL     1       3.400   9.685   1.022  0.00  0.00    +0.008 A 
ATOM     17  C   UNL     1       2.570  10.695   1.530  0.00  0.00    +0.019 A 
ATOM     18  C   UNL     1       1.603  10.393   2.425  0.00  0.00    +0.096 A 
ATOM     19  N   UNL     1       1.419   9.110   2.845  0.00  0.00    -0.268 N 
ATOM     20  C   UNL     1       2.212   8.104   2.368  0.00  0.00    +0.143 A 
ATOM     21  N   UNL     1       2.039   6.848   2.774  0.00  0.00    -0.233 NA
ATOM     22  C   UNL     1       1.098   6.530   3.649  0.00  0.00    +0.059 A 
ATOM     23  C   UNL     1       0.266   7.509   4.157  0.00  0.00    +0.094 A 
ATOM     24  C   UNL     1       0.446   8.833   3.740  0.00  0.00    +0.259 A 
ATOM     25  O   UNL     1      -0.269   9.722   4.174  0.00  0.00    -0.267 OA
ENDBRANCH  13  22
ENDBRANCH  12  13
ENDBRANCH   1  12
BRANCH  11  26
ATOM     26  C   UNL     1      -1.009   1.764   1.471  0.00  0.00    +0.109 C 
BRANCH  26  27
ATOM     27  C   UNL     1       0.106   1.525   0.451  0.00  0.00    -0.056 C 
BRANCH  27  28
ATOM     28  N   UNL     1      -0.413   1.758  -0.904  0.00  0.00    +0.384 N 
ATOM     29  H   UNL     1      -0.892   2.748  -0.917  0.00  0.00    -0.081 HD
BRANCH  28  30
ATOM     30  C   UNL     1       0.676   1.771  -1.890  0.00  0.00    -0.074 C 
ATOM     31  C   UNL     1       1.329   3.154  -1.910  0.00  0.00    -0.014 C 
ATOM     32  C   UNL     1       1.721   0.720  -1.509  0.00  0.00    -0.014 C 
ENDBRANCH  28  30
BRANCH  28  33
ATOM     33  C   UNL     1      -1.431   0.759  -1.257  0.00  0.00    -0.074 C 
ATOM     34  C   UNL     1      -2.119   1.171  -2.560  0.00  0.00    -0.014 C 
ATOM     35  C   UNL     1      -0.764  -0.605  -1.442  0.00  0.00    -0.014 C 
ENDBRANCH  28  33
ENDBRANCH  27  28
ENDBRANCH  26  27
ENDBRANCH  11  26
TORSDOF 8
