REMARK  Name = ZINC39696196
REMARK  9 active torsions:
REMARK  status: ('A' for Active; 'I' for Inactive)
REMARK    1  A    between atoms: C_1  and  C_2
REMARK    2  A    between atoms: C_2  and  C_3
REMARK    3  A    between atoms: C_6  and  C_9
REMARK    4  A    between atoms: C_9  and  C_11
REMARK    5  A    between atoms: C_9  and  N_12
REMARK    6  A    between atoms: C_13  and  C_15
REMARK    7  A    between atoms: C_26  and  C_28
REMARK    8  A    between atoms: C_32  and  O_33
REMARK    9  A    between atoms: O_33  and  C_34
REMARK                            x       y       z     vdW  Elec       q    Type
REMARK                         _______ _______ _______ _____ _____    ______ ____
ROOT
ATOM      1  C   UNL     1       5.169  -4.811  -4.881  0.00  0.00    +0.100 C 
ATOM      2  C   UNL     1       4.695  -5.627  -3.657  0.00  0.00    +0.121 C 
ATOM      3  N   UNL     1       4.067  -6.838  -4.236  0.00  0.00    -0.296 N 
ATOM      4  C   UNL     1       4.942  -7.198  -5.378  0.00  0.00    +0.115 C 
ATOM      5  C   UNL     1       5.333  -5.846  -6.006  0.00  0.00    -0.004 C 
ATOM      6  C   UNL     1       6.782  -5.884  -6.482  0.00  0.00    -0.010 C 
ATOM      7  C   UNL     1       6.909  -6.877  -7.640  0.00  0.00    -0.082 C 
ATOM      8  N   UNL     1       6.024  -6.468  -8.737  0.00  0.00    +0.379 N 
ATOM      9  C   UNL     1       4.625  -6.524  -8.299  0.00  0.00    -0.082 C 
ATOM     10  C   UNL     1       4.401  -5.515  -7.168  0.00  0.00    -0.010 C 
ATOM     11  C   UNL     1       2.953  -7.471  -3.818  0.00  0.00    +0.251 C 
ATOM     12  O   UNL     1       2.285  -6.996  -2.919  0.00  0.00    -0.270 OA
ATOM     13  H   UNL     1       6.250  -5.525  -9.016  0.00  0.00    -0.086 HD
ATOM     14  H   UNL     1       6.154  -7.088  -9.522  0.00  0.00    -0.086 HD
ENDROOT
BRANCH  11  15
ATOM     15  C   UNL     1       2.544  -8.735  -4.449  0.00  0.00    +0.087 A 
ATOM     16  C   UNL     1       3.471  -9.652  -4.895  0.00  0.00    +0.063 A 
ATOM     17  S   UNL     1       2.547 -10.902  -5.525  0.00  0.00    -0.081 S 
ATOM     18  C   UNL     1       0.913 -10.266  -5.225  0.00  0.00    +0.120 A 
ATOM     19  C   UNL     1       1.151  -9.077  -4.626  0.00  0.00    +0.158 A 
ATOM     20 CL   UNL     1      -0.616 -10.996  -5.603  0.00  0.00    -0.072 Cl
BRANCH  19  21
ATOM     21  O   UNL     1       0.145  -8.254  -4.220  0.00  0.00    -0.492 OA
ATOM     22  C   UNL     1      -0.329  -7.294  -5.167  0.00  0.00    +0.277 C 
ENDBRANCH  19  21
ENDBRANCH  11  15
BRANCH   1  24
ATOM     23  N   UNL     1       4.512  -2.621  -5.825  0.00  0.00    -0.308 N 
ATOM     24  C   UNL     1       4.133  -3.784  -5.259  0.00  0.00    +0.219 C 
ATOM     25  O   UNL     1       2.958  -4.004  -5.055  0.00  0.00    -0.275 OA
ATOM     26  H   UNL     1       5.452  -2.445  -5.988  0.00  0.00    +0.149 HD
BRANCH  23  27
ATOM     27  C   UNL     1       3.505  -1.623  -6.193  0.00  0.00    +0.100 C 
ATOM     28  C   UNL     1       2.949  -1.947  -7.581  0.00  0.00    +0.033 C 
BRANCH  27  32
ATOM     29  C   UNL     1       5.297   2.255  -6.244  0.00  0.00    -0.048 A 
ATOM     30  C   UNL     1       4.023   2.089  -5.735  0.00  0.00    +0.004 A 
ATOM     31  C   UNL     1       3.443   0.834  -5.718  0.00  0.00    +0.006 A 
ATOM     32  C   UNL     1       4.137  -0.255  -6.212  0.00  0.00    -0.027 A 
ATOM     33  C   UNL     1       5.411  -0.089  -6.722  0.00  0.00    +0.006 A 
ATOM     34  C   UNL     1       5.989   1.166  -6.743  0.00  0.00    +0.004 A 
BRANCH  29  36
ATOM     35  C   UNL     1       5.583   4.327  -7.575  0.00  0.00    +0.009 C 
ATOM     36  C   UNL     1       5.930   3.622  -6.262  0.00  0.00    +0.032 C 
ENDBRANCH  29  36
ENDBRANCH  27  32
ENDBRANCH  23  27
ENDBRANCH   1  24
TORSDOF 6
