REMARK  Name = ZINC13635928
REMARK  6 active torsions:
REMARK  status: ('A' for Active; 'I' for Inactive)
REMARK    1  A    between atoms: C_1  and  C_2
REMARK    2  A    between atoms: C_2  and  C_3
REMARK    3  A    between atoms: C_2  and  C_4
REMARK    4  A    between atoms: C_11  and  N_24
REMARK    5  A    between atoms: C_12  and  C_22
REMARK    6  A    between atoms: C_13  and  C_15
REMARK                            x       y       z     vdW  Elec       q    Type
REMARK                         _______ _______ _______ _____ _____    ______ ____
ROOT
ATOM      1  C   UNL     1      -0.893  -0.606   0.108  0.00  0.00    +0.073 A 
ATOM      2  C   UNL     1      -1.755  -1.372  -0.665  0.00  0.00    +0.046 A 
ATOM      3  C   UNL     1      -2.965  -1.420  -0.030  0.00  0.00    +0.222 A 
ATOM      4  N   UNL     1      -2.857  -0.705   1.102  0.00  0.00    -0.246 N 
ATOM      5  H   UNL     1      -3.560  -0.562   1.756  0.00  0.00    +0.192 HD
ATOM      6  N   UNL     1      -1.547  -0.207   1.173  0.00  0.00    -0.175 NA
ATOM      7  O   UNL     1      -4.028  -2.098  -0.529  0.00  0.00    -0.423 OA
ATOM      8  C   UNL     1      -3.799  -2.961  -1.540  0.00  0.00    +0.200 C 
ATOM      9  C   UNL     1      -2.650  -3.000  -2.251  0.00  0.00    +0.094 C 
ATOM     10  C   UNL     1      -1.498  -2.065  -1.978  0.00  0.00    +0.078 C 
ENDROOT
BRANCH  10  11
ATOM     11  C   UNL     1      -1.400  -1.027  -3.099  0.00  0.00    +0.024 C 
ATOM     12  C   UNL     1      -0.965  -1.718  -4.393  0.00  0.00    +0.009 C 
ATOM     13  C   UNL     1      -1.123  -0.724  -5.550  0.00  0.00    +0.005 C 
ATOM     14  C   UNL     1      -2.615  -0.452  -5.754  0.00  0.00    +0.027 C 
ATOM     15  C   UNL     1      -3.263  -0.117  -4.443  0.00  0.00    -0.031 C 
ATOM     16  C   UNL     1      -2.737  -0.374  -3.290  0.00  0.00    -0.027 C 
ENDBRANCH  10  11
BRANCH   1  18
ATOM     17  C   UNL     1       0.716   1.222  -0.364  0.00  0.00    +0.014 C 
ATOM     18  C   UNL     1       0.544  -0.292  -0.217  0.00  0.00    +0.034 C 
ATOM     19  C   UNL     1       1.445  -0.800   0.911  0.00  0.00    +0.014 C 
ENDBRANCH   1  18
BRANCH   8  20
ATOM     20  N   UNL     1      -4.791  -3.852  -1.867  0.00  0.00    -0.328 N 
ATOM     21  H   UNL     1      -5.627  -3.848  -1.375  0.00  0.00    +0.145 HD
ATOM     22  H   UNL     1      -4.656  -4.485  -2.589  0.00  0.00    +0.145 HD
ENDBRANCH   8  20
BRANCH   9  23
ATOM     23  C   UNL     1      -2.521  -3.965  -3.301  0.00  0.00    +0.100 C 
ATOM     24  N   UNL     1      -2.419  -4.730  -4.134  0.00  0.00    -0.191 NA
ENDBRANCH   9  23
TORSDOF 4
