REMARK  Name = ZINC46086967
REMARK  14 active torsions:
REMARK  status: ('A' for Active; 'I' for Inactive)
REMARK    1  A    between atoms: C_1  and  C_2
REMARK    2  A    between atoms: C_2  and  C_3
REMARK    3  A    between atoms: C_3  and  S_4
REMARK    4  A    between atoms: S_4  and  C_5
REMARK    5  A    between atoms: C_9  and  C_11
REMARK    6  A    between atoms: N_13  and  C_14
REMARK    7  A    between atoms: C_14  and  C_16
REMARK    8  A    between atoms: C_14  and  C_20
REMARK    9  A    between atoms: C_16  and  C_17
REMARK   10  A    between atoms: C_17  and  S_18
REMARK   11  A    between atoms: S_18  and  C_19
REMARK   12  A    between atoms: N_22  and  C_23
REMARK   13  A    between atoms: C_26  and  C_29
REMARK   14  A    between atoms: C_29  and  C_30
REMARK                            x       y       z     vdW  Elec       q    Type
REMARK                         _______ _______ _______ _____ _____    ______ ____
ROOT
ATOM      1  C   UNL     1       2.344  -8.135  -4.055  0.00  0.00    +0.160 C 
ENDROOT
BRANCH   1   4
ATOM      2  C   UNL     1       2.602  -5.761  -4.536  0.00  0.00    +0.264 C 
ATOM      3  O   UNL     1       3.175  -6.061  -5.564  0.00  0.00    -0.268 OA
ATOM      4  N   UNL     1       2.147  -6.725  -3.712  0.00  0.00    -0.299 N 
ATOM      5  H   UNL     1       1.689  -6.485  -2.891  0.00  0.00    +0.150 HD
BRANCH   2  10
ATOM      6  C   UNL     1       1.594  -2.719  -2.752  0.00  0.00    +0.189 A 
ATOM      7  N   UNL     1       2.026  -1.739  -3.536  0.00  0.00    -0.229 NA
ATOM      8  C   UNL     1       2.657  -2.002  -4.666  0.00  0.00    +0.131 A 
ATOM      9  C   UNL     1       2.868  -3.325  -5.034  0.00  0.00    +0.066 A 
ATOM     10  C   UNL     1       2.402  -4.332  -4.188  0.00  0.00    +0.144 A 
ATOM     11  N   UNL     1       1.779  -3.991  -3.062  0.00  0.00    -0.216 NA
ATOM     12 BR   UNL     1       3.765  -3.750  -6.644  0.00  0.00    -0.046 Br
BRANCH   6  13
ATOM     13  S   UNL     1       0.759  -2.314  -1.254  0.00  0.00    -0.086 S 
BRANCH  13  14
ATOM     14  C   UNL     1       0.734  -0.500  -1.242  0.00  0.00    +0.077 C 
BRANCH  14  16
ATOM     15  C   UNL     1       0.006   1.522   0.032  0.00  0.00    +0.004 C 
ATOM     16  C   UNL     1       0.027  -0.008   0.022  0.00  0.00    +0.008 C 
ENDBRANCH  14  16
ENDBRANCH  13  14
ENDBRANCH   6  13
ENDBRANCH   2  10
ENDBRANCH   1   4
BRANCH   1  17
ATOM     17  C   UNL     1       1.286  -8.970  -3.381  0.00  0.00    +0.238 C 
ATOM     18  O   UNL     1       0.449  -8.438  -2.682  0.00  0.00    -0.273 OA
ATOM     19  N   UNL     1       1.269 -10.306  -3.554  0.00  0.00    -0.284 N 
ATOM     20  H   UNL     1       1.896 -10.724  -4.166  0.00  0.00    +0.155 HD
BRANCH  19  21
ATOM     21  C   UNL     1       0.347 -11.091  -2.853  0.00  0.00    +0.033 A 
ATOM     22  C   UNL     1       0.705 -12.359  -2.414  0.00  0.00    +0.023 A 
ATOM     23  C   UNL     1      -0.207 -13.132  -1.722  0.00  0.00    +0.005 A 
ATOM     24  C   UNL     1      -1.475 -12.643  -1.466  0.00  0.00    -0.048 A 
ATOM     25  C   UNL     1      -1.834 -11.381  -1.901  0.00  0.00    +0.005 A 
ATOM     26  C   UNL     1      -0.925 -10.601  -2.588  0.00  0.00    +0.023 A 
BRANCH  24  27
ATOM     27  C   UNL     1      -2.468 -13.489  -0.710  0.00  0.00    +0.032 C 
ATOM     28  C   UNL     1      -2.336 -13.213   0.789  0.00  0.00    +0.009 C 
ENDBRANCH  24  27
ENDBRANCH  19  21
ENDBRANCH   1  17
BRANCH   1  29
ATOM     29  C   UNL     1       3.728  -8.587  -3.582  0.00  0.00    +0.042 C 
BRANCH  29  30
ATOM     30  C   UNL     1       4.805  -7.827  -4.358  0.00  0.00    +0.071 C 
BRANCH  30  31
ATOM     31  S   UNL     1       6.445  -8.362  -3.796  0.00  0.00    -0.164 S 
ATOM     32  C   UNL     1       7.594  -7.380  -4.800  0.00  0.00    +0.084 C 
ENDBRANCH  30  31
ENDBRANCH  29  30
ENDBRANCH   1  29
TORSDOF 11
