REMARK  Name = ZINC12757985
REMARK  11 active torsions:
REMARK  status: ('A' for Active; 'I' for Inactive)
REMARK    1  A    between atoms: C_1  and  C_2
REMARK    2  A    between atoms: C_9  and  C_19
REMARK    3  A    between atoms: C_12  and  C_13
REMARK    4  A    between atoms: N_21  and  C_22
REMARK    5  A    between atoms: C_22  and  C_23
REMARK    6  A    between atoms: C_23  and  C_25
REMARK    7  A    between atoms: C_23  and  N_62
REMARK    8  A    between atoms: C_28  and  O_31
REMARK    9  A    between atoms: O_31  and  C_32
REMARK   10  A    between atoms: C_33  and  N_62
REMARK   11  A    between atoms: C_34  and  N_62
REMARK                            x       y       z     vdW  Elec       q    Type
REMARK                         _______ _______ _______ _____ _____    ______ ____
ROOT
ATOM      1  C   UNL     1       2.606  -0.879   0.573  0.00  0.00    +0.051 C 
ATOM      2  C   UNL     1       1.381  -0.009   0.450  0.00  0.00    +0.040 A 
ATOM      3  C   UNL     1       0.090  -0.588   0.470  0.00  0.00    +0.196 A 
ATOM      4  O   UNL     1      -0.063  -1.792   0.587  0.00  0.00    -0.287 OA
ATOM      5  C   UNL     1      -1.064   0.324   0.345  0.00  0.00    +0.065 A 
ATOM      6  C   UNL     1      -2.372  -0.157   0.356  0.00  0.00    +0.015 A 
ATOM      7  C   UNL     1      -3.430   0.722   0.237  0.00  0.00    +0.002 A 
ATOM      8  C   UNL     1      -3.203   2.079   0.107  0.00  0.00    +0.017 A 
ATOM      9  C   UNL     1      -1.902   2.582   0.099  0.00  0.00    +0.080 A 
ATOM     10  C   UNL     1      -0.817   1.699   0.213  0.00  0.00    +0.151 A 
ATOM     11  O   UNL     1       0.449   2.156   0.204  0.00  0.00    -0.454 OA
ATOM     12  C   UNL     1       1.508   1.339   0.318  0.00  0.00    +0.142 A 
ENDROOT
BRANCH  12  13
ATOM     13  C   UNL     1       2.863   1.926   0.298  0.00  0.00    +0.018 A 
ATOM     14  C   UNL     1       3.191   2.965   1.172  0.00  0.00    +0.011 A 
ATOM     15  C   UNL     1       4.460   3.505   1.151  0.00  0.00    +0.001 A 
ATOM     16  C   UNL     1       5.404   3.027   0.259  0.00  0.00    +0.000 A 
ATOM     17  C   UNL     1       5.085   2.001  -0.613  0.00  0.00    +0.001 A 
ATOM     18  C   UNL     1       3.821   1.448  -0.600  0.00  0.00    +0.011 A 
ENDBRANCH  12  13
BRANCH   9  19
ATOM     19  C   UNL     1      -1.667   4.032  -0.040  0.00  0.00    +0.248 C 
ATOM     20  O   UNL     1      -0.531   4.465  -0.056  0.00  0.00    -0.270 OA
ATOM     21  N   UNL     1      -2.712   4.876  -0.150  0.00  0.00    -0.312 N 
ATOM     22  H   UNL     1      -3.618   4.531  -0.138  0.00  0.00    +0.149 HD
BRANCH  21  23
ATOM     23  C   UNL     1      -2.479   6.316  -0.288  0.00  0.00    +0.094 C 
BRANCH  23  24
ATOM     24  C   UNL     1      -3.821   7.049  -0.323  0.00  0.00    -0.021 C 
BRANCH  24  25
ATOM     25  C   UNL     1      -4.594   6.623  -1.545  0.00  0.00    -0.059 A 
ATOM     26  C   UNL     1      -4.302   7.181  -2.776  0.00  0.00    +0.005 A 
ATOM     27  C   UNL     1      -5.005   6.789  -3.898  0.00  0.00    +0.046 A 
ATOM     28  C   UNL     1      -6.014   5.842  -3.787  0.00  0.00    +0.120 A 
ATOM     29  C   UNL     1      -6.309   5.288  -2.550  0.00  0.00    +0.046 A 
ATOM     30  C   UNL     1      -5.598   5.679  -1.432  0.00  0.00    +0.005 A 
BRANCH  28  31
ATOM     31  O   UNL     1      -6.711   5.459  -4.889  0.00  0.00    -0.495 OA
ATOM     32  C   UNL     1      -6.353   6.072  -6.129  0.00  0.00    +0.277 C 
ENDBRANCH  28  31
ENDBRANCH  24  25
BRANCH  24  35
ATOM     33  C   UNL     1      -4.856   9.237  -0.372  0.00  0.00    -0.096 C 
ATOM     34  C   UNL     1      -2.726   8.930   0.736  0.00  0.00    -0.096 C 
ATOM     35  N   UNL     1      -3.573   8.504  -0.397  0.00  0.00    +0.382 N 
ATOM     36  H   UNL     1      -3.085   8.715  -1.276  0.00  0.00    -0.082 HD
ENDBRANCH  24  35
ENDBRANCH  23  24
ENDBRANCH  21  23
ENDBRANCH   9  19
TORSDOF 7
