REMARK  Name = ZINC21047896
REMARK  10 active torsions:
REMARK  status: ('A' for Active; 'I' for Inactive)
REMARK    1  A    between atoms: C_1  and  C_2
REMARK    2  A    between atoms: C_2  and  C_3
REMARK    3  A    between atoms: C_3  and  C_5
REMARK    4  A    between atoms: C_3  and  C_6
REMARK    5  A    between atoms: C_6  and  C_8
REMARK    6  A    between atoms: C_6  and  N_21
REMARK    7  A    between atoms: N_10  and  C_11
REMARK    8  A    between atoms: C_11  and  C_12
REMARK    9  A    between atoms: C_12  and  S_13
REMARK   10  A    between atoms: S_13  and  C_14
REMARK                            x       y       z     vdW  Elec       q    Type
REMARK                         _______ _______ _______ _____ _____    ______ ____
ROOT
ATOM      1  C   UNL     1      -0.507   1.232   3.649  0.00  0.00    +0.234 C 
ATOM      2  O   UNL     1      -1.572   1.808   3.716  0.00  0.00    -0.274 OA
ATOM      3  N   UNL     1      -0.005   0.879   2.449  0.00  0.00    -0.313 N 
ATOM      4  H   UNL     1       0.961   0.357   2.388  0.00  0.00    +0.149 HD
ENDROOT
BRANCH   1   5
ATOM      5  C   UNL     1       0.256   0.910   4.909  0.00  0.00    +0.163 C 
BRANCH   5   6
ATOM      6  N   UNL     1      -0.656   0.943   6.054  0.00  0.00    -0.288 N 
ATOM      7  C   UNL     1      -1.272   2.092   6.393  0.00  0.00    +0.298 C 
ATOM      8  O   UNL     1      -1.007   3.121   5.801  0.00  0.00    -0.253 OA
ATOM      9  N   UNL     1      -2.182   2.102   7.387  0.00  0.00    -0.313 N 
ATOM     10  H   UNL     1      -0.839   0.028   6.638  0.00  0.00    +0.151 HD
ATOM     11  H   UNL     1      -2.684   3.041   7.664  0.00  0.00    +0.146 HD
ATOM     12  H   UNL     1      -2.421   1.172   7.923  0.00  0.00    +0.146 HD
ENDBRANCH   5   6
BRANCH   5  13
ATOM     13  C   UNL     1       1.366   1.944   5.111  0.00  0.00    +0.015 C 
ATOM     14  C   UNL     1       2.054   1.698   6.455  0.00  0.00    +0.010 C 
BRANCH  13  16
ATOM     15  C   UNL     1       3.433   2.932   4.114  0.00  0.00    +0.004 C 
ATOM     16  C   UNL     1       2.391   1.819   3.982  0.00  0.00    +0.002 C 
ENDBRANCH  13  16
ENDBRANCH   5  13
ENDBRANCH   1   5
BRANCH   3  17
ATOM     17  C   UNL     1      -0.747   1.192   1.225  0.00  0.00    +0.115 C 
BRANCH  17  18
ATOM     18  C   UNL     1       0.036   0.687   0.011  0.00  0.00    +0.093 C 
BRANCH  18  19
ATOM     19  S   UNL     1      -0.883   1.075  -1.504  0.00  0.00    -0.124 S 
BRANCH  19  20
ATOM     20  C   UNL     1       0.136   0.438  -2.794  0.00  0.00    +0.008 A 
ATOM     21  C   UNL     1       1.341  -0.181  -2.488  0.00  0.00    +0.016 A 
ATOM     22  C   UNL     1       2.135  -0.683  -3.501  0.00  0.00    +0.021 A 
ATOM     23  C   UNL     1       1.735  -0.560  -4.820  0.00  0.00    +0.041 A 
ATOM     24  C   UNL     1       0.537   0.061  -5.128  0.00  0.00    +0.021 A 
ATOM     25  C   UNL     1      -0.263   0.560  -4.120  0.00  0.00    +0.016 A 
ATOM     26 CL   UNL     1       2.738  -1.188  -6.091  0.00  0.00    -0.084 Cl
ENDBRANCH  19  20
ENDBRANCH  18  19
ENDBRANCH  17  18
ENDBRANCH   3  17
TORSDOF 8
