REMARK  Name = ZINC36844763
REMARK  8 active torsions:
REMARK  status: ('A' for Active; 'I' for Inactive)
REMARK    1  A    between atoms: C_1  and  C_2
REMARK    2  A    between atoms: C_2  and  C_3
REMARK    3  A    between atoms: C_3  and  C_4
REMARK    4  A    between atoms: C_4  and  C_5
REMARK    5  A    between atoms: C_8  and  C_11
REMARK    6  A    between atoms: C_17  and  C_19
REMARK    7  A    between atoms: C_19  and  N_20
REMARK    8  A    between atoms: C_26  and  C_29
REMARK                            x       y       z     vdW  Elec       q    Type
REMARK                         _______ _______ _______ _____ _____    ______ ____
ROOT
ATOM      1  C   UNL     1      -6.815  -4.057   0.045  0.00  0.00    +0.080 A 
ATOM      2  C   UNL     1      -7.470  -4.299  -1.130  0.00  0.00    +0.076 A 
ATOM      3  S   UNL     1      -9.046  -4.881  -0.517  0.00  0.00    -0.060 S 
ATOM      4  C   UNL     1      -8.673  -4.742   1.225  0.00  0.00    +0.165 A 
ATOM      5  N   UNL     1      -7.433  -4.290   1.194  0.00  0.00    -0.225 NA
ATOM      6  N   UNL     1      -9.473  -5.038   2.322  0.00  0.00    -0.263 N 
ATOM      7  C   UNL     1     -10.725  -5.501   2.138  0.00  0.00    +0.237 C 
ATOM      8  O   UNL     1     -11.153  -5.660   1.014  0.00  0.00    -0.274 OA
ATOM      9  H   UNL     1      -9.130  -4.910   3.221  0.00  0.00    +0.157 HD
ENDROOT
BRANCH   1  13
ATOM     10  C   UNL     1      -2.826  -2.585   0.015  0.00  0.00    -0.047 A 
ATOM     11  C   UNL     1      -3.463  -2.825   1.220  0.00  0.00    +0.004 A 
ATOM     12  C   UNL     1      -4.758  -3.302   1.235  0.00  0.00    +0.010 A 
ATOM     13  C   UNL     1      -5.424  -3.543   0.035  0.00  0.00    +0.001 A 
ATOM     14  C   UNL     1      -4.777  -3.299  -1.176  0.00  0.00    +0.010 A 
ATOM     15  C   UNL     1      -3.484  -2.817  -1.179  0.00  0.00    +0.004 A 
BRANCH  10  16
ATOM     16  C   UNL     1      -1.413  -2.063   0.004  0.00  0.00    +0.035 C 
BRANCH  16  17
ATOM     17  C   UNL     1      -1.433  -0.534   0.013  0.00  0.00    +0.004 C 
BRANCH  17  19
ATOM     18  C   UNL     1      -0.019   1.526   0.010  0.00  0.00    +0.004 C 
ATOM     19  C   UNL     1       0.002  -0.004   0.002  0.00  0.00    -0.003 C 
ENDBRANCH  17  19
ENDBRANCH  16  17
ENDBRANCH  10  16
ENDBRANCH   1  13
BRANCH   7  20
ATOM     20  C   UNL     1     -11.593  -5.821   3.327  0.00  0.00    +0.214 C 
BRANCH  20  21
ATOM     21  N   UNL     1     -12.897  -6.303   2.865  0.00  0.00    -0.215 N 
ATOM     22  C   UNL     1     -13.957  -5.505   2.620  0.00  0.00    +0.247 C 
ATOM     23  O   UNL     1     -14.011  -4.300   2.736  0.00  0.00    -0.273 OA
ATOM     24  C   UNL     1     -15.064  -6.431   2.170  0.00  0.00    +0.113 C 
ATOM     25  C   UNL     1     -15.498  -6.090   0.749  0.00  0.00    +0.035 C 
ATOM     26  C   UNL     1     -16.597  -7.058   0.302  0.00  0.00    +0.006 C 
ATOM     27  C   UNL     1     -17.787  -6.951   1.257  0.00  0.00    -0.014 C 
ATOM     28  C   UNL     1     -17.341  -7.319   2.673  0.00  0.00    +0.006 C 
ATOM     29  C   UNL     1     -16.246  -6.353   3.129  0.00  0.00    +0.035 C 
ATOM     30  C   UNL     1     -18.891  -7.910   0.804  0.00  0.00    +0.007 C 
ATOM     31  N   UNL     1     -14.452  -7.766   2.215  0.00  0.00    -0.285 N 
ATOM     32  C   UNL     1     -13.182  -7.589   2.627  0.00  0.00    +0.310 C 
ATOM     33  O   UNL     1     -12.386  -8.496   2.772  0.00  0.00    -0.252 OA
ATOM     34  H   UNL     1     -14.877  -8.607   1.988  0.00  0.00    +0.151 HD
ENDBRANCH  20  21
ENDBRANCH   7  20
TORSDOF 6
