REMARK  Name = ZINC16434074
REMARK  15 active torsions:
REMARK  status: ('A' for Active; 'I' for Inactive)
REMARK    1  A    between atoms: C_1  and  C_2
REMARK    2  A    between atoms: C_2  and  C_3
REMARK    3  A    between atoms: C_3  and  C_4
REMARK    4  A    between atoms: C_4  and  N_5
REMARK    5  A    between atoms: N_5  and  C_6
REMARK    6  A    between atoms: C_6  and  C_7
REMARK    7  A    between atoms: N_9  and  C_10
REMARK    8  A    between atoms: C_12  and  C_22
REMARK    9  A    between atoms: N_14  and  C_15
REMARK   10  A    between atoms: C_18  and  C_21
REMARK   11  A    between atoms: C_22  and  C_23
REMARK   12  A    between atoms: C_22  and  C_24
REMARK   13  A    between atoms: C_22  and  C_25
REMARK   14  A    between atoms: C_26  and  C_28
REMARK   15  A    between atoms: C_31  and  C_34
REMARK                            x       y       z     vdW  Elec       q    Type
REMARK                         _______ _______ _______ _____ _____    ______ ____
ROOT
ATOM      1  C   UNL     1      -1.089   5.034  -0.158  0.00  0.00    +0.204 C 
ENDROOT
BRANCH   1   2
ATOM      2  C   UNL     1      -0.244   3.984   0.515  0.00  0.00    +0.236 C 
ATOM      3  O   UNL     1      -0.772   3.032   1.050  0.00  0.00    -0.274 OA
ATOM      4  N   UNL     1       1.098   4.102   0.522  0.00  0.00    -0.269 N 
ATOM      5  H   UNL     1       1.521   4.861   0.090  0.00  0.00    +0.156 HD
BRANCH   4   6
ATOM      6  C   UNL     1       1.880   3.130   1.145  0.00  0.00    +0.129 A 
ATOM      7  C   UNL     1       1.425   2.018   1.785  0.00  0.00    +0.069 A 
ATOM      8  C   UNL     1       2.533   1.314   2.264  0.00  0.00    +0.071 A 
ATOM      9  N   UNL     1       3.616   1.968   1.930  0.00  0.00    -0.169 NA
ATOM     10  N   UNL     1       3.239   3.115   1.219  0.00  0.00    -0.218 N 
BRANCH  10  11
ATOM     11  C   UNL     1       4.106   4.077   0.682  0.00  0.00    +0.067 A 
ATOM     12  C   UNL     1       3.795   4.701  -0.518  0.00  0.00    +0.028 A 
ATOM     13  C   UNL     1       4.648   5.653  -1.041  0.00  0.00    +0.005 A 
ATOM     14  C   UNL     1       5.817   5.976  -0.376  0.00  0.00    -0.050 A 
ATOM     15  C   UNL     1       6.133   5.351   0.817  0.00  0.00    +0.005 A 
ATOM     16  C   UNL     1       5.280   4.403   1.348  0.00  0.00    +0.028 A 
ATOM     17  C   UNL     1       6.749   7.010  -0.953  0.00  0.00    +0.044 C 
ENDBRANCH  10  11
BRANCH   8  18
ATOM     18  C   UNL     1       2.489   0.020   3.034  0.00  0.00    +0.006 C 
ATOM     19  C   UNL     1       2.164  -1.131   2.080  0.00  0.00    +0.017 C 
ATOM     20  C   UNL     1       3.848  -0.230   3.690  0.00  0.00    +0.017 C 
ATOM     21  C   UNL     1       1.409   0.106   4.115  0.00  0.00    +0.017 C 
ENDBRANCH   8  18
ENDBRANCH   4   6
ENDBRANCH   1   2
BRANCH   1  22
ATOM     22  N   UNL     1      -2.505   4.679  -0.028  0.00  0.00    -0.289 N 
ATOM     23  C   UNL     1      -3.182   4.209  -1.094  0.00  0.00    +0.247 C 
ATOM     24  O   UNL     1      -4.371   3.970  -1.002  0.00  0.00    -0.270 OA
BRANCH  23  25
ATOM     25  C   UNL     1      -2.480   3.984  -2.375  0.00  0.00    +0.037 A 
ATOM     26  C   UNL     1      -1.116   3.685  -2.381  0.00  0.00    +0.013 A 
ATOM     27  C   UNL     1      -0.464   3.471  -3.574  0.00  0.00    +0.009 A 
ATOM     28  C   UNL     1      -1.163   3.562  -4.778  0.00  0.00    -0.018 A 
ATOM     29  C   UNL     1      -2.524   3.866  -4.773  0.00  0.00    +0.009 A 
ATOM     30  C   UNL     1      -3.179   4.076  -3.581  0.00  0.00    +0.013 A 
BRANCH  28  31
ATOM     31  C   UNL     1      -0.458   3.337  -6.063  0.00  0.00    -0.018 A 
ATOM     32  C   UNL     1      -1.155   3.422  -7.267  0.00  0.00    +0.008 A 
ATOM     33  C   UNL     1      -0.493   3.216  -8.460  0.00  0.00    +0.001 A 
ATOM     34  C   UNL     1       0.857   2.915  -8.462  0.00  0.00    +0.000 A 
ATOM     35  C   UNL     1       1.552   2.824  -7.270  0.00  0.00    +0.001 A 
ATOM     36  C   UNL     1       0.902   3.033  -6.071  0.00  0.00    +0.008 A 
ENDBRANCH  28  31
ENDBRANCH  23  25
BRANCH  22  37
ATOM     37  C   UNL     1      -3.184   4.835   1.260  0.00  0.00    +0.108 C 
BRANCH  37  38
ATOM     38  C   UNL     1      -3.750   6.253   1.370  0.00  0.00    +0.019 C 
BRANCH  38  40
ATOM     39  C   UNL     1      -5.026   7.833   2.825  0.00  0.00    +0.004 C 
ATOM     40  C   UNL     1      -4.460   6.416   2.716  0.00  0.00    -0.002 C 
ENDBRANCH  38  40
ENDBRANCH  37  38
ENDBRANCH  22  37
ENDBRANCH   1  22
TORSDOF 10
