REMARK  Name = ZINC09382093
REMARK  6 active torsions:
REMARK  status: ('A' for Active; 'I' for Inactive)
REMARK    1  A    between atoms: C_4  and  C_7
REMARK    2  A    between atoms: C_7  and  S_8
REMARK    3  A    between atoms: S_8  and  C_9
REMARK    4  A    between atoms: C_12  and  C_21
REMARK    5  A    between atoms: N_13  and  C_14
REMARK    6  A    between atoms: C_21  and  C_22
REMARK                            x       y       z     vdW  Elec       q    Type
REMARK                         _______ _______ _______ _____ _____    ______ ____
ROOT
ATOM      1  C   UNL     1       5.786  -1.866   1.477  0.00  0.00    +0.196 A 
ATOM      2  N   UNL     1       6.367  -2.186   0.344  0.00  0.00    -0.122 NA
ATOM      3  N   UNL     1       7.469  -2.804   0.578  0.00  0.00    -0.133 NA
ATOM      4  C   UNL     1       7.658  -2.917   1.862  0.00  0.00    +0.144 A 
ATOM      5  N   UNL     1       6.595  -2.318   2.484  0.00  0.00    -0.274 N 
ENDROOT
BRANCH   5   6
ATOM      6  C   UNL     1       6.379  -2.196   3.864  0.00  0.00    +0.050 A 
ATOM      7  C   UNL     1       7.236  -1.423   4.636  0.00  0.00    +0.028 A 
ATOM      8  C   UNL     1       7.021  -1.304   5.995  0.00  0.00    +0.022 A 
ATOM      9  C   UNL     1       5.953  -1.954   6.588  0.00  0.00    +0.041 A 
ATOM     10  C   UNL     1       5.097  -2.724   5.820  0.00  0.00    +0.022 A 
ATOM     11  C   UNL     1       5.304  -2.841   4.460  0.00  0.00    +0.028 A 
ATOM     12 CL   UNL     1       5.686  -1.803   8.296  0.00  0.00    -0.084 Cl
ENDBRANCH   5   6
BRANCH   1  13
ATOM     13  S   UNL     1       4.257  -1.011   1.666  0.00  0.00    -0.081 S 
BRANCH  13  14
ATOM     14  C   UNL     1       3.711  -0.707  -0.038  0.00  0.00    +0.112 C 
BRANCH  14  18
ATOM     15  C   UNL     1      -0.017   1.378   0.010  0.00  0.00    +0.000 A 
ATOM     16  C   UNL     1       1.171   2.086   0.002  0.00  0.00    +0.000 A 
ATOM     17  C   UNL     1       2.377   1.411  -0.013  0.00  0.00    +0.004 A 
ATOM     18  C   UNL     1       2.396   0.029  -0.020  0.00  0.00    -0.037 A 
ATOM     19  C   UNL     1       1.208  -0.679  -0.012  0.00  0.00    +0.004 A 
ATOM     20  C   UNL     1       0.002  -0.004   0.002  0.00  0.00    +0.000 A 
ENDBRANCH  14  18
ENDBRANCH  13  14
ENDBRANCH   1  13
BRANCH   4  21
ATOM     21  C   UNL     1       8.831  -3.578   2.538  0.00  0.00    +0.130 C 
BRANCH  21  22
ATOM     22  C   UNL     1       9.917  -2.559   2.771  0.00  0.00    +0.033 A 
ATOM     23  C   UNL     1      10.009  -1.926   3.959  0.00  0.00    +0.091 A 
ATOM     24  C   UNL     1      11.038  -0.973   4.154  0.00  0.00    +0.254 A 
ATOM     25  O   UNL     1      11.142  -0.389   5.218  0.00  0.00    -0.268 OA
ATOM     26  N   UNL     1      11.902  -0.718   3.151  0.00  0.00    -0.275 N 
ATOM     27  H   UNL     1      12.610  -0.067   3.276  0.00  0.00    +0.173 HD
ATOM     28  C   UNL     1      11.787  -1.364   1.976  0.00  0.00    +0.327 A 
ATOM     29  O   UNL     1      12.574  -1.124   1.080  0.00  0.00    -0.247 OA
ATOM     30  N   UNL     1      10.817  -2.276   1.780  0.00  0.00    -0.311 N 
ATOM     31  H   UNL     1      10.753  -2.734   0.927  0.00  0.00    +0.170 HD
ENDBRANCH  21  22
ENDBRANCH   4  21
TORSDOF 6
