REMARK  Name = ZINC09591998
REMARK  7 active torsions:
REMARK  status: ('A' for Active; 'I' for Inactive)
REMARK    1  A    between atoms: C_1  and  C_2
REMARK    2  A    between atoms: N_11  and  C_15
REMARK    3  A    between atoms: C_15  and  C_16
REMARK    4  A    between atoms: N_18  and  C_19
REMARK    5  A    between atoms: C_24  and  C_25
REMARK    6  A    between atoms: N_27  and  C_28
REMARK    7  A    between atoms: C_28  and  C_29
REMARK                            x       y       z     vdW  Elec       q    Type
REMARK                         _______ _______ _______ _____ _____    ______ ____
ROOT
ATOM      1  C   UNL     1       4.699   4.500   0.379  0.00  0.00    +0.235 C 
ATOM      2  O   UNL     1       4.612   5.695   0.571  0.00  0.00    -0.274 OA
ATOM      3  N   UNL     1       3.585   3.767   0.185  0.00  0.00    -0.284 N 
ATOM      4  H   UNL     1       3.647   2.802   0.108  0.00  0.00    +0.155 HD
ENDROOT
BRANCH   3   5
ATOM      5  C   UNL     1       2.345   4.394   0.096  0.00  0.00    +0.046 A 
ATOM      6  C   UNL     1       2.235   5.642  -0.502  0.00  0.00    +0.024 A 
ATOM      7  C   UNL     1       1.006   6.264  -0.584  0.00  0.00    +0.002 A 
ATOM      8  C   UNL     1      -0.127   5.648  -0.077  0.00  0.00    +0.001 A 
ATOM      9  C   UNL     1      -0.038   4.408   0.516  0.00  0.00    +0.015 A 
ATOM     10  C   UNL     1       1.199   3.766   0.607  0.00  0.00    +0.058 A 
BRANCH  10  11
ATOM     11  C   UNL     1       1.301   2.438   1.241  0.00  0.00    +0.246 C 
ATOM     12  O   UNL     1       2.361   1.842   1.238  0.00  0.00    -0.270 OA
ATOM     13  N   UNL     1       0.220   1.884   1.824  0.00  0.00    -0.307 N 
ATOM     14  H   UNL     1      -0.627   2.358   1.824  0.00  0.00    +0.149 HD
BRANCH  13  15
ATOM     15  C   UNL     1       0.321   0.565   2.454  0.00  0.00    +0.139 C 
BRANCH  15  16
ATOM     16  C   UNL     1      -1.018   0.178   3.027  0.00  0.00    -0.030 A 
ATOM     17  C   UNL     1      -1.335   0.514   4.330  0.00  0.00    +0.005 A 
ATOM     18  C   UNL     1      -2.565   0.164   4.855  0.00  0.00    +0.000 A 
ATOM     19  C   UNL     1      -3.474  -0.532   4.080  0.00  0.00    +0.000 A 
ATOM     20  C   UNL     1      -3.154  -0.873   2.779  0.00  0.00    +0.000 A 
ATOM     21  C   UNL     1      -1.926  -0.518   2.252  0.00  0.00    +0.005 A 
ENDBRANCH  15  16
ENDBRANCH  13  15
ENDBRANCH  10  11
ENDBRANCH   3   5
BRANCH   1  22
ATOM     22  C   UNL     1       6.052   3.837   0.357  0.00  0.00    +0.214 C 
BRANCH  22  32
ATOM     23  C   UNL     1      10.405   4.646   0.119  0.00  0.00    +0.010 C 
ATOM     24  C   UNL     1      10.112   6.128  -0.126  0.00  0.00    +0.018 C 
ATOM     25  C   UNL     1      10.265   6.438  -1.617  0.00  0.00    +0.006 C 
ATOM     26  C   UNL     1       9.953   7.915  -1.865  0.00  0.00    +0.000 C 
ATOM     27  C   UNL     1       8.514   8.212  -1.437  0.00  0.00    +0.003 C 
ATOM     28  C   UNL     1       8.354   7.909   0.055  0.00  0.00    +0.035 C 
ATOM     29  C   UNL     1       8.688   6.445   0.318  0.00  0.00    +0.115 C 
ATOM     30  C   UNL     1       7.706   5.540  -0.387  0.00  0.00    +0.247 C 
ATOM     31  O   UNL     1       7.509   5.459  -1.581  0.00  0.00    -0.273 OA
ATOM     32  N   UNL     1       7.092   4.841   0.591  0.00  0.00    -0.215 N 
ATOM     33  C   UNL     1       7.556   5.176   1.801  0.00  0.00    +0.310 C 
ATOM     34  O   UNL     1       7.160   4.681   2.838  0.00  0.00    -0.252 OA
ATOM     35  N   UNL     1       8.511   6.125   1.741  0.00  0.00    -0.285 N 
ATOM     36  H   UNL     1       8.986   6.518   2.489  0.00  0.00    +0.151 HD
ENDBRANCH  22  32
ENDBRANCH   1  22
TORSDOF 6
