REMARK  Name = ZINC39595612
REMARK  7 active torsions:
REMARK  status: ('A' for Active; 'I' for Inactive)
REMARK    1  A    between atoms: C_1  and  C_2
REMARK    2  A    between atoms: C_2  and  C_4
REMARK    3  A    between atoms: C_2  and  O_31
REMARK    4  A    between atoms: C_4  and  N_5
REMARK    5  A    between atoms: C_6  and  C_8
REMARK    6  A    between atoms: C_19  and  C_21
REMARK    7  A    between atoms: O_31  and  C_32
REMARK                            x       y       z     vdW  Elec       q    Type
REMARK                         _______ _______ _______ _____ _____    ______ ____
ROOT
ATOM      1  C   UNL     1       1.755  -4.167   2.090  0.00  0.00    +0.100 C 
ATOM      2  C   UNL     1       2.756  -4.582   0.988  0.00  0.00    +0.121 C 
ATOM      3  N   UNL     1       4.045  -4.753   1.699  0.00  0.00    -0.296 N 
ATOM      4  C   UNL     1       3.675  -5.395   2.984  0.00  0.00    +0.115 C 
ATOM      5  C   UNL     1       2.360  -4.705   3.397  0.00  0.00    -0.004 C 
ATOM      6  C   UNL     1       1.414  -5.715   4.040  0.00  0.00    -0.010 C 
ATOM      7  C   UNL     1       2.010  -6.192   5.367  0.00  0.00    -0.082 C 
ATOM      8  N   UNL     1       2.210  -5.043   6.258  0.00  0.00    +0.379 N 
ATOM      9  C   UNL     1       3.193  -4.122   5.673  0.00  0.00    -0.082 C 
ATOM     10  C   UNL     1       2.647  -3.557   4.359  0.00  0.00    -0.010 C 
ATOM     11  C   UNL     1       5.276  -4.404   1.274  0.00  0.00    +0.247 C 
ATOM     12  O   UNL     1       5.407  -3.785   0.237  0.00  0.00    -0.270 OA
ATOM     13  H   UNL     1       1.333  -4.560   6.385  0.00  0.00    -0.086 HD
ATOM     14  H   UNL     1       2.546  -5.367   7.153  0.00  0.00    -0.086 HD
ENDROOT
BRANCH  11  15
ATOM     15  C   UNL     1       6.465  -4.775   2.070  0.00  0.00    +0.037 A 
ATOM     16  C   UNL     1       6.409  -5.885   2.933  0.00  0.00    +0.013 A 
ATOM     17  C   UNL     1       7.487  -6.245   3.674  0.00  0.00    +0.009 A 
ATOM     18  C   UNL     1       8.681  -5.506   3.585  0.00  0.00    -0.018 A 
ATOM     19  C   UNL     1       9.811  -5.860   4.342  0.00  0.00    +0.008 A 
ATOM     20  C   UNL     1      10.952  -5.125   4.234  0.00  0.00    +0.001 A 
ATOM     21  C   UNL     1      11.020  -4.024   3.383  0.00  0.00    +0.001 A 
ATOM     22  C   UNL     1       9.947  -3.651   2.635  0.00  0.00    +0.008 A 
ATOM     23  C   UNL     1       8.750  -4.385   2.719  0.00  0.00    -0.017 A 
ATOM     24  C   UNL     1       7.627  -4.031   1.956  0.00  0.00    +0.021 A 
ENDBRANCH  11  15
BRANCH   1  26
ATOM     25  N   UNL     1       0.549  -2.100   2.716  0.00  0.00    -0.312 N 
ATOM     26  C   UNL     1       1.632  -2.666   2.148  0.00  0.00    +0.218 C 
ATOM     27  O   UNL     1       2.508  -1.967   1.684  0.00  0.00    -0.275 OA
ATOM     28  H   UNL     1      -0.152  -2.659   3.087  0.00  0.00    +0.149 HD
BRANCH  25  29
ATOM     29  C   UNL     1       0.429  -0.641   2.773  0.00  0.00    +0.148 C 
BRANCH  29  31
ATOM     30  C   UNL     1      -1.068   1.255   3.411  0.00  0.00    +0.053 C 
ATOM     31  C   UNL     1      -0.884  -0.263   3.462  0.00  0.00    +0.187 C 
BRANCH  31  32
ATOM     32  O   UNL     1      -0.847  -0.693   4.824  0.00  0.00    -0.488 OA
BRANCH  32  33
ATOM     33  C   UNL     1      -2.042  -0.919   5.433  0.00  0.00    +0.121 A 
ATOM     34  C   UNL     1      -3.219  -0.834   4.704  0.00  0.00    +0.048 A 
ATOM     35  C   UNL     1      -4.432  -1.064   5.323  0.00  0.00    +0.042 A 
ATOM     36  C   UNL     1      -4.473  -1.379   6.671  0.00  0.00    +0.124 A 
ATOM     37  C   UNL     1      -3.299  -1.463   7.400  0.00  0.00    +0.042 A 
ATOM     38  C   UNL     1      -2.084  -1.240   6.781  0.00  0.00    +0.048 A 
ATOM     39  F   UNL     1      -5.660  -1.603   7.276  0.00  0.00    -0.205 F 
ENDBRANCH  32  33
ENDBRANCH  31  32
ENDBRANCH  29  31
ENDBRANCH  25  29
ENDBRANCH   1  26
TORSDOF 6
