REMARK  Name = ZINC36029168
REMARK  8 active torsions:
REMARK  status: ('A' for Active; 'I' for Inactive)
REMARK    1  A    between atoms: C_1  and  C_2
REMARK    2  A    between atoms: C_2  and  C_3
REMARK    3  A    between atoms: C_3  and  C_5
REMARK    4  A    between atoms: C_3  and  C_6
REMARK    5  A    between atoms: N_10  and  C_31
REMARK    6  A    between atoms: N_15  and  S_18
REMARK    7  A    between atoms: S_18  and  C_21
REMARK    8  A    between atoms: C_25  and  C_27
REMARK                            x       y       z     vdW  Elec       q    Type
REMARK                         _______ _______ _______ _____ _____    ______ ____
ROOT
ATOM      1  C   UNL     1       0.655  -2.037   1.299  0.00  0.00    +0.022 C 
ATOM      2  C   UNL     1       1.462  -2.654   0.177  0.00  0.00    +0.200 C 
ATOM      3  O   UNL     1       1.477  -2.289  -0.977  0.00  0.00    -0.277 OA
ATOM      4  N   UNL     1       2.171  -3.692   0.686  0.00  0.00    -0.317 N 
ATOM      5  C   UNL     1       1.800  -3.886   2.086  0.00  0.00    +0.005 C 
ATOM      6  N   UNL     1       1.306  -2.546   2.530  0.00  0.00    +0.401 N 
ATOM      7  C   UNL     1       0.640  -4.864   2.223  0.00  0.00    +0.023 C 
ATOM      8  C   UNL     1       1.097  -6.305   1.999  0.00  0.00    +0.109 C 
ATOM      9  N   UNL     1       2.206  -6.582   2.922  0.00  0.00    -0.177 NA
ATOM     10  C   UNL     1       3.389  -5.718   2.873  0.00  0.00    +0.109 C 
ATOM     11  C   UNL     1       2.985  -4.252   2.963  0.00  0.00    +0.023 C 
ATOM     12  C   UNL     1       3.149  -4.457  -0.091  0.00  0.00    +0.130 C 
ATOM     13  H   UNL     1       2.082  -1.966   2.797  0.00  0.00    -0.082 HD
ATOM     14  H   UNL     1       0.641  -2.655   3.275  0.00  0.00    -0.082 HD
ENDROOT
BRANCH   9  15
ATOM     15  S   UNL     1       2.119  -7.844   3.990  0.00  0.00    +0.061 S 
ATOM     16  O   UNL     1       3.001  -7.532   5.060  0.00  0.00    -0.153 OA
ATOM     17  O   UNL     1       0.738  -8.109   4.195  0.00  0.00    -0.153 OA
BRANCH  15  18
ATOM     18  C   UNL     1       2.789  -9.259   3.182  0.00  0.00    +0.106 A 
ATOM     19  C   UNL     1       1.965 -10.088   2.444  0.00  0.00    +0.028 A 
ATOM     20  C   UNL     1       2.490 -11.198   1.810  0.00  0.00    +0.002 A 
ATOM     21  C   UNL     1       3.840 -11.479   1.913  0.00  0.00    +0.012 A 
ATOM     22  C   UNL     1       4.664 -10.649   2.650  0.00  0.00    +0.057 A 
ATOM     23  C   UNL     1       4.139  -9.537   3.280  0.00  0.00    +0.041 A 
BRANCH  22  24
ATOM     24  C   UNL     1       6.136 -10.955   2.762  0.00  0.00    +0.417 C 
ATOM     25  F   UNL     1       6.426 -12.119   2.042  0.00  0.00    -0.166 F 
ATOM     26  F   UNL     1       6.875  -9.888   2.242  0.00  0.00    -0.166 F 
ATOM     27  F   UNL     1       6.471 -11.143   4.107  0.00  0.00    -0.166 F 
ENDBRANCH  22  24
ENDBRANCH  15  18
ENDBRANCH   9  15
BRANCH   1  28
ATOM     28  C   UNL     1       0.742  -0.511   1.242  0.00  0.00    -0.020 C 
ATOM     29  C   UNL     1       2.210  -0.086   1.169  0.00  0.00    +0.006 C 
BRANCH  28  31
ATOM     30  C   UNL     1      -0.019   1.526   0.010  0.00  0.00    +0.004 C 
ATOM     31  C   UNL     1       0.002  -0.004   0.002  0.00  0.00    -0.001 C 
ENDBRANCH  28  31
ENDBRANCH   1  28
TORSDOF 5
