REMARK  Name = ZINC66050235
REMARK  11 active torsions:
REMARK  status: ('A' for Active; 'I' for Inactive)
REMARK    1  A    between atoms: C_1  and  C_2
REMARK    2  A    between atoms: C_2  and  C_3
REMARK    3  A    between atoms: C_2  and  C_4
REMARK    4  A    between atoms: C_2  and  C_5
REMARK    5  A    between atoms: C_8  and  C_11
REMARK    6  A    between atoms: C_11  and  C_13
REMARK    7  A    between atoms: N_15  and  N_16
REMARK    8  A    between atoms: C_17  and  C_19
REMARK    9  A    between atoms: C_23  and  O_26
REMARK   10  A    between atoms: C_24  and  O_25
REMARK   11  A    between atoms: O_26  and  C_27
REMARK                            x       y       z     vdW  Elec       q    Type
REMARK                         _______ _______ _______ _____ _____    ______ ____
ROOT
ATOM      1  C   UNL     1       4.080  -1.392  -5.032  0.00  0.00    +0.300 C 
ATOM      2  O   UNL     1       4.672  -0.695  -4.235  0.00  0.00    -0.265 OA
ATOM      3  N   UNL     1       4.673  -1.746  -6.189  0.00  0.00    -0.227 N 
ATOM      4  H   UNL     1       4.199  -2.304  -6.826  0.00  0.00    +0.173 HD
ENDROOT
BRANCH   3   5
ATOM      5  N   UNL     1       5.973  -1.309  -6.472  0.00  0.00    -0.230 N 
ATOM      6  C   UNL     1       6.566  -1.663  -7.630  0.00  0.00    +0.264 C 
ATOM      7  O   UNL     1       5.973  -2.362  -8.428  0.00  0.00    -0.269 OA
ATOM      8  H   UNL     1       6.447  -0.751  -5.835  0.00  0.00    +0.173 HD
BRANCH   6   9
ATOM      9  C   UNL     1       7.936  -1.202  -7.928  0.00  0.00    +0.083 A 
ATOM     10  C   UNL     1       8.624  -0.403  -7.010  0.00  0.00    +0.017 A 
ATOM     11  C   UNL     1       9.902   0.026  -7.292  0.00  0.00    +0.005 A 
ATOM     12  C   UNL     1      10.513  -0.331  -8.483  0.00  0.00    +0.049 A 
ATOM     13  C   UNL     1       9.845  -1.122  -9.402  0.00  0.00    +0.162 A 
ATOM     14  C   UNL     1       8.555  -1.567  -9.129  0.00  0.00    +0.171 A 
BRANCH  14  15
ATOM     15  O   UNL     1       7.899  -2.348 -10.025  0.00  0.00    -0.503 OA
ATOM     16  H   UNL     1       7.381  -1.851 -10.673  0.00  0.00    +0.292 HD
ENDBRANCH  14  15
BRANCH  13  17
ATOM     17  O   UNL     1      10.451  -1.469 -10.569  0.00  0.00    -0.491 OA
ATOM     18  C   UNL     1      11.778  -0.981 -10.780  0.00  0.00    +0.277 C 
ENDBRANCH  13  17
ENDBRANCH   6   9
ENDBRANCH   3   5
BRANCH   1  19
ATOM     19  C   UNL     1       2.694  -1.859  -4.730  0.00  0.00    +0.249 C 
ATOM     20  O   UNL     1       2.138  -2.634  -5.480  0.00  0.00    -0.282 OA
BRANCH  19  24
ATOM     21  C   UNL     1       0.701  -0.477  -1.247  0.00  0.00    -0.042 A 
ATOM     22  C   UNL     1       0.019  -1.254  -2.167  0.00  0.00    +0.005 A 
ATOM     23  C   UNL     1       0.659  -1.707  -3.301  0.00  0.00    +0.012 A 
ATOM     24  C   UNL     1       2.002  -1.378  -3.521  0.00  0.00    +0.027 A 
ATOM     25  C   UNL     1       2.683  -0.592  -2.586  0.00  0.00    +0.012 A 
ATOM     26  C   UNL     1       2.028  -0.143  -1.459  0.00  0.00    +0.005 A 
BRANCH  21  28
ATOM     27  C   UNL     1      -0.001   1.544   0.008  0.00  0.00    +0.015 C 
ATOM     28  C   UNL     1      -0.007   0.014  -0.010  0.00  0.00    -0.013 C 
ATOM     29  C   UNL     1       0.713  -0.513   1.232  0.00  0.00    +0.015 C 
ATOM     30  C   UNL     1      -1.451  -0.490  -0.015  0.00  0.00    +0.015 C 
ENDBRANCH  21  28
ENDBRANCH  19  24
ENDBRANCH   1  19
TORSDOF 7
