REMARK  Name = ZINC62038631
REMARK  7 active torsions:
REMARK  status: ('A' for Active; 'I' for Inactive)
REMARK    1  A    between atoms: C_1  and  C_2
REMARK    2  A    between atoms: C_2  and  C_4
REMARK    3  A    between atoms: C_2  and  S_15
REMARK    4  A    between atoms: N_6  and  C_7
REMARK    5  A    between atoms: C_12  and  O_13
REMARK    6  A    between atoms: S_15  and  C_16
REMARK    7  A    between atoms: C_18  and  C_25
REMARK                            x       y       z     vdW  Elec       q    Type
REMARK                         _______ _______ _______ _____ _____    ______ ____
ROOT
ATOM      1  S   UNL     1       0.935  -0.724   1.725  0.00  0.00    -0.093 S 
ENDROOT
BRANCH   1   2
ATOM      2  C   UNL     1      -0.027  -0.193   3.103  0.00  0.00    +0.110 A 
ATOM      3  C   UNL     1       0.314  -0.605   4.420  0.00  0.00    +0.047 A 
ATOM      4  C   UNL     1       1.407  -1.458   4.875  0.00  0.00    +0.001 A 
ATOM      5  C   UNL     1       1.528  -1.711   6.199  0.00  0.00    +0.056 A 
ATOM      6  S   UNL     1       0.169  -0.810   6.920  0.00  0.00    -0.076 S 
ATOM      7  C   UNL     1      -0.526  -0.119   5.442  0.00  0.00    +0.113 A 
ATOM      8  N   UNL     1      -1.554   0.664   5.174  0.00  0.00    -0.228 NA
ATOM      9  C   UNL     1      -1.820   1.013   3.930  0.00  0.00    +0.223 A 
ATOM     10  N   UNL     1      -1.073   0.599   2.924  0.00  0.00    -0.228 NA
BRANCH   4  11
ATOM     11  C   UNL     1       2.366  -2.038   3.905  0.00  0.00    -0.016 A 
ATOM     12  C   UNL     1       3.114  -1.203   3.076  0.00  0.00    +0.011 A 
ATOM     13  C   UNL     1       4.006  -1.747   2.175  0.00  0.00    +0.039 A 
ATOM     14  C   UNL     1       4.158  -3.122   2.092  0.00  0.00    +0.123 A 
ATOM     15  C   UNL     1       3.416  -3.956   2.913  0.00  0.00    +0.039 A 
ATOM     16  C   UNL     1       2.527  -3.421   3.821  0.00  0.00    +0.011 A 
ATOM     17  F   UNL     1       5.032  -3.650   1.208  0.00  0.00    -0.205 F 
ENDBRANCH   4  11
ENDBRANCH   1   2
BRANCH   1  19
ATOM     18  C   UNL     1       0.260   1.574   0.405  0.00  0.00    +0.029 C 
ATOM     19  C   UNL     1       0.127   0.053   0.299  0.00  0.00    +0.136 C 
BRANCH  19  20
ATOM     20  C   UNL     1       0.784  -0.421  -0.971  0.00  0.00    +0.230 C 
ATOM     21  O   UNL     1       1.899  -0.897  -0.936  0.00  0.00    -0.274 OA
ATOM     22  N   UNL     1       0.133  -0.317  -2.146  0.00  0.00    -0.282 N 
ATOM     23  H   UNL     1      -0.786  -0.007  -2.166  0.00  0.00    +0.155 HD
BRANCH  22  24
ATOM     24  C   UNL     1       0.783  -0.656  -3.340  0.00  0.00    +0.077 A 
ATOM     25  C   UNL     1       1.765  -1.636  -3.344  0.00  0.00    +0.047 A 
ATOM     26  C   UNL     1       2.405  -1.969  -4.523  0.00  0.00    +0.043 A 
ATOM     27  C   UNL     1       2.069  -1.325  -5.702  0.00  0.00    +0.023 A 
ATOM     28  C   UNL     1       1.092  -0.347  -5.705  0.00  0.00    +0.049 A 
ATOM     29  C   UNL     1       0.442  -0.013  -4.528  0.00  0.00    +0.138 A 
ATOM     30 CL   UNL     1       3.633  -3.196  -4.526  0.00  0.00    -0.083 Cl
BRANCH  29  31
ATOM     31  O   UNL     1      -0.523   0.945  -4.531  0.00  0.00    -0.505 OA
ATOM     32  H   UNL     1      -0.191   1.839  -4.374  0.00  0.00    +0.292 HD
ENDBRANCH  29  31
ENDBRANCH  22  24
ENDBRANCH  19  20
ENDBRANCH   1  19
TORSDOF 6
