REMARK  Name = ZINC11917744
REMARK  5 active torsions:
REMARK  status: ('A' for Active; 'I' for Inactive)
REMARK    1  A    between atoms: C_6  and  N_7
REMARK    2  A    between atoms: C_8  and  C_10
REMARK    3  A    between atoms: C_10  and  S_11
REMARK    4  A    between atoms: S_11  and  C_12
REMARK    5  A    between atoms: C_12  and  C_13
REMARK                            x       y       z     vdW  Elec       q    Type
REMARK                         _______ _______ _______ _____ _____    ______ ____
ROOT
ATOM      1  N   UNL     1      -2.605   4.245 -11.189  0.00  0.00    -0.285 N 
ATOM      2  C   UNL     1      -2.605   3.982  -9.867  0.00  0.00    +0.227 C 
ATOM      3  O   UNL     1      -3.597   4.205  -9.205  0.00  0.00    -0.275 OA
ATOM      4  H   UNL     1      -1.792   4.130 -11.706  0.00  0.00    +0.155 HD
ENDROOT
BRANCH   1  10
ATOM      5  C   UNL     1      -4.055   4.291 -13.120  0.00  0.00    +0.027 A 
ATOM      6  C   UNL     1      -5.215   4.718 -13.740  0.00  0.00    +0.051 A 
ATOM      7  C   UNL     1      -6.097   5.545 -13.067  0.00  0.00    +0.167 A 
ATOM      8  C   UNL     1      -5.818   5.944 -11.759  0.00  0.00    +0.169 A 
ATOM      9  C   UNL     1      -4.661   5.512 -11.138  0.00  0.00    +0.072 A 
ATOM     10  C   UNL     1      -3.778   4.682 -11.817  0.00  0.00    +0.037 A 
ATOM     11  O   UNL     1      -6.840   6.750 -11.329  0.00  0.00    -0.447 OA
ATOM     12  C   UNL     1      -7.932   6.415 -12.197  0.00  0.00    +0.254 C 
ATOM     13  O   UNL     1      -7.290   6.106 -13.443  0.00  0.00    -0.448 OA
ATOM     14  C   UNL     1      -8.902   7.591 -12.349  0.00  0.00    +0.093 C 
ATOM     15  C   UNL     1     -10.293   6.915 -12.471  0.00  0.00    +0.008 C 
ATOM     16  C   UNL     1     -10.181   5.716 -11.495  0.00  0.00    +0.008 C 
ATOM     17  C   UNL     1      -8.726   5.223 -11.665  0.00  0.00    +0.093 C 
ENDBRANCH   1  10
BRANCH   2  18
ATOM     18  C   UNL     1      -1.374   3.413  -9.211  0.00  0.00    +0.165 C 
BRANCH  18  19
ATOM     19  S   UNL     1      -1.688   3.174  -7.441  0.00  0.00    -0.144 S 
BRANCH  19  20
ATOM     20  C   UNL     1      -0.130   2.492  -6.807  0.00  0.00    +0.143 C 
BRANCH  20  21
ATOM     21  C   UNL     1      -0.257   2.243  -5.327  0.00  0.00    +0.121 A 
ATOM     22  N   UNL     1       0.800   1.731  -4.645  0.00  0.00    -0.310 N 
ATOM     23  H   UNL     1       1.621   1.532  -5.121  0.00  0.00    +0.170 HD
ATOM     24  C   UNL     1       0.730   1.492  -3.321  0.00  0.00    +0.260 A 
ATOM     25  O   UNL     1       1.686   1.031  -2.722  0.00  0.00    -0.267 OA
ATOM     26  C   UNL     1      -0.489   1.790  -2.631  0.00  0.00    +0.075 A 
ATOM     27  C   UNL     1      -0.789   1.611  -1.202  0.00  0.00    -0.023 A 
ATOM     28  C   UNL     1      -2.018   1.969  -0.790  0.00  0.00    -0.004 A 
ATOM     29  S   UNL     1      -2.841   2.554  -2.254  0.00  0.00    -0.073 S 
ATOM     30  C   UNL     1      -1.523   2.316  -3.416  0.00  0.00    +0.116 A 
ATOM     31  N   UNL     1      -1.380   2.525  -4.723  0.00  0.00    -0.226 NA
ATOM     32  C   UNL     1      -2.210   1.747   0.686  0.00  0.00    +0.043 C 
ATOM     33  C   UNL     1      -0.775   1.599   1.246  0.00  0.00    +0.010 C 
ATOM     34  C   UNL     1      -0.010   1.090   0.009  0.00  0.00    +0.037 C 
ENDBRANCH  20  21
ENDBRANCH  19  20
ENDBRANCH  18  19
ENDBRANCH   2  18
TORSDOF 5
