REMARK  Name = ZINC11904665
REMARK  8 active torsions:
REMARK  status: ('A' for Active; 'I' for Inactive)
REMARK    1  A    between atoms: C_1  and  C_2
REMARK    2  A    between atoms: C_4  and  N_23
REMARK    3  A    between atoms: C_7  and  S_8
REMARK    4  A    between atoms: S_8  and  N_11
REMARK    5  A    between atoms: N_11  and  C_12
REMARK    6  A    between atoms: C_14  and  C_19
REMARK    7  A    between atoms: C_19  and  O_21
REMARK    8  A    between atoms: O_21  and  C_22
REMARK                            x       y       z     vdW  Elec       q    Type
REMARK                         _______ _______ _______ _____ _____    ______ ____
ROOT
ATOM      1  S   UNL     1      -1.371   1.873  -0.096  0.00  0.00    +0.073 S 
ATOM      2  O   UNL     1      -0.080   1.308   0.084  0.00  0.00    -0.150 OA
ATOM      3  O   UNL     1      -2.536   1.075  -0.255  0.00  0.00    -0.150 OA
ENDROOT
BRANCH   1  10
ATOM      4  C   UNL     1       0.786   3.943  -0.537  0.00  0.00    +0.046 C 
ATOM      5  C   UNL     1      -0.247   3.831  -1.628  0.00  0.00    -0.022 A 
ATOM      6  C   UNL     1      -0.168   4.647  -2.740  0.00  0.00    +0.030 A 
ATOM      7  C   UNL     1      -1.121   4.544  -3.744  0.00  0.00    +0.060 A 
ATOM      8  C   UNL     1      -2.151   3.619  -3.628  0.00  0.00    +0.027 A 
ATOM      9  C   UNL     1      -2.221   2.803  -2.517  0.00  0.00    +0.031 A 
ATOM     10  C   UNL     1      -1.274   2.912  -1.515  0.00  0.00    +0.111 A 
BRANCH   7  11
ATOM     11  N   UNL     1      -1.044   5.369  -4.872  0.00  0.00    -0.144 N 
ATOM     12  C   UNL     1      -0.452   6.572  -4.930  0.00  0.00    +0.240 C 
ATOM     13  O   UNL     1       0.111   7.034  -3.961  0.00  0.00    -0.274 OA
ATOM     14  C   UNL     1      -0.500   7.330  -6.222  0.00  0.00    +0.122 C 
ATOM     15  C   UNL     1      -0.837   6.340  -7.368  0.00  0.00    +0.198 C 
ATOM     16  S   UNL     1      -1.679   5.034  -6.384  0.00  0.00    +0.052 S 
ATOM     17  O   UNL     1      -1.191   3.744  -6.729  0.00  0.00    -0.155 OA
ATOM     18  O   UNL     1      -3.073   5.294  -6.281  0.00  0.00    -0.155 OA
ENDBRANCH   7  11
ENDBRANCH   1  10
BRANCH   1  19
ATOM     19  N   UNL     1      -1.644   2.853   1.211  0.00  0.00    -0.215 N 
ATOM     20  H   UNL     1      -1.007   2.876   1.942  0.00  0.00    +0.174 HD
BRANCH  19  21
ATOM     21  C   UNL     1      -2.791   3.651   1.258  0.00  0.00    +0.067 A 
ATOM     22  C   UNL     1      -3.982   3.185   0.726  0.00  0.00    +0.041 A 
ATOM     23  C   UNL     1      -5.124   3.986   0.776  0.00  0.00    +0.061 A 
ATOM     24  C   UNL     1      -5.059   5.253   1.362  0.00  0.00    +0.016 A 
ATOM     25  C   UNL     1      -3.868   5.708   1.889  0.00  0.00    +0.023 A 
ATOM     26  C   UNL     1      -2.737   4.912   1.845  0.00  0.00    +0.063 A 
ATOM     27 CL   UNL     1      -1.245   5.490   2.517  0.00  0.00    -0.082 Cl
BRANCH  23  28
ATOM     28  C   UNL     1      -6.398   3.497   0.211  0.00  0.00    +0.339 C 
ATOM     29  O   UNL     1      -6.453   2.395  -0.297  0.00  0.00    -0.245 OA
BRANCH  28  30
ATOM     30  O   UNL     1      -7.499   4.271   0.261  0.00  0.00    -0.464 OA
ATOM     31  C   UNL     1      -8.716   3.725  -0.313  0.00  0.00    +0.280 C 
ENDBRANCH  28  30
ENDBRANCH  23  28
ENDBRANCH  19  21
ENDBRANCH   1  19
TORSDOF 6
