REMARK  Name = ZINC38604619
REMARK  10 active torsions:
REMARK  status: ('A' for Active; 'I' for Inactive)
REMARK    1  A    between atoms: C_1  and  C_2
REMARK    2  A    between atoms: C_5  and  O_33
REMARK    3  A    between atoms: C_6  and  S_8
REMARK    4  A    between atoms: S_8  and  N_11
REMARK    5  A    between atoms: N_11  and  C_12
REMARK    6  A    between atoms: C_12  and  C_13
REMARK    7  A    between atoms: C_13  and  C_15
REMARK    8  A    between atoms: C_13  and  N_20
REMARK    9  A    between atoms: N_23  and  C_26
REMARK   10  A    between atoms: O_33  and  C_34
REMARK                            x       y       z     vdW  Elec       q    Type
REMARK                         _______ _______ _______ _____ _____    ______ ____
ROOT
ATOM      1  C   UNL     1      -2.818  -5.606   2.435  0.00  0.00    +0.015 C 
ENDROOT
BRANCH   1   2
ATOM      2  N   UNL     1      -3.954  -4.693   2.623  0.00  0.00    +0.389 N 
ATOM      3  C   UNL     1      -3.524  -3.538   3.421  0.00  0.00    -0.059 C 
ATOM      4  C   UNL     1      -4.675  -2.531   3.521  0.00  0.00    +0.086 C 
ATOM      5  N   UNL     1      -5.859  -3.228   4.048  0.00  0.00    -0.333 N 
ATOM      6  C   UNL     1      -6.265  -4.487   3.406  0.00  0.00    +0.086 C 
ATOM      7  C   UNL     1      -5.040  -5.402   3.312  0.00  0.00    -0.059 C 
ATOM      8  H   UNL     1      -4.279  -4.374   1.723  0.00  0.00    -0.081 HD
BRANCH   5   9
ATOM      9  C   UNL     1      -6.578  -2.706   5.128  0.00  0.00    +0.030 A 
ATOM     10  C   UNL     1      -6.111  -1.583   5.798  0.00  0.00    +0.026 A 
ATOM     11  C   UNL     1      -6.823  -1.070   6.864  0.00  0.00    +0.040 A 
ATOM     12  C   UNL     1      -8.002  -1.674   7.265  0.00  0.00    +0.124 A 
ATOM     13  C   UNL     1      -8.471  -2.794   6.599  0.00  0.00    +0.040 A 
ATOM     14  C   UNL     1      -7.764  -3.308   5.529  0.00  0.00    +0.026 A 
ATOM     15  F   UNL     1      -8.697  -1.170   8.309  0.00  0.00    -0.205 F 
ENDBRANCH   5   9
ENDBRANCH   1   2
BRANCH   1  16
ATOM     16  C   UNL     1      -3.230  -6.743   1.536  0.00  0.00    +0.093 A 
ATOM     17  C   UNL     1      -2.887  -8.034   1.693  0.00  0.00    +0.043 A 
ATOM     18  C   UNL     1      -3.488  -8.749   0.631  0.00  0.00    +0.041 A 
ATOM     19  C   UNL     1      -4.162  -7.852  -0.111  0.00  0.00    +0.195 A 
ATOM     20  O   UNL     1      -4.007  -6.639   0.445  0.00  0.00    -0.469 OA
ENDBRANCH   1  16
BRANCH   1  21
ATOM     21  C   UNL     1      -1.654  -4.846   1.795  0.00  0.00    +0.098 C 
BRANCH  21  22
ATOM     22  N   UNL     1      -2.111  -4.199   0.563  0.00  0.00    -0.191 NA
ATOM     23  H   UNL     1      -2.938  -4.484   0.144  0.00  0.00    +0.148 HD
BRANCH  22  24
ATOM     24  S   UNL     1      -1.216  -2.982  -0.114  0.00  0.00    +0.062 S 
ATOM     25  O   UNL     1      -0.912  -2.070   0.933  0.00  0.00    -0.153 OA
ATOM     26  O   UNL     1      -1.899  -2.585  -1.296  0.00  0.00    -0.153 OA
BRANCH  24  32
ATOM     27  C   UNL     1       2.185  -4.339  -3.843  0.00  0.00    +0.044 C 
ATOM     28  C   UNL     1       1.837  -4.287  -2.377  0.00  0.00    -0.048 A 
ATOM     29  C   UNL     1       2.720  -4.791  -1.440  0.00  0.00    +0.007 A 
ATOM     30  C   UNL     1       2.403  -4.745  -0.096  0.00  0.00    +0.048 A 
ATOM     31  C   UNL     1       1.198  -4.191   0.313  0.00  0.00    +0.146 A 
ATOM     32  C   UNL     1       0.315  -3.685  -0.629  0.00  0.00    +0.147 A 
ATOM     33  C   UNL     1       0.639  -3.729  -1.972  0.00  0.00    +0.035 A 
BRANCH  31  34
ATOM     34  O   UNL     1       0.884  -4.145   1.634  0.00  0.00    -0.493 OA
ATOM     35  C   UNL     1       1.842  -4.685   2.548  0.00  0.00    +0.277 C 
ENDBRANCH  31  34
ENDBRANCH  24  32
ENDBRANCH  22  24
ENDBRANCH  21  22
ENDBRANCH   1  21
TORSDOF 8
