REMARK  Name = ZINC11855297
REMARK  7 active torsions:
REMARK  status: ('A' for Active; 'I' for Inactive)
REMARK    1  A    between atoms: C_1  and  C_2
REMARK    2  A    between atoms: C_2  and  C_4
REMARK    3  A    between atoms: C_2  and  O_31
REMARK    4  A    between atoms: N_6  and  C_7
REMARK    5  A    between atoms: C_9  and  C_26
REMARK    6  A    between atoms: C_18  and  C_20
REMARK    7  A    between atoms: O_31  and  C_32
REMARK                            x       y       z     vdW  Elec       q    Type
REMARK                         _______ _______ _______ _____ _____    ______ ____
ROOT
ATOM      1  C   UNL     1      -6.752   0.840   1.935  0.00  0.00    +0.132 A 
ATOM      2  C   UNL     1      -6.567  -0.395   2.467  0.00  0.00    +0.074 A 
ATOM      3  C   UNL     1      -7.752  -0.754   3.144  0.00  0.00    +0.102 A 
ATOM      4  N   UNL     1      -8.617   0.231   3.012  0.00  0.00    -0.162 NA
ATOM      5  N   UNL     1      -8.016   1.246   2.257  0.00  0.00    -0.185 N 
ATOM      6  C   UNL     1      -8.599   2.446   1.899  0.00  0.00    +0.234 A 
ATOM      7  N   UNL     1      -9.875   2.708   2.291  0.00  0.00    -0.291 N 
ATOM      8  H   UNL     1     -10.364   2.054   2.815  0.00  0.00    +0.172 HD
ATOM      9  C   UNL     1     -10.460   3.877   1.957  0.00  0.00    +0.253 A 
ATOM     10  O   UNL     1     -11.603   4.123   2.308  0.00  0.00    -0.268 OA
ATOM     11  C   UNL     1      -9.732   4.804   1.193  0.00  0.00    +0.098 A 
ATOM     12  C   UNL     1      -8.437   4.483   0.816  0.00  0.00    +0.080 A 
ATOM     13  N   UNL     1      -7.911   3.307   1.185  0.00  0.00    -0.212 NA
ENDROOT
BRANCH  12  14
ATOM     14  C   UNL     1      -7.639   5.436   0.009  0.00  0.00    +0.001 A 
ATOM     15  C   UNL     1      -8.190   6.657  -0.379  0.00  0.00    +0.010 A 
ATOM     16  C   UNL     1      -7.439   7.543  -1.125  0.00  0.00    +0.001 A 
ATOM     17  C   UNL     1      -6.148   7.216  -1.498  0.00  0.00    +0.000 A 
ATOM     18  C   UNL     1      -5.598   6.004  -1.121  0.00  0.00    +0.001 A 
ATOM     19  C   UNL     1      -6.337   5.113  -0.370  0.00  0.00    +0.010 A 
ENDBRANCH  12  14
BRANCH   3  20
ATOM     20  C   UNL     1      -7.985  -2.020   3.871  0.00  0.00    +0.039 A 
ATOM     21  C   UNL     1      -9.104  -2.437   4.542  0.00  0.00    +0.018 A 
ATOM     22  C   UNL     1      -9.089  -3.673   5.151  0.00  0.00    +0.008 A 
ATOM     23  C   UNL     1      -7.970  -4.438   5.068  0.00  0.00    +0.046 A 
ATOM     24  S   UNL     1      -6.884  -3.407   4.096  0.00  0.00    -0.095 S 
ENDBRANCH   3  20
BRANCH   1  27
ATOM     25  C   UNL     1      -4.603   1.039   0.946  0.00  0.00    +0.259 C 
ATOM     26  O   UNL     1      -4.317  -0.059   1.375  0.00  0.00    -0.271 OA
ATOM     27  N   UNL     1      -5.821   1.561   1.190  0.00  0.00    -0.267 N 
ATOM     28  H   UNL     1      -6.050   2.439   0.848  0.00  0.00    +0.156 HD
BRANCH  25  30
ATOM     29  C   UNL     1      -4.165   2.099  -1.252  0.00  0.00    +0.062 C 
ATOM     30  C   UNL     1      -3.596   1.819   0.140  0.00  0.00    +0.256 C 
BRANCH  30  31
ATOM     31  O   UNL     1      -2.392   1.060   0.020  0.00  0.00    -0.480 OA
BRANCH  31  32
ATOM     32  C   UNL     1      -1.244   1.754  -0.199  0.00  0.00    +0.122 A 
ATOM     33  C   UNL     1      -0.024   1.094  -0.215  0.00  0.00    +0.045 A 
ATOM     34  C   UNL     1       1.140   1.801  -0.443  0.00  0.00    +0.004 A 
ATOM     35  C   UNL     1       1.091   3.168  -0.649  0.00  0.00    +0.000 A 
ATOM     36  C   UNL     1      -0.123   3.829  -0.628  0.00  0.00    +0.004 A 
ATOM     37  C   UNL     1      -1.290   3.126  -0.401  0.00  0.00    +0.045 A 
ENDBRANCH  31  32
ENDBRANCH  30  31
ENDBRANCH  25  30
ENDBRANCH   1  27
TORSDOF 6
