REMARK  Name = ZINC10698351
REMARK  10 active torsions:
REMARK  status: ('A' for Active; 'I' for Inactive)
REMARK    1  A    between atoms: C_1  and  C_2
REMARK    2  A    between atoms: C_3  and  C_14
REMARK    3  A    between atoms: C_5  and  C_7
REMARK    4  A    between atoms: C_14  and  O_16
REMARK    5  A    between atoms: O_16  and  C_17
REMARK    6  A    between atoms: C_17  and  C_19
REMARK    7  A    between atoms: C_17  and  C_20
REMARK    8  A    between atoms: N_25  and  C_26
REMARK    9  A    between atoms: C_26  and  C_27
REMARK   10  A    between atoms: C_26  and  C_28
REMARK                            x       y       z     vdW  Elec       q    Type
REMARK                         _______ _______ _______ _____ _____    ______ ____
ROOT
ATOM      1  C   UNL     1      -1.649   0.753   1.689  0.00  0.00    +0.348 C 
ATOM      2  O   UNL     1      -1.916  -0.301   1.145  0.00  0.00    -0.244 OA
ENDROOT
BRANCH   1   5
ATOM      3  C   UNL     1      -3.921  -0.822   3.109  0.00  0.00    +0.067 C 
ATOM      4  C   UNL     1      -3.396   0.511   3.576  0.00  0.00    +0.060 A 
ATOM      5  C   UNL     1      -2.376   1.162   2.892  0.00  0.00    +0.119 A 
ATOM      6  S   UNL     1      -2.195   2.631   3.892  0.00  0.00    -0.060 S 
ATOM      7  C   UNL     1      -3.430   2.267   5.057  0.00  0.00    +0.109 A 
ATOM      8  N   UNL     1      -3.884   1.093   4.637  0.00  0.00    -0.243 NA
BRANCH   7   9
ATOM      9  C   UNL     1      -3.862   3.061   6.226  0.00  0.00    +0.007 A 
ATOM     10  C   UNL     1      -4.884   2.592   7.053  0.00  0.00    +0.012 A 
ATOM     11  C   UNL     1      -5.280   3.335   8.145  0.00  0.00    +0.020 A 
ATOM     12  C   UNL     1      -4.673   4.550   8.415  0.00  0.00    +0.041 A 
ATOM     13  C   UNL     1      -3.662   5.023   7.596  0.00  0.00    +0.020 A 
ATOM     14  C   UNL     1      -3.254   4.286   6.504  0.00  0.00    +0.012 A 
ATOM     15 CL   UNL     1      -5.182   5.484   9.788  0.00  0.00    -0.084 Cl
ENDBRANCH   7   9
ENDBRANCH   1   5
BRANCH   1  16
ATOM     16  O   UNL     1      -0.682   1.547   1.184  0.00  0.00    -0.448 OA
BRANCH  16  17
ATOM     17  C   UNL     1      -0.013   1.086   0.008  0.00  0.00    +0.259 C 
ATOM     18  C   UNL     1      -0.753   1.593  -1.232  0.00  0.00    +0.062 C 
BRANCH  17  19
ATOM     19  C   UNL     1       1.401   1.607  -0.003  0.00  0.00    +0.261 C 
ATOM     20  O   UNL     1       1.797   2.305   0.907  0.00  0.00    -0.271 OA
ATOM     21  N   UNL     1       2.226   1.299  -1.023  0.00  0.00    -0.237 N 
ATOM     22  C   UNL     1       3.490   1.765  -1.033  0.00  0.00    +0.306 C 
ATOM     23  O   UNL     1       3.887   2.464  -0.121  0.00  0.00    -0.252 OA
ATOM     24  N   UNL     1       4.315   1.456  -2.053  0.00  0.00    -0.297 N 
ATOM     25  H   UNL     1       1.867   0.666  -1.848  0.00  0.00    +0.159 HD
ATOM     26  H   UNL     1       3.956   0.824  -2.878  0.00  0.00    +0.151 HD
BRANCH  24  27
ATOM     27  C   UNL     1       5.689   1.963  -2.063  0.00  0.00    +0.068 C 
ATOM     28  C   UNL     1       6.569   1.036  -2.904  0.00  0.00    +0.027 C 
ATOM     29  C   UNL     1       5.709   3.370  -2.666  0.00  0.00    +0.027 C 
ENDBRANCH  24  27
ENDBRANCH  17  19
ENDBRANCH  16  17
ENDBRANCH   1  16
TORSDOF 6
