REMARK  Name = ZINC06136291
REMARK  11 active torsions:
REMARK  status: ('A' for Active; 'I' for Inactive)
REMARK    1  A    between atoms: C_1  and  O_2
REMARK    2  A    between atoms: O_2  and  C_3
REMARK    3  A    between atoms: C_3  and  C_4
REMARK    4  A    between atoms: C_4  and  N_5
REMARK    5  A    between atoms: C_6  and  C_10
REMARK    6  A    between atoms: C_10  and  C_12
REMARK    7  A    between atoms: C_10  and  N_66
REMARK    8  A    between atoms: C_27  and  C_28
REMARK    9  A    between atoms: C_27  and  N_66
REMARK   10  A    between atoms: C_34  and  C_35
REMARK   11  A    between atoms: C_34  and  N_66
REMARK                            x       y       z     vdW  Elec       q    Type
REMARK                         _______ _______ _______ _____ _____    ______ ____
ROOT
ATOM      1  C   UNL     1       3.753   1.904   0.008  0.00  0.00    +0.039 C 
ENDROOT
BRANCH   1   2
ATOM      2  C   UNL     1       4.208   2.599   1.266  0.00  0.00    +0.011 A 
ATOM      3  C   UNL     1       4.944   1.922   2.184  0.00  0.00    +0.017 A 
ATOM      4  C   UNL     1       5.371   2.625   3.393  0.00  0.00    +0.002 A 
ATOM      5  C   UNL     1       6.133   1.977   4.374  0.00  0.00    +0.059 A 
ATOM      6  C   UNL     1       6.521   2.665   5.502  0.00  0.00    +0.167 A 
ATOM      7  C   UNL     1       6.156   4.007   5.671  0.00  0.00    +0.168 A 
ATOM      8  C   UNL     1       5.403   4.654   4.708  0.00  0.00    +0.075 A 
ATOM      9  C   UNL     1       5.005   3.974   3.564  0.00  0.00    +0.053 A 
ATOM     10  N   UNL     1       4.255   4.605   2.592  0.00  0.00    -0.322 N 
ATOM     11  H   UNL     1       3.991   5.561   2.716  0.00  0.00    +0.169 HD
ATOM     12  C   UNL     1       3.873   3.951   1.481  0.00  0.00    +0.251 A 
ATOM     13  O   UNL     1       3.216   4.542   0.640  0.00  0.00    -0.268 OA
ATOM     14  O   UNL     1       6.662   4.447   6.859  0.00  0.00    -0.453 OA
ATOM     15  C   UNL     1       7.681   3.496   7.220  0.00  0.00    +0.466 C 
ATOM     16  O   UNL     1       7.253   2.276   6.587  0.00  0.00    -0.453 OA
ENDBRANCH   1   2
BRANCH   1  18
ATOM     17  N   UNL     1       1.509   0.693  -0.054  0.00  0.00    -0.228 N 
ATOM     18  C   UNL     1       2.248   1.816  -0.001  0.00  0.00    +0.143 A 
ATOM     19  N   UNL     1       1.406   2.819   0.043  0.00  0.00    -0.115 NA
ATOM     20  N   UNL     1       0.211   2.337   0.017  0.00  0.00    -0.023 NA
ATOM     21  N   UNL     1       0.270   1.052  -0.041  0.00  0.00    -0.044 NA
BRANCH  17  22
ATOM     22  C   UNL     1       2.016  -0.680  -0.115  0.00  0.00    +0.175 C 
BRANCH  22  23
ATOM     23  C   UNL     1       2.053  -1.146  -1.572  0.00  0.00    +0.183 C 
BRANCH  23  25
ATOM     24  C   UNL     1       2.484  -3.063  -2.945  0.00  0.00    +0.194 C 
ATOM     25  O   UNL     1       2.421  -2.526  -1.622  0.00  0.00    -0.381 OA
ENDBRANCH  23  25
ENDBRANCH  22  23
ENDBRANCH  17  22
ENDBRANCH   1  18
BRANCH   1  26
ATOM     26  N   UNL     1       4.203   2.693  -1.158  0.00  0.00    +0.395 N 
ATOM     27  H   UNL     1       4.084   3.692  -0.951  0.00  0.00    -0.079 HD
BRANCH  26  28
ATOM     28  C   UNL     1       3.391   2.349  -2.344  0.00  0.00    -0.041 C 
BRANCH  28  29
ATOM     29  C   UNL     1       2.252   3.331  -2.446  0.00  0.00    -0.064 A 
ATOM     30  C   UNL     1       0.946   2.880  -2.417  0.00  0.00    +0.002 A 
ATOM     31  C   UNL     1      -0.098   3.782  -2.505  0.00  0.00    +0.000 A 
ATOM     32  C   UNL     1       0.164   5.133  -2.634  0.00  0.00    +0.000 A 
ATOM     33  C   UNL     1       1.470   5.583  -2.669  0.00  0.00    +0.000 A 
ATOM     34  C   UNL     1       2.515   4.682  -2.575  0.00  0.00    +0.002 A 
ENDBRANCH  28  29
ENDBRANCH  26  28
BRANCH  26  35
ATOM     35  C   UNL     1       5.631   2.425  -1.428  0.00  0.00    -0.040 C 
BRANCH  35  36
ATOM     36  C   UNL     1       6.463   3.190  -0.431  0.00  0.00    -0.046 A 
ATOM     37  C   UNL     1       6.479   4.577  -0.447  0.00  0.00    +0.005 A 
ATOM     38  C   UNL     1       7.255   5.238   0.492  0.00  0.00    +0.020 A 
ATOM     39  C   UNL     1       7.989   4.498   1.401  0.00  0.00    +0.111 A 
ATOM     40  N   UNL     1       7.954   3.181   1.383  0.00  0.00    -0.263 NA
ATOM     41  C   UNL     1       7.223   2.518   0.507  0.00  0.00    +0.112 A 
ENDBRANCH  35  36
ENDBRANCH  26  35
ENDBRANCH   1  26
TORSDOF 10
