REMARK  Name = ZINC04597407
REMARK  4 active torsions:
REMARK  status: ('A' for Active; 'I' for Inactive)
REMARK    1  A    between atoms: C_1  and  C_2
REMARK    2  A    between atoms: C_7  and  N_8
REMARK    3  A    between atoms: N_8  and  C_9
REMARK    4  A    between atoms: C_10  and  C_18
REMARK                            x       y       z     vdW  Elec       q    Type
REMARK                         _______ _______ _______ _____ _____    ______ ____
ROOT
ATOM      1  C   UNL     1      -3.743   1.687   0.854  0.00  0.00    +0.136 A 
ATOM      2  C   UNL     1      -3.227   1.317  -0.378  0.00  0.00    +0.119 A 
ATOM      3  N   UNL     1      -3.517   0.021  -0.577  0.00  0.00    -0.224 NA
ATOM      4  C   UNL     1      -4.179  -0.443   0.469  0.00  0.00    +0.158 A 
ATOM      5  N   UNL     1      -4.337   0.582   1.378  0.00  0.00    -0.285 N 
ATOM      6  C   UNL     1      -5.006   0.337   2.550  0.00  0.00    +0.114 A 
ATOM      7  C   UNL     1      -5.497  -0.895   2.795  0.00  0.00    +0.129 A 
ATOM      8  N   UNL     1      -5.345  -1.890   1.915  0.00  0.00    -0.258 NA
ATOM      9  C   UNL     1      -4.713  -1.710   0.779  0.00  0.00    +0.157 A 
ENDROOT
BRANCH   2  10
ATOM     10  C   UNL     1      -2.491   2.195  -1.312  0.00  0.00    +0.042 A 
ATOM     11  C   UNL     1      -1.451   1.887  -2.147  0.00  0.00    +0.019 A 
ATOM     12  C   UNL     1      -0.922   2.883  -2.941  0.00  0.00    +0.028 A 
ATOM     13  C   UNL     1      -1.444   4.134  -2.867  0.00  0.00    +0.079 A 
ATOM     14  S   UNL     1      -2.728   3.933  -1.643  0.00  0.00    -0.075 S 
ATOM     15 CL   UNL     1      -0.982   5.563  -3.738  0.00  0.00    -0.076 Cl
ENDBRANCH   2  10
BRANCH   1  16
ATOM     16  N   UNL     1      -3.666   2.948   1.442  0.00  0.00    -0.299 N 
ATOM     17  H   UNL     1      -2.839   3.241   1.855  0.00  0.00    +0.154 HD
BRANCH  16  24
ATOM     18  C   UNL     1      -3.505   5.399   2.879  0.00  0.00    +0.045 C 
ATOM     19  C   UNL     1      -4.745   4.996   2.123  0.00  0.00    -0.029 A 
ATOM     20  C   UNL     1      -5.847   5.829   2.110  0.00  0.00    +0.005 A 
ATOM     21  C   UNL     1      -6.988   5.458   1.423  0.00  0.00    +0.000 A 
ATOM     22  C   UNL     1      -7.028   4.255   0.741  0.00  0.00    +0.002 A 
ATOM     23  C   UNL     1      -5.929   3.420   0.745  0.00  0.00    +0.023 A 
ATOM     24  C   UNL     1      -4.780   3.790   1.435  0.00  0.00    +0.035 A 
ENDBRANCH  16  24
ENDBRANCH   1  16
TORSDOF 3
