REMARK  Name = ZINC10015239
REMARK  7 active torsions:
REMARK  status: ('A' for Active; 'I' for Inactive)
REMARK    1  A    between atoms: C_1  and  C_2
REMARK    2  A    between atoms: C_5  and  N_9
REMARK    3  A    between atoms: C_10  and  C_12
REMARK    4  A    between atoms: C_12  and  S_13
REMARK    5  A    between atoms: S_13  and  C_14
REMARK    6  A    between atoms: C_17  and  C_25
REMARK    7  A    between atoms: N_18  and  C_19
REMARK                            x       y       z     vdW  Elec       q    Type
REMARK                         _______ _______ _______ _____ _____    ______ ____
ROOT
ATOM      1  C   UNL     1      -2.337  -0.259   0.948  0.00  0.00    +0.193 A 
ATOM      2  N   UNL     1      -3.423  -0.892   0.565  0.00  0.00    -0.122 NA
ATOM      3  N   UNL     1      -3.219  -1.482  -0.558  0.00  0.00    -0.125 NA
ATOM      4  C   UNL     1      -1.989  -1.258  -0.966  0.00  0.00    +0.201 A 
ATOM      5  N   UNL     1      -1.385  -0.472  -0.009  0.00  0.00    -0.297 N 
ENDROOT
BRANCH   5   6
ATOM      6  C   UNL     1      -0.010   0.036  -0.019  0.00  0.00    +0.091 C 
ATOM      7  C   UNL     1      -0.031   1.566   0.001  0.00  0.00    +0.025 C 
ATOM      8  C   UNL     1       1.404   2.095  -0.010  0.00  0.00    +0.002 C 
ATOM      9  C   UNL     1       2.147   1.579   1.224  0.00  0.00    +0.000 C 
ATOM     10  C   UNL     1       2.168   0.050   1.204  0.00  0.00    +0.002 C 
ATOM     11  C   UNL     1       0.733  -0.480   1.214  0.00  0.00    +0.025 C 
ENDBRANCH   5   6
BRANCH   4  12
ATOM     12  C   UNL     1      -1.374  -1.755  -2.206  0.00  0.00    +0.172 A 
ATOM     13  C   UNL     1      -1.862  -2.750  -2.999  0.00  0.00    +0.053 A 
ATOM     14  C   UNL     1      -0.960  -2.895  -4.070  0.00  0.00    +0.042 A 
ATOM     15  C   UNL     1       0.024  -1.994  -3.883  0.00  0.00    +0.196 A 
ATOM     16  O   UNL     1      -0.231  -1.303  -2.760  0.00  0.00    -0.460 OA
ENDBRANCH   4  12
BRANCH   1  17
ATOM     17  S   UNL     1      -2.144   0.688   2.421  0.00  0.00    -0.077 S 
BRANCH  17  18
ATOM     18  C   UNL     1      -3.796   0.496   3.136  0.00  0.00    +0.173 C 
BRANCH  18  20
ATOM     19  N   UNL     1      -5.009   1.243   5.158  0.00  0.00    -0.284 N 
ATOM     20  C   UNL     1      -3.867   1.244   4.443  0.00  0.00    +0.228 C 
ATOM     21  O   UNL     1      -2.897   1.848   4.850  0.00  0.00    -0.275 OA
ATOM     22  H   UNL     1      -5.804   0.816   4.802  0.00  0.00    +0.155 HD
BRANCH  19  27
ATOM     23  C   UNL     1      -5.169   3.739  10.251  0.00  0.00    +0.044 C 
ATOM     24  C   UNL     1      -5.127   3.076   8.899  0.00  0.00    -0.049 A 
ATOM     25  C   UNL     1      -4.343   3.610   7.893  0.00  0.00    +0.005 A 
ATOM     26  C   UNL     1      -4.302   3.005   6.652  0.00  0.00    +0.025 A 
ATOM     27  C   UNL     1      -5.048   1.858   6.415  0.00  0.00    +0.052 A 
ATOM     28  C   UNL     1      -5.839   1.326   7.426  0.00  0.00    +0.062 A 
ATOM     29  C   UNL     1      -5.871   1.934   8.667  0.00  0.00    +0.025 A 
ATOM     30 CL   UNL     1      -6.779  -0.103   7.134  0.00  0.00    -0.082 Cl
ENDBRANCH  19  27
ENDBRANCH  18  20
ENDBRANCH  17  18
ENDBRANCH   1  17
TORSDOF 6
