REMARK  Name = ZINC06218067
REMARK  2 active torsions:
REMARK  status: ('A' for Active; 'I' for Inactive)
REMARK    1  A    between atoms: N_13  and  C_17
REMARK    2  A    between atoms: C_17  and  C_18
REMARK                            x       y       z     vdW  Elec       q    Type
REMARK                         _______ _______ _______ _____ _____    ______ ____
ROOT
ATOM      1  C   UNL     1       8.859   3.793   4.239  0.00  0.00    +0.000 A 
ATOM      2  C   UNL     1       8.368   3.776   2.947  0.00  0.00    +0.000 A 
ATOM      3  C   UNL     1       7.051   3.435   2.719  0.00  0.00    +0.006 A 
ATOM      4  C   UNL     1       6.213   3.107   3.777  0.00  0.00    -0.012 A 
ATOM      5  C   UNL     1       6.704   3.118   5.064  0.00  0.00    -0.042 A 
ATOM      6  C   UNL     1       8.030   3.466   5.291  0.00  0.00    +0.004 A 
ATOM      7  C   UNL     1       5.856   2.761   6.256  0.00  0.00    +0.035 C 
ATOM      8  C   UNL     1       4.371   2.840   5.907  0.00  0.00    +0.008 C 
ATOM      9  C   UNL     1       4.128   2.024   4.631  0.00  0.00    +0.040 C 
ATOM     10  C   UNL     1       4.787   2.749   3.465  0.00  0.00    +0.138 C 
ATOM     11  C   UNL     1       4.722   1.902   2.214  0.00  0.00    +0.251 C 
ATOM     12  O   UNL     1       5.217   0.809   2.042  0.00  0.00    -0.272 OA
ATOM     13  N   UNL     1       3.997   2.618   1.330  0.00  0.00    -0.219 N 
ATOM     14  C   UNL     1       3.606   3.789   1.847  0.00  0.00    +0.310 C 
ATOM     15  O   UNL     1       2.945   4.609   1.240  0.00  0.00    -0.252 OA
ATOM     16  N   UNL     1       4.025   3.956   3.116  0.00  0.00    -0.281 N 
ATOM     17  H   UNL     1       3.858   4.723   3.687  0.00  0.00    +0.152 HD
ENDROOT
BRANCH  13  18
ATOM     18  C   UNL     1       3.681   2.172  -0.029  0.00  0.00    +0.157 C 
BRANCH  18  19
ATOM     19  C   UNL     1       2.384   1.405  -0.017  0.00  0.00    +0.014 A 
ATOM     20  C   UNL     1       2.399   0.023  -0.026  0.00  0.00    +0.028 A 
ATOM     21  C   UNL     1       1.208  -0.681  -0.016  0.00  0.00    +0.042 A 
ATOM     22  C   UNL     1       0.002  -0.004   0.002  0.00  0.00    +0.029 A 
ATOM     23  C   UNL     1      -0.017   1.378   0.010  0.00  0.00    +0.022 A 
ATOM     24  C   UNL     1       1.175   2.086   0.002  0.00  0.00    +0.134 A 
ATOM     25  O   UNL     1       1.171   3.446   0.017  0.00  0.00    -0.466 OA
ATOM     26  C   UNL     1      -0.058   4.092  -0.327  0.00  0.00    +0.394 C 
ATOM     27  O   UNL     1      -1.122   3.469   0.402  0.00  0.00    -0.339 OA
ATOM     28  C   UNL     1      -1.337   2.106   0.020  0.00  0.00    +0.202 C 
ATOM     29 CL   UNL     1       1.228  -2.417  -0.026  0.00  0.00    -0.084 Cl
ENDBRANCH  18  19
ENDBRANCH  13  18
TORSDOF 2
