REMARK  Name = ZINC12399846
REMARK  11 active torsions:
REMARK  status: ('A' for Active; 'I' for Inactive)
REMARK    1  A    between atoms: C_1  and  C_2
REMARK    2  A    between atoms: C_2  and  O_3
REMARK    3  A    between atoms: O_3  and  C_4
REMARK    4  A    between atoms: C_4  and  C_6
REMARK    5  A    between atoms: C_7  and  C_35
REMARK    6  A    between atoms: C_11  and  C_15
REMARK    7  A    between atoms: C_15  and  O_16
REMARK    8  A    between atoms: O_16  and  C_17
REMARK    9  A    between atoms: C_17  and  C_19
REMARK   10  A    between atoms: C_19  and  N_20
REMARK   11  A    between atoms: C_28  and  C_30
REMARK                            x       y       z     vdW  Elec       q    Type
REMARK                         _______ _______ _______ _____ _____    ______ ____
ROOT
ATOM      1  C   UNL     1      -1.721  -0.866   0.655  0.00  0.00    +0.308 C 
ENDROOT
BRANCH   1   7
ATOM      2  C   UNL     1       3.191   3.069   1.133  0.00  0.00    +0.102 A 
ATOM      3  C   UNL     1       3.257   1.708   1.145  0.00  0.00    -0.017 A 
ATOM      4  C   UNL     1       2.084   0.952   1.030  0.00  0.00    +0.051 A 
ATOM      5  C   UNL     1       1.921  -0.466   1.020  0.00  0.00    +0.128 A 
ATOM      6  N   UNL     1       0.706  -0.974   0.900  0.00  0.00    -0.214 NA
ATOM      7  C   UNL     1      -0.369  -0.215   0.788  0.00  0.00    +0.170 A 
ATOM      8  N   UNL     1      -0.285   1.102   0.791  0.00  0.00    -0.221 NA
ATOM      9  C   UNL     1       0.885   1.696   0.906  0.00  0.00    +0.115 A 
ATOM     10  S   UNL     1       1.442   3.380   0.955  0.00  0.00    -0.062 S 
ATOM     11  N   UNL     1       3.017  -1.296   1.134  0.00  0.00    -0.343 N 
ATOM     12  C   UNL     1       4.590   1.018   1.282  0.00  0.00    +0.046 C 
ATOM     13  H   UNL     1       2.915  -2.187   1.506  0.00  0.00    +0.144 HD
ATOM     14  H   UNL     1       3.890  -0.990   0.843  0.00  0.00    +0.144 HD
BRANCH   2  15
ATOM     15  C   UNL     1       4.285   4.039   1.239  0.00  0.00    +0.346 C 
ATOM     16  O   UNL     1       5.439   3.654   1.254  0.00  0.00    -0.244 OA
BRANCH  15  17
ATOM     17  O   UNL     1       4.013   5.357   1.321  0.00  0.00    -0.461 OA
BRANCH  17  19
ATOM     18  C   UNL     1       4.643   7.702   1.505  0.00  0.00    +0.048 C 
ATOM     19  C   UNL     1       5.146   6.259   1.423  0.00  0.00    +0.229 C 
ENDBRANCH  17  19
ENDBRANCH  15  17
ENDBRANCH   2  15
ENDBRANCH   1   7
BRANCH   1  20
ATOM     20  O   UNL     1      -2.018  -1.082  -0.750  0.00  0.00    -0.456 OA
BRANCH  20  21
ATOM     21  C   UNL     1      -3.195  -1.659  -1.042  0.00  0.00    +0.326 C 
ATOM     22  O   UNL     1      -3.951  -1.972  -0.154  0.00  0.00    -0.249 OA
BRANCH  21  23
ATOM     23  C   UNL     1      -3.572  -1.914  -2.478  0.00  0.00    +0.238 C 
BRANCH  23  24
ATOM     24  N   UNL     1      -4.892  -2.547  -2.531  0.00  0.00    -0.213 N 
ATOM     25  C   UNL     1      -5.096  -3.880  -2.511  0.00  0.00    +0.247 C 
ATOM     26  O   UNL     1      -4.254  -4.750  -2.447  0.00  0.00    -0.273 OA
ATOM     27  C   UNL     1      -6.595  -4.061  -2.582  0.00  0.00    +0.115 C 
ATOM     28  C   UNL     1      -7.109  -4.769  -1.333  0.00  0.00    +0.035 C 
ATOM     29  C   UNL     1      -6.527  -6.183  -1.268  0.00  0.00    +0.003 C 
ATOM     30  C   UNL     1      -6.937  -6.960  -2.521  0.00  0.00    +0.000 C 
ATOM     31  C   UNL     1      -6.393  -6.251  -3.763  0.00  0.00    +0.006 C 
ATOM     32  C   UNL     1      -6.974  -4.837  -3.838  0.00  0.00    +0.018 C 
ATOM     33  C   UNL     1      -6.415  -4.121  -5.068  0.00  0.00    +0.010 C 
ATOM     34  N   UNL     1      -7.116  -2.690  -2.647  0.00  0.00    -0.285 N 
ATOM     35  C   UNL     1      -6.046  -1.873  -2.612  0.00  0.00    +0.310 C 
ATOM     36  O   UNL     1      -6.120  -0.661  -2.649  0.00  0.00    -0.252 OA
ATOM     37  H   UNL     1      -8.048  -2.425  -2.704  0.00  0.00    +0.151 HD
ENDBRANCH  23  24
ENDBRANCH  21  23
ENDBRANCH  20  21
ENDBRANCH   1  20
TORSDOF 8
