REMARK  Name = ZINC09375539
REMARK  13 active torsions:
REMARK  status: ('A' for Active; 'I' for Inactive)
REMARK    1  A    between atoms: C_1  and  C_2
REMARK    2  A    between atoms: C_2  and  C_3
REMARK    3  A    between atoms: C_3  and  C_5
REMARK    4  A    between atoms: C_3  and  N_64
REMARK    5  A    between atoms: C_8  and  S_17
REMARK    6  A    between atoms: N_9  and  C_10
REMARK    7  A    between atoms: C_10  and  C_11
REMARK    8  A    between atoms: S_17  and  C_18
REMARK    9  A    between atoms: C_18  and  C_19
REMARK   10  A    between atoms: N_21  and  C_22
REMARK   11  A    between atoms: C_23  and  C_31
REMARK   12  A    between atoms: C_33  and  N_64
REMARK   13  A    between atoms: C_34  and  N_64
REMARK                            x       y       z     vdW  Elec       q    Type
REMARK                         _______ _______ _______ _____ _____    ______ ____
ROOT
ATOM      1  C   UNL     1      -3.854  12.338  -6.193  0.00  0.00    +0.121 A 
ATOM      2  N   UNL     1      -3.547  12.445  -4.931  0.00  0.00    -0.135 NA
ATOM      3  N   UNL     1      -3.134  11.315  -4.480  0.00  0.00    -0.123 NA
ATOM      4  C   UNL     1      -3.147  10.419  -5.440  0.00  0.00    +0.192 A 
ATOM      5  N   UNL     1      -3.611  11.043  -6.562  0.00  0.00    -0.303 N 
ENDROOT
BRANCH   1   6
ATOM      6  C   UNL     1      -4.380  13.436  -7.081  0.00  0.00    +0.000 C 
BRANCH   6   9
ATOM      7  C   UNL     1      -6.604  13.218  -6.149  0.00  0.00    -0.096 C 
ATOM      8  C   UNL     1      -5.019  14.753  -5.152  0.00  0.00    -0.096 C 
ATOM      9  N   UNL     1      -5.490  14.152  -6.417  0.00  0.00    +0.383 N 
ATOM     10  H   UNL     1      -5.824  14.899  -7.038  0.00  0.00    -0.082 HD
ENDBRANCH   6   9
BRANCH   6  12
ATOM     11  C   UNL     1      -3.773  15.507  -8.339  0.00  0.00    +0.002 C 
ATOM     12  C   UNL     1      -3.258  14.431  -7.381  0.00  0.00    -0.011 C 
ENDBRANCH   6  12
ENDBRANCH   1   6
BRANCH   5  13
ATOM     13  C   UNL     1      -3.806  10.450  -7.887  0.00  0.00    +0.160 C 
BRANCH  13  14
ATOM     14  C   UNL     1      -5.204   9.896  -7.988  0.00  0.00    -0.028 A 
ATOM     15  C   UNL     1      -5.456   8.586  -7.625  0.00  0.00    +0.005 A 
ATOM     16  C   UNL     1      -6.739   8.079  -7.713  0.00  0.00    +0.000 A 
ATOM     17  C   UNL     1      -7.768   8.878  -8.173  0.00  0.00    +0.000 A 
ATOM     18  C   UNL     1      -7.515  10.187  -8.542  0.00  0.00    +0.000 A 
ATOM     19  C   UNL     1      -6.233  10.695  -8.449  0.00  0.00    +0.005 A 
ENDBRANCH  13  14
ENDBRANCH   5  13
BRANCH   4  20
ATOM     20  S   UNL     1      -2.666   8.730  -5.303  0.00  0.00    -0.077 S 
BRANCH  20  21
ATOM     21  C   UNL     1      -2.188   8.680  -3.558  0.00  0.00    +0.173 C 
BRANCH  21  22
ATOM     22  C   UNL     1      -1.727   7.289  -3.204  0.00  0.00    +0.228 C 
ATOM     23  O   UNL     1      -1.722   6.418  -4.048  0.00  0.00    -0.275 OA
ATOM     24  N   UNL     1      -1.320   7.014  -1.949  0.00  0.00    -0.278 N 
ATOM     25  H   UNL     1      -1.324   7.710  -1.274  0.00  0.00    +0.155 HD
BRANCH  24  26
ATOM     26  C   UNL     1      -0.895   5.733  -1.622  0.00  0.00    +0.090 A 
ATOM     27  C   UNL     1      -0.445   5.260  -0.399  0.00  0.00    +0.084 A 
ATOM     28  C   UNL     1      -0.056   3.863  -0.320  0.00  0.00    -0.018 A 
ATOM     29  C   UNL     1      -0.178   3.166  -1.471  0.00  0.00    -0.004 A 
ATOM     30  S   UNL     1      -0.800   4.337  -2.644  0.00  0.00    -0.077 S 
ATOM     31  C   UNL     1       0.145   1.720  -1.690  0.00  0.00    +0.043 C 
ATOM     32  C   UNL     1       0.993   1.230  -0.508  0.00  0.00    +0.005 C 
ATOM     33  C   UNL     1       0.331   1.680   0.798  0.00  0.00    +0.005 C 
ATOM     34  C   UNL     1       0.457   3.196   0.951  0.00  0.00    +0.037 C 
BRANCH  27  35
ATOM     35  C   UNL     1      -0.367   6.118   0.745  0.00  0.00    +0.102 C 
ATOM     36  N   UNL     1      -0.305   6.799   1.653  0.00  0.00    -0.191 NA
ENDBRANCH  27  35
ENDBRANCH  24  26
ENDBRANCH  21  22
ENDBRANCH  20  21
ENDBRANCH   4  20
TORSDOF 10
