REMARK  Name = ZINC43666987
REMARK  7 active torsions:
REMARK  status: ('A' for Active; 'I' for Inactive)
REMARK    1  A    between atoms: C_1  and  C_2
REMARK    2  A    between atoms: C_2  and  C_4
REMARK    3  A    between atoms: C_2  and  N_13
REMARK    4  A    between atoms: C_7  and  C_10
REMARK    5  A    between atoms: C_10  and  C_11
REMARK    6  A    between atoms: C_10  and  C_12
REMARK    7  A    between atoms: C_14  and  N_19
REMARK                            x       y       z     vdW  Elec       q    Type
REMARK                         _______ _______ _______ _____ _____    ______ ____
ROOT
ATOM      1  C   UNL     1      -0.019   1.526   0.010  0.00  0.00    +0.038 C 
ATOM      2  C   UNL     1       0.002  -0.004   0.002  0.00  0.00    +0.136 C 
ENDROOT
BRANCH   2   3
ATOM      3  C   UNL     1       0.731  -0.503   1.223  0.00  0.00    -0.023 A 
ATOM      4  C   UNL     1       0.263  -0.187   2.485  0.00  0.00    +0.006 A 
ATOM      5  C   UNL     1       0.931  -0.645   3.605  0.00  0.00    +0.004 A 
ATOM      6  C   UNL     1       2.068  -1.419   3.463  0.00  0.00    -0.045 A 
ATOM      7  C   UNL     1       2.535  -1.736   2.201  0.00  0.00    +0.004 A 
ATOM      8  C   UNL     1       1.864  -1.282   1.081  0.00  0.00    +0.006 A 
BRANCH   6   9
ATOM      9  C   UNL     1       2.797  -1.918   4.684  0.00  0.00    +0.013 C 
ATOM     10  C   UNL     1       2.824  -3.448   4.673  0.00  0.00    +0.012 C 
ATOM     11  C   UNL     1       4.231  -1.383   4.675  0.00  0.00    +0.012 C 
ENDBRANCH   6   9
ENDBRANCH   2   3
BRANCH   2  12
ATOM     12  N   UNL     1      -1.372  -0.511   0.012  0.00  0.00    -0.243 N 
ATOM     13  C   UNL     1      -1.940  -1.302  -0.934  0.00  0.00    +0.128 A 
ATOM     14  C   UNL     1      -3.223  -1.546  -0.547  0.00  0.00    +0.072 A 
ATOM     15  C   UNL     1      -3.438  -0.885   0.665  0.00  0.00    +0.150 A 
ATOM     16  N   UNL     1      -2.333  -0.271   1.004  0.00  0.00    -0.176 NA
ATOM     17  I   UNL     1      -4.626  -2.704  -1.586  0.00  0.00    -0.039 I 
BRANCH  13  18
ATOM     18  N   UNL     1      -1.324  -1.777  -2.089  0.00  0.00    -0.342 N 
ATOM     19  H   UNL     1      -0.400  -1.546  -2.276  0.00  0.00    +0.144 HD
ATOM     20  H   UNL     1      -1.818  -2.340  -2.706  0.00  0.00    +0.144 HD
ENDBRANCH  13  18
ENDBRANCH   2  12
TORSDOF 4
