REMARK  Name = ZINC67287519
REMARK  12 active torsions:
REMARK  status: ('A' for Active; 'I' for Inactive)
REMARK    1  A    between atoms: C_1  and  C_2
REMARK    2  A    between atoms: C_2  and  O_3
REMARK    3  A    between atoms: O_3  and  C_4
REMARK    4  A    between atoms: C_4  and  C_6
REMARK    5  A    between atoms: C_7  and  C_22
REMARK    6  A    between atoms: C_12  and  C_14
REMARK    7  A    between atoms: C_19  and  O_20
REMARK    8  A    between atoms: O_20  and  C_21
REMARK    9  A    between atoms: C_22  and  N_23
REMARK   10  A    between atoms: N_26  and  C_29
REMARK   11  A    between atoms: C_31  and  C_36
REMARK   12  A    between atoms: C_34  and  C_35
REMARK                            x       y       z     vdW  Elec       q    Type
REMARK                         _______ _______ _______ _____ _____    ______ ____
ROOT
ATOM      1  C   UNL     1       1.437  -1.920  -2.555  0.00  0.00    +0.079 C 
ATOM      2  C   UNL     1       1.518  -3.267  -2.603  0.00  0.00    +0.038 C 
ATOM      3  N   UNL     1       2.155  -3.898  -3.633  0.00  0.00    -0.271 N 
ATOM      4  C   UNL     1       2.737  -3.254  -4.653  0.00  0.00    +0.304 C 
ATOM      5  O   UNL     1       3.281  -3.903  -5.524  0.00  0.00    -0.252 OA
ATOM      6  N   UNL     1       2.739  -1.909  -4.744  0.00  0.00    -0.288 N 
ATOM      7  C   UNL     1       2.071  -1.134  -3.685  0.00  0.00    +0.147 C 
ATOM      8  H   UNL     1       2.188  -4.868  -3.626  0.00  0.00    +0.156 HD
ATOM      9  H   UNL     1       3.167  -1.463  -5.491  0.00  0.00    +0.151 HD
ENDROOT
BRANCH   7  10
ATOM     10  C   UNL     1       0.998  -0.292  -4.325  0.00  0.00    +0.019 A 
ATOM     11  C   UNL     1       0.308  -0.769  -5.423  0.00  0.00    +0.009 A 
ATOM     12  C   UNL     1      -0.676   0.003  -6.011  0.00  0.00    +0.001 A 
ATOM     13  C   UNL     1      -0.972   1.255  -5.502  0.00  0.00    +0.004 A 
ATOM     14  C   UNL     1      -0.285   1.736  -4.405  0.00  0.00    +0.046 A 
ATOM     15  C   UNL     1       0.699   0.961  -3.809  0.00  0.00    +0.125 A 
BRANCH  15  16
ATOM     16  O   UNL     1       1.373   1.429  -2.726  0.00  0.00    -0.495 OA
ATOM     17  C   UNL     1       0.943   2.682  -2.188  0.00  0.00    +0.277 C 
ENDBRANCH  15  16
ENDBRANCH   7  10
BRANCH   1  18
ATOM     18  C   UNL     1       0.776  -1.265  -1.489  0.00  0.00    +0.339 C 
ATOM     19  O   UNL     1      -0.366  -0.870  -1.632  0.00  0.00    -0.245 OA
BRANCH  18  20
ATOM     20  O   UNL     1       1.413  -1.078  -0.314  0.00  0.00    -0.462 OA
BRANCH  20  22
ATOM     21  C   UNL     1       1.561  -0.274   1.960  0.00  0.00    +0.048 C 
ATOM     22  C   UNL     1       0.650  -0.514   0.754  0.00  0.00    +0.229 C 
ENDBRANCH  20  22
ENDBRANCH  18  20
ENDBRANCH   1  18
BRANCH   2  23
ATOM     23  C   UNL     1       0.895  -4.087  -1.503  0.00  0.00    +0.136 C 
BRANCH  23  24
ATOM     24  N   UNL     1      -0.196  -4.901  -2.056  0.00  0.00    -0.294 NA
ATOM     25  C   UNL     1      -1.295  -4.053  -2.534  0.00  0.00    +0.103 C 
ATOM     26  C   UNL     1      -2.326  -4.921  -3.264  0.00  0.00    +0.120 C 
ATOM     27  N   UNL     1      -2.729  -6.017  -2.370  0.00  0.00    -0.327 N 
ATOM     28  C   UNL     1      -1.675  -6.827  -1.742  0.00  0.00    +0.120 C 
ATOM     29  C   UNL     1      -0.670  -5.884  -1.073  0.00  0.00    +0.103 C 
BRANCH  27  30
ATOM     30  C   UNL     1      -4.079  -6.281  -2.123  0.00  0.00    +0.033 A 
ATOM     31  C   UNL     1      -4.773  -7.172  -2.933  0.00  0.00    +0.026 A 
ATOM     32  C   UNL     1      -6.107  -7.431  -2.686  0.00  0.00    -0.049 A 
ATOM     33  C   UNL     1      -6.751  -6.805  -1.635  0.00  0.00    +0.004 A 
ATOM     34  C   UNL     1      -6.064  -5.918  -0.828  0.00  0.00    +0.005 A 
ATOM     35  C   UNL     1      -4.728  -5.659  -1.065  0.00  0.00    -0.029 A 
ATOM     36  C   UNL     1      -3.977  -4.697  -0.180  0.00  0.00    +0.045 C 
ATOM     37  C   UNL     1      -6.861  -8.397  -3.563  0.00  0.00    +0.044 C 
ENDBRANCH  27  30
ENDBRANCH  23  24
ENDBRANCH   2  23
TORSDOF 8
