REMARK  Name = ZINC06162882
REMARK  10 active torsions:
REMARK  status: ('A' for Active; 'I' for Inactive)
REMARK    1  A    between atoms: C_1  and  O_2
REMARK    2  A    between atoms: O_2  and  C_3
REMARK    3  A    between atoms: C_10  and  C_15
REMARK    4  A    between atoms: C_15  and  C_17
REMARK    5  A    between atoms: C_15  and  N_67
REMARK    6  A    between atoms: N_21  and  C_22
REMARK    7  A    between atoms: C_27  and  C_28
REMARK    8  A    between atoms: C_27  and  N_67
REMARK    9  A    between atoms: C_34  and  C_35
REMARK   10  A    between atoms: C_34  and  N_67
REMARK                            x       y       z     vdW  Elec       q    Type
REMARK                         _______ _______ _______ _____ _____    ______ ____
ROOT
ATOM      1  C   UNL     1       2.893  -0.552   0.189  0.00  0.00    +0.040 C 
ENDROOT
BRANCH   1   9
ATOM      2  C   UNL     1       0.624  -3.147   5.341  0.00  0.00    +0.121 A 
ATOM      3  C   UNL     1       1.848  -3.284   5.992  0.00  0.00    +0.047 A 
ATOM      4  C   UNL     1       3.014  -2.866   5.389  0.00  0.00    +0.030 A 
ATOM      5  C   UNL     1       2.975  -2.302   4.118  0.00  0.00    +0.049 A 
ATOM      6  C   UNL     1       1.740  -2.162   3.457  0.00  0.00    +0.002 A 
ATOM      7  C   UNL     1       0.563  -2.590   4.080  0.00  0.00    +0.055 A 
ATOM      8  C   UNL     1       1.714  -1.566   2.120  0.00  0.00    +0.017 A 
ATOM      9  C   UNL     1       2.885  -1.169   1.564  0.00  0.00    +0.011 A 
ATOM     10  C   UNL     1       4.098  -1.337   2.266  0.00  0.00    +0.251 A 
ATOM     11  O   UNL     1       5.141  -0.978   1.746  0.00  0.00    -0.268 OA
ATOM     12  N   UNL     1       4.132  -1.877   3.497  0.00  0.00    -0.322 N 
ATOM     13  H   UNL     1       4.982  -1.974   3.953  0.00  0.00    +0.169 HD
BRANCH   2  15
ATOM     14  C   UNL     1      -0.384  -4.133   7.256  0.00  0.00    +0.277 C 
ATOM     15  O   UNL     1      -0.517  -3.565   5.952  0.00  0.00    -0.495 OA
ENDBRANCH   2  15
ENDBRANCH   1   9
BRANCH   1  16
ATOM     16  C   UNL     1       3.334   0.885   0.286  0.00  0.00    +0.143 A 
ATOM     17  N   UNL     1       4.567   1.330   0.257  0.00  0.00    -0.115 NA
ATOM     18  N   UNL     1       4.530   2.613   0.366  0.00  0.00    -0.023 NA
ATOM     19  N   UNL     1       3.306   2.999   0.459  0.00  0.00    -0.044 NA
ATOM     20  N   UNL     1       2.538   1.963   0.419  0.00  0.00    -0.227 N 
BRANCH  20  21
ATOM     21  C   UNL     1       1.075   1.960   0.498  0.00  0.00    +0.111 C 
ATOM     22  C   UNL     1       0.619   2.506   1.867  0.00  0.00    +0.027 C 
ATOM     23  C   UNL     1       0.330   4.005   1.599  0.00  0.00    +0.002 C 
ATOM     24  C   UNL     1      -0.306   3.984   0.187  0.00  0.00    +0.002 C 
ATOM     25  C   UNL     1       0.488   2.899  -0.569  0.00  0.00    +0.027 C 
ENDBRANCH  20  21
ENDBRANCH   1  16
BRANCH   1  26
ATOM     26  N   UNL     1       3.849  -1.291  -0.662  0.00  0.00    +0.397 N 
ATOM     27  H   UNL     1       4.784  -1.235  -0.241  0.00  0.00    -0.079 HD
BRANCH  26  28
ATOM     28  C   UNL     1       3.449  -2.711  -0.757  0.00  0.00    -0.039 C 
BRANCH  28  29
ATOM     29  C   UNL     1       4.596  -3.500  -1.334  0.00  0.00    -0.046 A 
ATOM     30  C   UNL     1       4.703  -3.681  -2.705  0.00  0.00    +0.005 A 
ATOM     31  C   UNL     1       5.777  -4.410  -3.192  0.00  0.00    +0.020 A 
ATOM     32  C   UNL     1       6.693  -4.936  -2.301  0.00  0.00    +0.111 A 
ATOM     33  N   UNL     1       6.557  -4.748  -1.003  0.00  0.00    -0.263 NA
ATOM     34  C   UNL     1       5.550  -4.056  -0.505  0.00  0.00    +0.112 A 
ENDBRANCH  28  29
ENDBRANCH  26  28
BRANCH  26  35
ATOM     35  C   UNL     1       3.894  -0.688  -2.011  0.00  0.00    -0.001 C 
BRANCH  35  36
ATOM     36  C   UNL     1       2.539  -0.760  -2.668  0.00  0.00    +0.089 A 
ATOM     37  C   UNL     1       1.595   0.197  -2.630  0.00  0.00    +0.042 A 
ATOM     38  C   UNL     1       0.493  -0.285  -3.372  0.00  0.00    +0.041 A 
ATOM     39  C   UNL     1       0.829  -1.508  -3.819  0.00  0.00    +0.195 A 
ATOM     40  O   UNL     1       2.072  -1.788  -3.394  0.00  0.00    -0.470 OA
ENDBRANCH  35  36
ENDBRANCH  26  35
ENDBRANCH   1  26
TORSDOF 9
