REMARK  Name = ZINC63254413
REMARK  6 active torsions:
REMARK  status: ('A' for Active; 'I' for Inactive)
REMARK    1  A    between atoms: C_4  and  C_7
REMARK    2  A    between atoms: N_9  and  C_26
REMARK    3  A    between atoms: C_13  and  N_14
REMARK    4  A    between atoms: N_14  and  C_15
REMARK    5  A    between atoms: C_15  and  C_16
REMARK    6  A    between atoms: C_16  and  C_17
REMARK                            x       y       z     vdW  Elec       q    Type
REMARK                         _______ _______ _______ _____ _____    ______ ____
ROOT
ATOM      1  C   UNL     1       3.701  -0.718  -0.259  0.00  0.00    +0.103 C 
ATOM      2  N   UNL     1       4.886  -0.166  -0.270  0.00  0.00    -0.174 NA
ATOM      3  N   UNL     1       5.865  -1.121   0.010  0.00  0.00    -0.157 N 
ATOM      4  C   UNL     1       5.293  -2.325   0.207  0.00  0.00    +0.272 C 
ATOM      5  O   UNL     1       5.869  -3.367   0.470  0.00  0.00    -0.268 OA
ATOM      6  C   UNL     1       3.889  -2.148   0.056  0.00  0.00    +0.079 C 
ATOM      7  C   UNL     1       2.908  -3.114   0.176  0.00  0.00    +0.082 C 
ENDROOT
BRANCH   3   8
ATOM      8  C   UNL     1       7.304  -0.854   0.079  0.00  0.00    +0.249 C 
ATOM      9  N   UNL     1       7.599   0.197   1.062  0.00  0.00    -0.315 N 
ATOM     10  C   UNL     1       8.191   1.369   0.593  0.00  0.00    +0.043 A 
ATOM     11  C   UNL     1       8.545   2.479   1.381  0.00  0.00    +0.024 A 
ATOM     12  C   UNL     1       9.126   3.594   0.822  0.00  0.00    +0.002 A 
ATOM     13  C   UNL     1       9.382   3.660  -0.535  0.00  0.00    +0.001 A 
ATOM     14  C   UNL     1       9.045   2.582  -1.336  0.00  0.00    +0.016 A 
ATOM     15  C   UNL     1       8.463   1.467  -0.775  0.00  0.00    +0.032 A 
ATOM     16  S   UNL     1       7.906  -0.073  -1.471  0.00  0.00    -0.080 S 
ATOM     17  H   UNL     1       7.391   0.080   2.002  0.00  0.00    +0.149 HD
ENDBRANCH   3   8
BRANCH   1  21
ATOM     18  C   UNL     1      -0.002   1.241  -0.979  0.00  0.00    +0.000 A 
ATOM     19  C   UNL     1       0.144  -0.097  -1.300  0.00  0.00    +0.001 A 
ATOM     20  C   UNL     1       1.343  -0.738  -1.069  0.00  0.00    +0.010 A 
ATOM     21  C   UNL     1       2.410  -0.035  -0.510  0.00  0.00    +0.003 A 
ATOM     22  C   UNL     1       2.257   1.313  -0.188  0.00  0.00    +0.010 A 
ATOM     23  C   UNL     1       1.052   1.943  -0.424  0.00  0.00    +0.001 A 
ENDBRANCH   1  21
BRANCH   7  24
ATOM     24  N   UNL     1       3.252  -4.407   0.352  0.00  0.00    -0.349 N 
ATOM     25  H   UNL     1       4.187  -4.659   0.395  0.00  0.00    +0.146 HD
BRANCH  24  26
ATOM     26  C   UNL     1       2.211  -5.431   0.480  0.00  0.00    +0.105 C 
BRANCH  26  27
ATOM     27  C   UNL     1       2.865  -6.801   0.669  0.00  0.00    +0.052 C 
BRANCH  27  28
ATOM     28  C   UNL     1       1.794  -7.854   0.800  0.00  0.00    -0.040 C 
ATOM     29  C   UNL     1       1.297  -8.635  -0.186  0.00  0.00    -0.001 A 
ATOM     30  C   UNL     1       1.591  -8.733  -1.621  0.00  0.00    +0.010 A 
ATOM     31  C   UNL     1       0.913  -9.632  -2.369  0.00  0.00    +0.001 A 
ATOM     32  C   UNL     1      -0.063 -10.470  -1.811  0.00  0.00    +0.002 A 
ATOM     33  C   UNL     1      -0.388 -10.438  -0.501  0.00  0.00    +0.026 A 
ATOM     34  C   UNL     1       0.263  -9.531   0.379  0.00  0.00    +0.043 A 
ATOM     35  N   UNL     1       0.127  -9.312   1.665  0.00  0.00    -0.380 N 
ATOM     36  C   UNL     1       1.064  -8.256   2.062  0.00  0.00    +0.144 C 
ATOM     37  H   UNL     1      -0.488  -9.775   2.255  0.00  0.00    +0.160 HD
ENDBRANCH  27  28
ENDBRANCH  26  27
ENDBRANCH  24  26
ENDBRANCH   7  24
TORSDOF 6
