REMARK  Name = ZINC20685958
REMARK  14 active torsions:
REMARK  status: ('A' for Active; 'I' for Inactive)
REMARK    1  A    between atoms: C_1  and  C_2
REMARK    2  A    between atoms: C_2  and  O_3
REMARK    3  A    between atoms: O_3  and  C_4
REMARK    4  A    between atoms: C_4  and  C_6
REMARK    5  A    between atoms: C_6  and  O_7
REMARK    6  A    between atoms: O_7  and  C_8
REMARK    7  A    between atoms: N_15  and  N_16
REMARK    8  A    between atoms: N_16  and  C_17
REMARK    9  A    between atoms: C_17  and  N_19
REMARK   10  A    between atoms: N_19  and  C_20
REMARK   11  A    between atoms: C_23  and  C_27
REMARK   12  A    between atoms: C_25  and  C_26
REMARK   13  A    between atoms: C_29  and  C_31
REMARK   14  A    between atoms: C_29  and  C_32
REMARK                            x       y       z     vdW  Elec       q    Type
REMARK                         _______ _______ _______ _____ _____    ______ ____
ROOT
ATOM      1  C   UNL     1       4.343  -0.083  -1.911  0.00  0.00    +0.122 A 
ATOM      2  C   UNL     1       4.607   1.133  -1.294  0.00  0.00    +0.049 A 
ATOM      3  C   UNL     1       3.605   1.821  -0.638  0.00  0.00    +0.050 A 
ATOM      4  C   UNL     1       2.320   1.302  -0.590  0.00  0.00    +0.131 A 
ATOM      5  C   UNL     1       2.051   0.077  -1.215  0.00  0.00    +0.043 A 
ATOM      6  C   UNL     1       3.065  -0.615  -1.873  0.00  0.00    +0.059 A 
ATOM      7  C   UNL     1       0.676  -0.468  -1.163  0.00  0.00    +0.074 C 
ATOM      8  N   UNL     1       0.311  -1.470  -1.902  0.00  0.00    -0.185 NA
ATOM      9  C   UNL     1      -0.284   0.207  -0.200  0.00  0.00    +0.110 C 
ATOM     10  C   UNL     1      -0.020   1.718  -0.282  0.00  0.00    +0.140 C 
ATOM     11  O   UNL     1       1.341   1.980   0.060  0.00  0.00    -0.480 OA
ATOM     12  C   UNL     1      -0.291   2.206  -1.707  0.00  0.00    +0.061 C 
ENDROOT
BRANCH  10  13
ATOM     13  C   UNL     1      -0.928   2.440   0.679  0.00  0.00    +0.014 A 
ATOM     14  C   UNL     1      -0.525   3.630   1.266  0.00  0.00    +0.010 A 
ATOM     15  C   UNL     1      -1.395   4.262   2.141  0.00  0.00    +0.020 A 
ATOM     16  C   UNL     1      -2.623   3.684   2.405  0.00  0.00    +0.111 A 
ATOM     17  N   UNL     1      -2.971   2.549   1.831  0.00  0.00    -0.263 NA
ATOM     18  C   UNL     1      -2.171   1.923   0.990  0.00  0.00    +0.118 A 
ENDBRANCH  10  13
BRANCH   8  19
ATOM     19  N   UNL     1      -1.001  -1.957  -1.823  0.00  0.00    -0.218 N 
ATOM     20  H   UNL     1      -1.720  -1.490  -1.135  0.00  0.00    +0.176 HD
BRANCH  19  21
ATOM     21  C   UNL     1      -1.381  -2.998  -2.591  0.00  0.00    +0.154 C 
ATOM     22  S   UNL     1      -2.983  -3.593  -2.494  0.00  0.00    -0.017 S 
BRANCH  21  23
ATOM     23  N   UNL     1      -0.499  -3.571  -3.434  0.00  0.00    -0.295 N 
ATOM     24  H   UNL     1       0.502  -3.134  -3.563  0.00  0.00    +0.154 HD
BRANCH  23  25
ATOM     25  C   UNL     1      -0.857  -4.720  -4.146  0.00  0.00    +0.036 A 
ATOM     26  C   UNL     1      -1.521  -5.758  -3.503  0.00  0.00    +0.024 A 
ATOM     27  C   UNL     1      -1.878  -6.889  -4.210  0.00  0.00    +0.005 A 
ATOM     28  C   UNL     1      -1.565  -6.995  -5.553  0.00  0.00    -0.050 A 
ATOM     29  C   UNL     1      -0.899  -5.966  -6.194  0.00  0.00    +0.008 A 
ATOM     30  C   UNL     1      -0.544  -4.830  -5.494  0.00  0.00    -0.029 A 
ATOM     31  C   UNL     1       0.182  -3.709  -6.194  0.00  0.00    +0.045 C 
ATOM     32  C   UNL     1      -1.951  -8.234  -6.319  0.00  0.00    +0.044 C 
ENDBRANCH  23  25
ENDBRANCH  21  23
ENDBRANCH  19  21
ENDBRANCH   8  19
BRANCH   1  33
ATOM     33  O   UNL     1       5.339  -0.751  -2.551  0.00  0.00    -0.481 OA
BRANCH  33  34
ATOM     34  C   UNL     1       6.633  -0.144  -2.551  0.00  0.00    +0.349 C 
BRANCH  34  35
ATOM     35  C   UNL     1       7.600  -1.021  -3.303  0.00  0.00    +0.345 C 
ATOM     36  O   UNL     1       7.221  -2.060  -3.789  0.00  0.00    -0.247 OA
BRANCH  35  37
ATOM     37  O   UNL     1       8.883  -0.649  -3.432  0.00  0.00    -0.463 OA
BRANCH  37  39
ATOM     38  C   UNL     1      11.170  -0.955  -4.210  0.00  0.00    +0.048 C 
ATOM     39  C   UNL     1       9.758  -1.543  -4.168  0.00  0.00    +0.229 C 
ENDBRANCH  37  39
ENDBRANCH  35  37
ENDBRANCH  34  35
ENDBRANCH  33  34
ENDBRANCH   1  33
TORSDOF 10
