REMARK  Name = ZINC21705218
REMARK  7 active torsions:
REMARK  status: ('A' for Active; 'I' for Inactive)
REMARK    1  A    between atoms: C_1  and  C_2
REMARK    2  A    between atoms: C_2  and  C_4
REMARK    3  A    between atoms: C_2  and  N_12
REMARK    4  A    between atoms: C_13  and  C_15
REMARK    5  A    between atoms: C_15  and  N_16
REMARK    6  A    between atoms: C_19  and  C_23
REMARK    7  A    between atoms: C_19  and  C_24
REMARK                            x       y       z     vdW  Elec       q    Type
REMARK                         _______ _______ _______ _____ _____    ______ ____
ROOT
ATOM      1  N   UNL     1       3.897  -0.019   1.814  0.00  0.00    -0.215 N 
ATOM      2  C   UNL     1       3.368   0.728   0.824  0.00  0.00    +0.251 C 
ATOM      3  O   UNL     1       3.557   1.907   0.616  0.00  0.00    -0.272 OA
ATOM      4  C   UNL     1       2.489  -0.214   0.026  0.00  0.00    +0.135 C 
ATOM      5  N   UNL     1       2.639  -1.502   0.723  0.00  0.00    -0.281 N 
ATOM      6  C   UNL     1       3.479  -1.288   1.752  0.00  0.00    +0.310 C 
ATOM      7  O   UNL     1       3.820  -2.151   2.537  0.00  0.00    -0.252 OA
ATOM      8  C   UNL     1       2.983  -0.323  -1.418  0.00  0.00    +0.047 C 
ATOM      9  H   UNL     1       2.103  -2.391   0.358  0.00  0.00    +0.152 HD
ENDROOT
BRANCH   4  10
ATOM     10  C   UNL     1       1.054   0.244   0.060  0.00  0.00    -0.015 A 
ATOM     11  C   UNL     1       0.768   1.608   0.085  0.00  0.00    +0.007 A 
ATOM     12  C   UNL     1      -0.517   2.055   0.116  0.00  0.00    +0.009 A 
ATOM     13  C   UNL     1      -1.575   1.130   0.123  0.00  0.00    -0.018 A 
ATOM     14  C   UNL     1      -2.914   1.553   0.155  0.00  0.00    +0.008 A 
ATOM     15  C   UNL     1      -3.913   0.628   0.161  0.00  0.00    +0.001 A 
ATOM     16  C   UNL     1      -3.628  -0.736   0.135  0.00  0.00    +0.001 A 
ATOM     17  C   UNL     1      -2.342  -1.183   0.104  0.00  0.00    +0.008 A 
ATOM     18  C   UNL     1      -1.285  -0.257   0.091  0.00  0.00    -0.018 A 
ATOM     19  C   UNL     1       0.055  -0.681   0.065  0.00  0.00    +0.014 A 
ENDBRANCH   4  10
BRANCH   1  20
ATOM     20  C   UNL     1       4.818   0.496   2.831  0.00  0.00    +0.213 C 
BRANCH  20  22
ATOM     21  N   UNL     1       7.260   0.758   3.120  0.00  0.00    -0.307 N 
ATOM     22  C   UNL     1       6.237   0.349   2.345  0.00  0.00    +0.231 C 
ATOM     23  O   UNL     1       6.457  -0.138   1.256  0.00  0.00    -0.274 OA
ATOM     24  H   UNL     1       7.060   1.200   4.107  0.00  0.00    +0.149 HD
BRANCH  21  26
ATOM     25  C   UNL     1       9.028   1.846   1.825  0.00  0.00    +0.033 C 
ATOM     26  C   UNL     1       8.640   0.615   2.647  0.00  0.00    +0.102 C 
BRANCH  26  27
ATOM     27  C   UNL     1       9.565   0.489   3.830  0.00  0.00    -0.009 A 
ATOM     28  C   UNL     1       9.217   1.052   5.043  0.00  0.00    +0.008 A 
ATOM     29  C   UNL     1      10.065   0.936   6.129  0.00  0.00    +0.020 A 
ATOM     30  C   UNL     1      11.263   0.256   6.001  0.00  0.00    +0.042 A 
ATOM     31  C   UNL     1      11.612  -0.308   4.787  0.00  0.00    +0.040 A 
ATOM     32  C   UNL     1      10.761  -0.196   3.703  0.00  0.00    +0.047 A 
ATOM     33 CL   UNL     1      11.195  -0.909   2.181  0.00  0.00    -0.083 Cl
ATOM     34 CL   UNL     1      12.329   0.112   7.364  0.00  0.00    -0.083 Cl
ENDBRANCH  26  27
ENDBRANCH  21  26
ENDBRANCH  20  22
ENDBRANCH   1  20
TORSDOF 5
