REMARK  Name = ZINC39979603
REMARK  9 active torsions:
REMARK  status: ('A' for Active; 'I' for Inactive)
REMARK    1  A    between atoms: C_1  and  C_2
REMARK    2  A    between atoms: C_5  and  N_9
REMARK    3  A    between atoms: C_6  and  C_8
REMARK    4  A    between atoms: C_10  and  S_15
REMARK    5  A    between atoms: S_15  and  C_16
REMARK    6  A    between atoms: C_16  and  C_17
REMARK    7  A    between atoms: N_19  and  C_20
REMARK    8  A    between atoms: N_19  and  C_21
REMARK    9  A    between atoms: C_21  and  C_22
REMARK                            x       y       z     vdW  Elec       q    Type
REMARK                         _______ _______ _______ _____ _____    ______ ____
ROOT
ATOM      1  C   UNL     1       0.873  -4.724  -4.583  0.00  0.00    +0.226 C 
ATOM      2  O   UNL     1       0.090  -4.193  -5.341  0.00  0.00    -0.275 OA
ATOM      3  N   UNL     1       2.059  -5.169  -5.043  0.00  0.00    -0.300 N 
ATOM      4  C   UNL     1       3.053  -5.704  -4.108  0.00  0.00    +0.132 C 
ENDROOT
BRANCH   1   5
ATOM      5  C   UNL     1       0.520  -4.887  -3.127  0.00  0.00    +0.168 C 
BRANCH   5   6
ATOM      6  S   UNL     1      -1.129  -4.194  -2.824  0.00  0.00    -0.107 S 
BRANCH   6   8
ATOM      7  N   UNL     1      -0.366  -3.778  -0.253  0.00  0.00    -0.173 N 
ATOM      8  C   UNL     1      -1.399  -4.465  -1.050  0.00  0.00    +0.260 C 
ATOM      9  N   UNL     1      -1.198  -5.884  -0.699  0.00  0.00    -0.218 N 
ATOM     10  N   UNL     1      -0.135  -5.905   0.212  0.00  0.00    -0.063 NA
ATOM     11  N   UNL     1       0.311  -4.785   0.446  0.00  0.00    -0.056 NA
ATOM     12  H   UNL     1      -1.698  -6.645  -1.031  0.00  0.00    +0.173 HD
BRANCH   7  17
ATOM     13  C   UNL     1       0.668   1.794  -0.074  0.00  0.00    +0.044 C 
ATOM     14  C   UNL     1       0.393   0.313  -0.121  0.00  0.00    -0.050 A 
ATOM     15  C   UNL     1       0.388  -0.349  -1.336  0.00  0.00    +0.005 A 
ATOM     16  C   UNL     1       0.137  -1.706  -1.383  0.00  0.00    +0.025 A 
ATOM     17  C   UNL     1      -0.111  -2.407  -0.209  0.00  0.00    +0.059 A 
ATOM     18  C   UNL     1      -0.106  -1.738   1.009  0.00  0.00    -0.027 A 
ATOM     19  C   UNL     1       0.151  -0.382   1.050  0.00  0.00    +0.008 A 
ATOM     20  C   UNL     1      -0.374  -2.493   2.285  0.00  0.00    +0.046 C 
ENDBRANCH   7  17
ENDBRANCH   6   8
ENDBRANCH   5   6
ENDBRANCH   1   5
BRANCH   3  21
ATOM     21  C   UNL     1       2.355  -5.119  -6.476  0.00  0.00    +0.143 C 
BRANCH  21  22
ATOM     22  C   UNL     1       2.878  -3.752  -6.834  0.00  0.00    -0.016 A 
ATOM     23  C   UNL     1       2.040  -2.784  -7.281  0.00  0.00    +0.076 A 
ATOM     24  C   UNL     1       2.541  -1.507  -7.613  0.00  0.00    +0.249 A 
ATOM     25  O   UNL     1       1.771  -0.652  -8.012  0.00  0.00    -0.268 OA
ATOM     26  N   UNL     1       3.848  -1.210  -7.498  0.00  0.00    -0.322 N 
ATOM     27  H   UNL     1       4.159  -0.322  -7.735  0.00  0.00    +0.169 HD
ATOM     28  C   UNL     1       4.752  -2.149  -7.049  0.00  0.00    +0.049 A 
ATOM     29  C   UNL     1       4.302  -3.437  -6.700  0.00  0.00    +0.003 A 
ATOM     30  C   UNL     1       5.214  -4.391  -6.238  0.00  0.00    +0.010 A 
ATOM     31  C   UNL     1       6.536  -4.066  -6.125  0.00  0.00    +0.001 A 
ATOM     32  C   UNL     1       6.982  -2.796  -6.463  0.00  0.00    +0.002 A 
ATOM     33  C   UNL     1       6.103  -1.843  -6.931  0.00  0.00    +0.026 A 
ENDBRANCH  21  22
ENDBRANCH   3  21
TORSDOF 6
