REMARK  Name = ZINC14549631
REMARK  3 active torsions:
REMARK  status: ('A' for Active; 'I' for Inactive)
REMARK    1  A    between atoms: C_6  and  C_7
REMARK    2  A    between atoms: C_18  and  N_24
REMARK    3  A    between atoms: C_20  and  O_23
REMARK                            x       y       z     vdW  Elec       q    Type
REMARK                         _______ _______ _______ _____ _____    ______ ____
ROOT
ATOM      1  C   UNL     1      -1.997   0.680  -1.446  0.00  0.00    +0.105 C 
ATOM      2  C   UNL     1      -0.821   1.629  -1.204  0.00  0.00    +0.029 C 
ATOM      3  C   UNL     1      -0.013   1.086   0.008  0.00  0.00    +0.033 C 
ATOM      4  C   UNL     1      -0.778   1.602   1.210  0.00  0.00    -0.030 C 
ATOM      5  C   UNL     1      -1.520   2.631   0.873  0.00  0.00    -0.023 C 
ATOM      6  C   UNL     1      -1.356   2.943  -0.597  0.00  0.00    +0.049 C 
ATOM      7  C   UNL     1      -2.662   3.345  -1.215  0.00  0.00    -0.014 A 
ATOM      8  C   UNL     1      -3.185   4.590  -0.883  0.00  0.00    +0.039 A 
ATOM      9  C   UNL     1      -4.383   5.016  -1.416  0.00  0.00    +0.130 A 
ATOM     10  C   UNL     1      -5.081   4.203  -2.292  0.00  0.00    +0.080 A 
ATOM     11  C   UNL     1      -4.570   2.964  -2.630  0.00  0.00    +0.140 A 
ATOM     12  C   UNL     1      -3.354   2.531  -2.091  0.00  0.00    +0.074 A 
ATOM     13  N   UNL     1      -2.880   1.273  -2.471  0.00  0.00    -0.334 N 
ATOM     14  H   UNL     1      -2.422   1.315  -3.369  0.00  0.00    +0.147 HD
ENDROOT
BRANCH   1  20
ATOM     15  C   UNL     1      -1.133  -0.803  -3.267  0.00  0.00    +0.008 A 
ATOM     16  C   UNL     1      -0.653  -2.018  -3.719  0.00  0.00    +0.038 A 
ATOM     17  C   UNL     1      -0.531  -3.082  -2.842  0.00  0.00    +0.123 A 
ATOM     18  C   UNL     1      -0.883  -2.926  -1.512  0.00  0.00    +0.038 A 
ATOM     19  C   UNL     1      -1.357  -1.709  -1.062  0.00  0.00    +0.008 A 
ATOM     20  C   UNL     1      -1.480  -0.647  -1.938  0.00  0.00    -0.027 A 
ATOM     21  F   UNL     1      -0.067  -4.272  -3.283  0.00  0.00    -0.205 F 
ENDBRANCH   1  20
BRANCH   9  22
ATOM     22  N   UNL     1      -4.924   6.344  -1.050  0.00  0.00    +0.057 N 
ATOM     23  O   UNL     1      -4.311   7.060  -0.279  0.00  0.00    -0.126 OA
ATOM     24  O   UNL     1      -5.982   6.722  -1.520  0.00  0.00    -0.126 OA
ENDBRANCH   9  22
BRANCH  11  25
ATOM     25  O   UNL     1      -5.253   2.163  -3.491  0.00  0.00    -0.505 OA
ATOM     26  H   UNL     1      -5.020   2.294  -4.420  0.00  0.00    +0.292 HD
ENDBRANCH  11  25
TORSDOF 3
