REMARK  Name = ZINC06923820
REMARK  8 active torsions:
REMARK  status: ('A' for Active; 'I' for Inactive)
REMARK    1  A    between atoms: C_1  and  C_2
REMARK    2  A    between atoms: C_5  and  N_9
REMARK    3  A    between atoms: C_7  and  C_8
REMARK    4  A    between atoms: C_14  and  C_15
REMARK    5  A    between atoms: C_19  and  O_23
REMARK    6  A    between atoms: C_20  and  O_21
REMARK    7  A    between atoms: O_21  and  C_22
REMARK    8  A    between atoms: O_23  and  C_24
REMARK                            x       y       z     vdW  Elec       q    Type
REMARK                         _______ _______ _______ _____ _____    ______ ____
ROOT
ATOM      1  N   UNL     1      -0.883  -4.282   0.804  0.00  0.00    -0.226 NA
ATOM      2  C   UNL     1      -1.475  -4.915  -0.183  0.00  0.00    +0.166 C 
ATOM      3  N   UNL     1      -2.377  -4.421  -1.100  0.00  0.00    -0.260 N 
ATOM      4  C   UNL     1      -2.881  -5.203  -2.040  0.00  0.00    +0.256 C 
ATOM      5  C   UNL     1      -2.432  -6.609  -2.052  0.00  0.00    +0.078 C 
ATOM      6  C   UNL     1      -2.781  -7.617  -2.891  0.00  0.00    +0.032 C 
ATOM      7  S   UNL     1      -1.301  -6.625  -0.669  0.00  0.00    -0.049 S 
ATOM      8  O   UNL     1      -3.679  -4.783  -2.857  0.00  0.00    -0.269 OA
ATOM      9  H   UNL     1      -2.645  -3.490  -1.056  0.00  0.00    +0.157 HD
ENDROOT
BRANCH   1  14
ATOM     10  C   UNL     1      -1.971   1.184   1.704  0.00  0.00    +0.044 C 
ATOM     11  C   UNL     1      -1.680  -0.275   1.464  0.00  0.00    -0.047 A 
ATOM     12  C   UNL     1      -1.445  -0.728   0.177  0.00  0.00    +0.006 A 
ATOM     13  C   UNL     1      -1.179  -2.062  -0.050  0.00  0.00    +0.028 A 
ATOM     14  C   UNL     1      -1.146  -2.957   1.022  0.00  0.00    +0.067 A 
ATOM     15  C   UNL     1      -1.385  -2.493   2.318  0.00  0.00    +0.031 A 
ATOM     16  C   UNL     1      -1.645  -1.155   2.531  0.00  0.00    -0.046 A 
ATOM     17  C   UNL     1      -1.897  -0.651   3.929  0.00  0.00    +0.044 C 
ENDBRANCH   1  14
BRANCH   6  18
ATOM     18  C   UNL     1      -2.332  -8.988  -2.618  0.00  0.00    +0.022 A 
ATOM     19  C   UNL     1      -1.885  -9.341  -1.338  0.00  0.00    +0.012 A 
ATOM     20  C   UNL     1      -1.465 -10.629  -1.088  0.00  0.00    +0.004 A 
ATOM     21  C   UNL     1      -1.480 -11.579  -2.095  0.00  0.00    +0.049 A 
ATOM     22  C   UNL     1      -1.918 -11.245  -3.367  0.00  0.00    +0.162 A 
ATOM     23  C   UNL     1      -2.353  -9.953  -3.636  0.00  0.00    +0.169 A 
BRANCH  23  24
ATOM     24  O   UNL     1      -2.789  -9.624  -4.880  0.00  0.00    -0.491 OA
ATOM     25  C   UNL     1      -1.810  -9.144  -5.804  0.00  0.00    +0.277 C 
ENDBRANCH  23  24
BRANCH  22  26
ATOM     26  O   UNL     1      -1.929 -12.185  -4.350  0.00  0.00    -0.491 OA
ATOM     27  C   UNL     1      -1.475 -13.494  -4.002  0.00  0.00    +0.277 C 
ENDBRANCH  22  26
ENDBRANCH   6  18
TORSDOF 4
