REMARK  Name = ZINC14988650
REMARK  9 active torsions:
REMARK  status: ('A' for Active; 'I' for Inactive)
REMARK    1  A    between atoms: C_1  and  C_2
REMARK    2  A    between atoms: C_4  and  C_7
REMARK    3  A    between atoms: C_7  and  C_9
REMARK    4  A    between atoms: C_7  and  N_10
REMARK    5  A    between atoms: C_21  and  N_59
REMARK    6  A    between atoms: C_25  and  C_26
REMARK    7  A    between atoms: C_25  and  N_59
REMARK    8  A    between atoms: C_26  and  C_27
REMARK    9  A    between atoms: C_27  and  C_28
REMARK                            x       y       z     vdW  Elec       q    Type
REMARK                         _______ _______ _______ _____ _____    ______ ____
ROOT
ATOM      1  N   UNL     1      -0.016   1.342   0.009  0.00  0.00    -0.290 N 
ATOM      2  C   UNL     1       1.134   2.064   0.002  0.00  0.00    +0.203 A 
ATOM      3  N   UNL     1       2.301   1.477  -0.012  0.00  0.00    -0.230 NA
ATOM      4  C   UNL     1       2.398   0.151  -0.020  0.00  0.00    +0.116 A 
ATOM      5  C   UNL     1       1.266  -0.679  -0.014  0.00  0.00    +0.076 A 
ATOM      6  C   UNL     1       0.002  -0.004   0.002  0.00  0.00    +0.263 A 
ATOM      7  O   UNL     1      -1.039  -0.638   0.008  0.00  0.00    -0.267 OA
ATOM      8  C   UNL     1       1.527  -2.118  -0.024  0.00  0.00    -0.023 A 
ATOM      9  C   UNL     1       2.820  -2.506  -0.039  0.00  0.00    -0.006 A 
ATOM     10  S   UNL     1       3.752  -0.998  -0.039  0.00  0.00    -0.073 S 
ATOM     11  C   UNL     1       3.347  -3.908  -0.052  0.00  0.00    +0.027 C 
ATOM     12  C   UNL     1       2.196  -4.855  -0.421  0.00  0.00    -0.067 C 
ATOM     13  C   UNL     1       0.974  -4.497   0.430  0.00  0.00    -0.011 C 
ATOM     14  C   UNL     1       0.404  -3.151  -0.019  0.00  0.00    +0.035 C 
ENDROOT
BRANCH  12  15
ATOM     15  N   UNL     1       2.592  -6.248  -0.144  0.00  0.00    +0.381 N 
ATOM     16  H   UNL     1       1.750  -6.813   0.020  0.00  0.00    -0.086 HD
ATOM     17  H   UNL     1       3.188  -6.271   0.691  0.00  0.00    -0.086 HD
BRANCH  15  18
ATOM     18  C   UNL     1       3.336  -6.806  -1.289  0.00  0.00    -0.082 C 
BRANCH  18  19
ATOM     19  C   UNL     1       3.733  -8.250  -0.974  0.00  0.00    -0.014 C 
BRANCH  19  20
ATOM     20  C   UNL     1       4.505  -8.837  -2.157  0.00  0.00    +0.033 C 
BRANCH  20  21
ATOM     21  C   UNL     1       4.896 -10.258  -1.846  0.00  0.00    -0.047 A 
ATOM     22  C   UNL     1       6.105 -10.524  -1.230  0.00  0.00    +0.003 A 
ATOM     23  C   UNL     1       6.461 -11.828  -0.940  0.00  0.00    +0.000 A 
ATOM     24  C   UNL     1       5.614 -12.867  -1.276  0.00  0.00    +0.000 A 
ATOM     25  C   UNL     1       4.408 -12.602  -1.897  0.00  0.00    +0.000 A 
ATOM     26  C   UNL     1       4.049 -11.297  -2.182  0.00  0.00    +0.003 A 
ENDBRANCH  20  21
ENDBRANCH  19  20
ENDBRANCH  18  19
ENDBRANCH  15  18
ENDBRANCH  12  15
BRANCH   1  27
ATOM     27  C   UNL     1      -1.303   2.042   0.019  0.00  0.00    +0.137 C 
ATOM     28  C   UNL     1      -1.401   2.912   1.274  0.00  0.00    +0.038 C 
BRANCH  27  32
ATOM     29  C   UNL     1       0.703   4.708  -3.708  0.00  0.00    +0.073 C 
ATOM     30  C   UNL     1      -0.410   4.114  -2.885  0.00  0.00    +0.076 A 
ATOM     31  N   UNL     1      -0.331   3.359  -1.813  0.00  0.00    -0.247 NA
ATOM     32  C   UNL     1      -1.411   2.913  -1.206  0.00  0.00    +0.071 A 
ATOM     33  C   UNL     1      -2.623   3.261  -1.707  0.00  0.00    +0.072 A 
ATOM     34  S   UNL     1      -2.126   4.258  -3.105  0.00  0.00    -0.080 S 
ENDBRANCH  27  32
ENDBRANCH   1  27
TORSDOF 7
