REMARK  Name = ZINC05900398
REMARK  8 active torsions:
REMARK  status: ('A' for Active; 'I' for Inactive)
REMARK    1  A    between atoms: C_1  and  C_2
REMARK    2  A    between atoms: C_2  and  O_3
REMARK    3  A    between atoms: O_3  and  C_4
REMARK    4  A    between atoms: C_7  and  C_10
REMARK    5  A    between atoms: N_16  and  N_17
REMARK    6  A    between atoms: C_18  and  C_19
REMARK    7  A    between atoms: C_28  and  O_29
REMARK    8  A    between atoms: O_29  and  C_30
REMARK                            x       y       z     vdW  Elec       q    Type
REMARK                         _______ _______ _______ _____ _____    ______ ____
ROOT
ATOM      1  C   UNL     1      -2.502   1.004   0.019  0.00  0.00    +0.184 A 
ATOM      2  N   UNL     1      -2.635  -0.266   0.288  0.00  0.00    -0.152 NA
ATOM      3  N   UNL     1      -3.994  -0.592   0.182  0.00  0.00    -0.253 N 
ATOM      4  H   UNL     1      -4.387  -1.466   0.327  0.00  0.00    +0.191 HD
ATOM      5  C   UNL     1      -4.657   0.533  -0.159  0.00  0.00    +0.197 A 
ATOM      6  S   UNL     1      -6.344   0.675  -0.413  0.00  0.00    -0.010 S 
ATOM      7  N   UNL     1      -3.751   1.527  -0.257  0.00  0.00    -0.188 N 
ENDROOT
BRANCH   1  11
ATOM      8  C   UNL     1       1.153   3.171   0.008  0.00  0.00    +0.121 A 
ATOM      9  C   UNL     1       1.171   1.782   0.000  0.00  0.00    +0.046 A 
ATOM     10  C   UNL     1      -0.013   1.076   0.008  0.00  0.00    +0.015 A 
ATOM     11  C   UNL     1      -1.230   1.758   0.017  0.00  0.00    +0.021 A 
ATOM     12  C   UNL     1      -1.244   3.154   0.029  0.00  0.00    +0.015 A 
ATOM     13  C   UNL     1      -0.056   3.853   0.022  0.00  0.00    +0.046 A 
BRANCH   8  14
ATOM     14  O   UNL     1       2.322   3.863   0.001  0.00  0.00    -0.492 OA
BRANCH  14  16
ATOM     15  C   UNL     1       3.638   5.890  -0.000  0.00  0.00    +0.048 C 
ATOM     16  C   UNL     1       2.231   5.289   0.009  0.00  0.00    +0.225 C 
ENDBRANCH  14  16
ENDBRANCH   8  14
ENDBRANCH   1  11
BRANCH   7  17
ATOM     17  N   UNL     1      -4.028   2.860  -0.585  0.00  0.00    -0.170 NA
ATOM     18  C   UNL     1      -4.016   3.240  -1.829  0.00  0.00    +0.145 C 
BRANCH  18  19
ATOM     19  C   UNL     1      -4.306   4.638  -2.174  0.00  0.00    +0.044 A 
ATOM     20  C   UNL     1      -4.291   5.083  -3.566  0.00  0.00    -0.006 A 
ATOM     21  C   UNL     1      -4.001   4.199  -4.612  0.00  0.00    +0.009 A 
ATOM     22  C   UNL     1      -3.997   4.654  -5.897  0.00  0.00    +0.001 A 
ATOM     23  C   UNL     1      -4.277   5.987  -6.185  0.00  0.00    +0.001 A 
ATOM     24  C   UNL     1      -4.572   6.872  -5.192  0.00  0.00    +0.008 A 
ATOM     25  C   UNL     1      -4.581   6.438  -3.855  0.00  0.00    -0.017 A 
ATOM     26  C   UNL     1      -4.866   7.326  -2.802  0.00  0.00    +0.012 A 
ATOM     27  C   UNL     1      -4.871   6.897  -1.513  0.00  0.00    +0.047 A 
ATOM     28  C   UNL     1      -4.597   5.571  -1.179  0.00  0.00    +0.129 A 
BRANCH  28  29
ATOM     29  O   UNL     1      -4.614   5.187   0.123  0.00  0.00    -0.494 OA
ATOM     30  C   UNL     1      -4.919   6.191   1.093  0.00  0.00    +0.277 C 
ENDBRANCH  28  29
ENDBRANCH  18  19
ENDBRANCH   7  17
TORSDOF 6
