REMARK  Name = ZINC09763066
REMARK  11 active torsions:
REMARK  status: ('A' for Active; 'I' for Inactive)
REMARK    1  A    between atoms: C_1  and  C_2
REMARK    2  A    between atoms: C_2  and  C_3
REMARK    3  A    between atoms: C_8  and  N_9
REMARK    4  A    between atoms: C_10  and  C_12
REMARK    5  A    between atoms: C_12  and  C_13
REMARK    6  A    between atoms: N_18  and  N_19
REMARK    7  A    between atoms: C_20  and  C_21
REMARK    8  A    between atoms: C_20  and  C_22
REMARK    9  A    between atoms: C_23  and  C_24
REMARK   10  A    between atoms: C_27  and  O_30
REMARK   11  A    between atoms: O_30  and  C_31
REMARK                            x       y       z     vdW  Elec       q    Type
REMARK                         _______ _______ _______ _____ _____    ______ ____
ROOT
ATOM      1  C   UNL     1      -2.393  -0.609  -6.021  0.00  0.00    +0.149 C 
ATOM      2  C   UNL     1      -1.740  -0.326  -7.364  0.00  0.00    +0.233 C 
ATOM      3  N   UNL     1      -1.572  -1.372  -8.155  0.00  0.00    -0.263 N 
ATOM      4  C   UNL     1      -1.962  -2.643  -7.793  0.00  0.00    +0.183 C 
ATOM      5  N   UNL     1      -1.849  -3.758  -8.488  0.00  0.00    -0.127 NA
ATOM      6  S   UNL     1      -2.656  -2.426  -6.160  0.00  0.00    -0.075 S 
ATOM      7  O   UNL     1      -1.395   0.790  -7.690  0.00  0.00    -0.274 OA
ATOM      8  H   UNL     1      -1.159  -1.239  -9.023  0.00  0.00    +0.157 HD
ENDROOT
BRANCH   5   9
ATOM      9  N   UNL     1      -2.270  -4.872  -7.992  0.00  0.00    -0.152 NA
ATOM     10  C   UNL     1      -2.158  -5.980  -8.683  0.00  0.00    +0.061 C 
ATOM     11  C   UNL     1      -1.538  -5.953 -10.056  0.00  0.00    +0.067 C 
BRANCH  10  12
ATOM     12  C   UNL     1      -2.618  -7.200  -8.141  0.00  0.00    +0.025 C 
ATOM     13  C   UNL     1      -3.175  -7.225  -6.908  0.00  0.00    +0.010 C 
BRANCH  13  14
ATOM     14  C   UNL     1      -3.654  -8.495  -6.343  0.00  0.00    -0.025 A 
ATOM     15  C   UNL     1      -3.530  -9.680  -7.077  0.00  0.00    +0.011 A 
ATOM     16  C   UNL     1      -3.981 -10.867  -6.542  0.00  0.00    +0.046 A 
ATOM     17  C   UNL     1      -4.557 -10.889  -5.278  0.00  0.00    +0.120 A 
ATOM     18  C   UNL     1      -4.682  -9.715  -4.546  0.00  0.00    +0.046 A 
ATOM     19  C   UNL     1      -4.230  -8.523  -5.068  0.00  0.00    +0.011 A 
BRANCH  17  20
ATOM     20  O   UNL     1      -5.000 -12.062  -4.756  0.00  0.00    -0.495 OA
ATOM     21  C   UNL     1      -5.582 -12.014  -3.452  0.00  0.00    +0.277 C 
ENDBRANCH  17  20
ENDBRANCH  13  14
ENDBRANCH  10  12
ENDBRANCH   5   9
BRANCH   1  22
ATOM     22  C   UNL     1      -1.451  -0.272  -4.864  0.00  0.00    +0.120 C 
BRANCH  22  24
ATOM     23  N   UNL     1      -1.505  -0.315  -2.391  0.00  0.00    -0.285 N 
ATOM     24  C   UNL     1      -2.147  -0.541  -3.555  0.00  0.00    +0.219 C 
ATOM     25  O   UNL     1      -3.285  -0.961  -3.548  0.00  0.00    -0.275 OA
ATOM     26  H   UNL     1      -0.620   0.082  -2.395  0.00  0.00    +0.155 HD
BRANCH  23  32
ATOM     27  C   UNL     1      -1.349  -1.119  -0.119  0.00  0.00    -0.026 A 
ATOM     28  C   UNL     1      -1.954  -1.445   1.079  0.00  0.00    +0.005 A 
ATOM     29  C   UNL     1      -3.322  -1.313   1.222  0.00  0.00    +0.000 A 
ATOM     30  C   UNL     1      -4.090  -0.854   0.168  0.00  0.00    +0.002 A 
ATOM     31  C   UNL     1      -3.491  -0.525  -1.033  0.00  0.00    +0.023 A 
ATOM     32  C   UNL     1      -2.116  -0.652  -1.178  0.00  0.00    +0.037 A 
BRANCH  27  34
ATOM     33  C   UNL     1       0.819   0.078   0.019  0.00  0.00    +0.009 C 
ATOM     34  C   UNL     1       0.143  -1.263  -0.275  0.00  0.00    +0.033 C 
ENDBRANCH  27  34
ENDBRANCH  23  32
ENDBRANCH  22  24
ENDBRANCH   1  22
TORSDOF 8
