REMARK  Name = ZINC43438980
REMARK  6 active torsions:
REMARK  status: ('A' for Active; 'I' for Inactive)
REMARK    1  A    between atoms: C_1  and  C_2
REMARK    2  A    between atoms: C_2  and  C_4
REMARK    3  A    between atoms: C_2  and  N_7
REMARK    4  A    between atoms: C_4  and  C_5
REMARK    5  A    between atoms: C_4  and  C_6
REMARK    6  A    between atoms: N_17  and  C_20
REMARK                            x       y       z     vdW  Elec       q    Type
REMARK                         _______ _______ _______ _____ _____    ______ ____
ROOT
ATOM      1  N   UNL     1       0.688  -0.476  -1.203  0.00  0.00    -0.296 N 
ATOM      2  C   UNL     1       0.006  -0.608  -2.358  0.00  0.00    +0.306 C 
ATOM      3  O   UNL     1      -1.178  -0.335  -2.400  0.00  0.00    -0.252 OA
ATOM      4  N   UNL     1       0.637  -1.043  -3.467  0.00  0.00    -0.248 N 
ATOM      5  C   UNL     1      -0.066  -1.179  -4.659  0.00  0.00    +0.166 A 
ATOM      6  N   UNL     1       0.378  -1.589  -5.827  0.00  0.00    -0.229 NA
ATOM      7  C   UNL     1      -0.416  -1.669  -6.889  0.00  0.00    +0.056 A 
ATOM      8  C   UNL     1      -1.705  -1.296  -6.671  0.00  0.00    +0.028 A 
ATOM      9  S   UNL     1      -1.695  -0.864  -4.955  0.00  0.00    -0.055 S 
ATOM     10  C   UNL     1      -2.814  -1.276  -7.666  0.00  0.00    +0.128 C 
ATOM     11  N   UNL     1      -2.221  -1.393  -9.014  0.00  0.00    -0.300 NA
ATOM     12  C   UNL     1      -1.253  -2.498  -9.063  0.00  0.00    +0.090 C 
ATOM     13  C   UNL     1       0.009  -2.135  -8.275  0.00  0.00    +0.071 C 
ATOM     14  C   UNL     1      -3.264  -1.561 -10.035  0.00  0.00    +0.105 C 
ATOM     15  H   UNL     1       1.632  -0.695  -1.170  0.00  0.00    +0.151 HD
ATOM     16  H   UNL     1       1.582  -1.261  -3.434  0.00  0.00    +0.158 HD
ENDROOT
BRANCH   1  18
ATOM     17  C   UNL     1      -0.019   1.526   0.010  0.00  0.00    +0.028 C 
ATOM     18  C   UNL     1       0.002  -0.004   0.002  0.00  0.00    +0.074 C 
BRANCH  18  19
ATOM     19  C   UNL     1       0.742  -0.511   1.242  0.00  0.00    +0.003 C 
ATOM     20  C   UNL     1       0.026  -0.018   2.500  0.00  0.00    +0.009 C 
ATOM     21  C   UNL     1       0.763  -2.041   1.233  0.00  0.00    +0.009 C 
ENDBRANCH  18  19
ENDBRANCH   1  18
TORSDOF 2
