REMARK  Name = ZINC64050837
REMARK  8 active torsions:
REMARK  status: ('A' for Active; 'I' for Inactive)
REMARK    1  A    between atoms: C_4  and  C_7
REMARK    2  A    between atoms: C_12  and  N_13
REMARK    3  A    between atoms: C_14  and  C_16
REMARK    4  A    between atoms: C_16  and  O_17
REMARK    5  A    between atoms: O_17  and  C_18
REMARK    6  A    between atoms: C_18  and  C_20
REMARK    7  A    between atoms: C_20  and  C_21
REMARK    8  A    between atoms: C_21  and  C_22
REMARK                            x       y       z     vdW  Elec       q    Type
REMARK                         _______ _______ _______ _____ _____    ______ ____
ROOT
ATOM      1  O   UNL     1       2.518  -4.691   4.325  0.00  0.00    -0.455 OA
ENDROOT
BRANCH   1   2
ATOM      2  C   UNL     1       1.653  -5.215   5.209  0.00  0.00    +0.308 C 
ATOM      3  O   UNL     1       0.553  -4.732   5.336  0.00  0.00    -0.251 OA
BRANCH   2   4
ATOM      4  C   UNL     1       2.055  -6.404   6.042  0.00  0.00    +0.128 C 
BRANCH   4   5
ATOM      5  C   UNL     1       0.896  -6.798   6.960  0.00  0.00    +0.085 C 
BRANCH   5   6
ATOM      6  C   UNL     1       1.298  -7.988   7.794  0.00  0.00    +0.124 C 
ATOM      7  N   UNL     1       2.502  -8.482   7.633  0.00  0.00    -0.161 NA
ATOM      8  C   UNL     1       2.951  -9.536   8.322  0.00  0.00    +0.271 C 
ATOM      9  O   UNL     1       4.079  -9.966   8.150  0.00  0.00    -0.268 OA
ATOM     10  C   UNL     1       2.024 -10.170   9.313  0.00  0.00    +0.071 C 
ATOM     11  C   UNL     1       2.239 -11.267  10.062  0.00  0.00    -0.042 C 
ATOM     12  C   UNL     1       3.451 -12.182   9.904  0.00  0.00    +0.033 C 
ATOM     13  C   UNL     1       2.908 -13.600   9.677  0.00  0.00    +0.004 C 
ATOM     14  C   UNL     1       1.924 -13.972  10.784  0.00  0.00    +0.002 C 
ATOM     15  C   UNL     1       0.700 -13.052  10.757  0.00  0.00    +0.019 C 
ATOM     16  C   UNL     1       1.155 -11.624  11.073  0.00  0.00    +0.079 C 
ATOM     17  S   UNL     1      -0.172 -10.434  10.646  0.00  0.00    -0.097 S 
ATOM     18  C   UNL     1       0.704  -9.514   9.405  0.00  0.00    +0.111 C 
ATOM     19  N   UNL     1       0.419  -8.476   8.655  0.00  0.00    -0.227 NA
ENDBRANCH   5   6
ENDBRANCH   4   5
ENDBRANCH   2   4
ENDBRANCH   1   2
BRANCH   1  20
ATOM     20  C   UNL     1       2.070  -3.565   3.569  0.00  0.00    +0.328 C 
BRANCH  20  22
ATOM     21  N   UNL     1       2.968  -2.064   1.819  0.00  0.00    -0.282 N 
ATOM     22  C   UNL     1       3.166  -3.118   2.636  0.00  0.00    +0.255 C 
ATOM     23  O   UNL     1       4.226  -3.707   2.621  0.00  0.00    -0.272 OA
ATOM     24  H   UNL     1       2.146  -1.553   1.877  0.00  0.00    +0.155 HD
BRANCH  21  30
ATOM     25  C   UNL     1       3.577  -1.201  -0.362  0.00  0.00    +0.003 A 
ATOM     26  C   UNL     1       4.562  -0.844  -1.280  0.00  0.00    +0.010 A 
ATOM     27  C   UNL     1       5.894  -0.997  -0.956  0.00  0.00    +0.001 A 
ATOM     28  C   UNL     1       6.258  -1.505   0.279  0.00  0.00    +0.002 A 
ATOM     29  C   UNL     1       5.291  -1.863   1.198  0.00  0.00    +0.024 A 
ATOM     30  C   UNL     1       3.948  -1.708   0.889  0.00  0.00    +0.041 A 
BRANCH  25  34
ATOM     31  C   UNL     1      -0.532  -0.735  -1.346  0.00  0.00    +0.000 A 
ATOM     32  C   UNL     1       0.345   0.317  -1.538  0.00  0.00    +0.001 A 
ATOM     33  C   UNL     1       1.681   0.171  -1.220  0.00  0.00    +0.008 A 
ATOM     34  C   UNL     1       2.144  -1.038  -0.705  0.00  0.00    -0.016 A 
ATOM     35  C   UNL     1       1.255  -2.095  -0.514  0.00  0.00    +0.008 A 
ATOM     36  C   UNL     1      -0.078  -1.938  -0.836  0.00  0.00    +0.001 A 
ENDBRANCH  25  34
ENDBRANCH  21  30
ENDBRANCH  20  22
ENDBRANCH   1  20
TORSDOF 8
