REMARK  Name = ZINC39855455
REMARK  6 active torsions:
REMARK  status: ('A' for Active; 'I' for Inactive)
REMARK    1  A    between atoms: C_1  and  C_2
REMARK    2  A    between atoms: C_6  and  C_7
REMARK    3  A    between atoms: C_18  and  C_20
REMARK    4  A    between atoms: C_23  and  C_28
REMARK    5  A    between atoms: C_23  and  C_29
REMARK    6  A    between atoms: C_25  and  O_27
REMARK                            x       y       z     vdW  Elec       q    Type
REMARK                         _______ _______ _______ _____ _____    ______ ____
ROOT
ATOM      1  C   UNL     1       0.546   0.193  -0.292  0.00  0.00    +0.048 C 
ATOM      2  C   UNL     1      -0.582  -0.766  -0.011  0.00  0.00    +0.006 A 
ATOM      3  C   UNL     1      -1.311  -1.497  -0.952  0.00  0.00    +0.025 A 
ATOM      4  C   UNL     1      -2.228  -2.230  -0.275  0.00  0.00    +0.112 A 
ATOM      5  O   UNL     1      -2.091  -1.984   1.030  0.00  0.00    -0.454 OA
ATOM      6  C   UNL     1      -1.089  -1.096   1.216  0.00  0.00    +0.193 A 
ATOM      7  C   UNL     1      -3.219  -3.157  -0.938  0.00  0.00    +0.081 C 
ATOM      8  C   UNL     1      -3.288  -2.805  -2.429  0.00  0.00    -0.025 C 
ATOM      9  C   UNL     1      -1.871  -2.740  -3.006  0.00  0.00    +0.043 C 
ATOM     10  C   UNL     1      -1.149  -1.506  -2.450  0.00  0.00    +0.149 C 
ATOM     11  C   UNL     1      -3.971  -1.446  -2.600  0.00  0.00    +0.011 C 
ATOM     12  C   UNL     1      -4.092  -3.876  -3.168  0.00  0.00    +0.011 C 
ENDROOT
BRANCH   6  13
ATOM     13  C   UNL     1      -0.629  -0.575   2.506  0.00  0.00    +0.287 C 
ATOM     14  O   UNL     1      -0.435   0.619   2.646  0.00  0.00    -0.266 OA
ATOM     15  N   UNL     1      -0.420  -1.417   3.538  0.00  0.00    -0.262 N 
ATOM     16  C   UNL     1      -0.448  -2.805   3.341  0.00  0.00    +0.040 A 
ATOM     17  C   UNL     1      -0.411  -3.305   2.045  0.00  0.00    +0.026 A 
ATOM     18  C   UNL     1      -0.443  -4.668   1.829  0.00  0.00    +0.040 A 
ATOM     19  C   UNL     1      -0.511  -5.536   2.906  0.00  0.00    +0.124 A 
ATOM     20  C   UNL     1      -0.545  -5.039   4.196  0.00  0.00    +0.043 A 
ATOM     21  C   UNL     1      -0.512  -3.673   4.420  0.00  0.00    -0.023 A 
ATOM     22  C   UNL     1      -0.542  -3.166   5.837  0.00  0.00    +0.039 C 
ATOM     23  C   UNL     1      -1.003  -1.709   5.875  0.00  0.00    +0.027 C 
ATOM     24  C   UNL     1      -0.152  -0.896   4.885  0.00  0.00    +0.079 C 
ATOM     25  C   UNL     1      -0.544   0.582   4.956  0.00  0.00    +0.028 C 
ATOM     26  F   UNL     1      -0.544  -6.870   2.696  0.00  0.00    -0.205 F 
ENDBRANCH   6  13
BRANCH  10  27
ATOM     27  O   UNL     1       0.238  -1.569  -2.785  0.00  0.00    -0.387 OA
ATOM     28  H   UNL     1       0.758  -0.827  -2.448  0.00  0.00    +0.210 HD
ENDBRANCH  10  27
TORSDOF 2
