REMARK  Name = ZINC10045909
REMARK  3 active torsions:
REMARK  status: ('A' for Active; 'I' for Inactive)
REMARK    1  A    between atoms: C_5  and  C_7
REMARK    2  A    between atoms: C_9  and  C_27
REMARK    3  A    between atoms: N_13  and  C_18
REMARK                            x       y       z     vdW  Elec       q    Type
REMARK                         _______ _______ _______ _____ _____    ______ ____
ROOT
ATOM      1  C   UNL     1      -2.527   3.869   0.046  0.00  0.00    +0.164 A 
ATOM      2  N   UNL     1      -2.516   5.193   0.052  0.00  0.00    -0.220 NA
ATOM      3  C   UNL     1      -3.654   5.888   0.066  0.00  0.00    +0.154 A 
ATOM      4  C   UNL     1      -4.862   5.191   0.075  0.00  0.00    +0.117 A 
ATOM      5  C   UNL     1      -4.828   3.785   0.068  0.00  0.00    +0.170 A 
ATOM      6  N   UNL     1      -3.657   3.171   0.048  0.00  0.00    -0.208 NA
ATOM      7  N   UNL     1      -6.144   3.356   0.079  0.00  0.00    -0.245 N 
ATOM      8  C   UNL     1      -6.944   4.439   0.092  0.00  0.00    +0.333 A 
ATOM      9  O   UNL     1      -8.160   4.411   0.104  0.00  0.00    -0.246 OA
ATOM     10  N   UNL     1      -6.195   5.559   0.090  0.00  0.00    -0.303 N 
ATOM     11  H   UNL     1      -6.533   6.469   0.097  0.00  0.00    +0.171 HD
ENDROOT
BRANCH   7  12
ATOM     12  C   UNL     1      -6.571   2.020   0.076  0.00  0.00    +0.057 A 
ATOM     13  C   UNL     1      -5.638   0.993   0.061  0.00  0.00    +0.030 A 
ATOM     14  C   UNL     1      -6.058  -0.324   0.059  0.00  0.00    +0.051 A 
ATOM     15  C   UNL     1      -7.411  -0.622   0.072  0.00  0.00    +0.166 A 
ATOM     16  C   UNL     1      -8.349   0.407   0.086  0.00  0.00    +0.168 A 
ATOM     17  C   UNL     1      -7.928   1.726   0.093  0.00  0.00    +0.076 A 
ATOM     18  O   UNL     1      -9.599  -0.143   0.097  0.00  0.00    -0.453 OA
ATOM     19  C   UNL     1      -9.422  -1.508  -0.324  0.00  0.00    +0.466 C 
ATOM     20  O   UNL     1      -8.073  -1.817   0.073  0.00  0.00    -0.453 OA
ENDBRANCH   7  12
BRANCH   1  25
ATOM     21  C   UNL     1      -0.013   1.076   0.008  0.00  0.00    +0.001 A 
ATOM     22  C   UNL     1       1.177   1.782   0.000  0.00  0.00    +0.001 A 
ATOM     23  C   UNL     1       1.166   3.165   0.007  0.00  0.00    +0.016 A 
ATOM     24  C   UNL     1      -0.034   3.849   0.022  0.00  0.00    +0.029 A 
ATOM     25  C   UNL     1      -1.236   3.142   0.030  0.00  0.00    +0.033 A 
ATOM     26  C   UNL     1      -1.218   1.748   0.017  0.00  0.00    +0.013 A 
ATOM     27 BR   UNL     1      -0.047   5.740   0.032  0.00  0.00    -0.050 Br
ENDBRANCH   1  25
BRANCH   3  28
ATOM     28  C   UNL     1      -3.635   7.369   0.074  0.00  0.00    +0.262 C 
ATOM     29  O   UNL     1      -4.679   7.990   0.087  0.00  0.00    -0.269 OA
ATOM     30  N   UNL     1      -2.459   8.028   0.066  0.00  0.00    -0.324 N 
ATOM     31  H   UNL     1      -1.625   7.532   0.056  0.00  0.00    +0.145 HD
ATOM     32  H   UNL     1      -2.446   8.998   0.071  0.00  0.00    +0.145 HD
ENDBRANCH   3  28
TORSDOF 3
