REMARK  Name = ZINC14457515
REMARK  8 active torsions:
REMARK  status: ('A' for Active; 'I' for Inactive)
REMARK    1  A    between atoms: C_1  and  C_2
REMARK    2  A    between atoms: C_2  and  C_3
REMARK    3  A    between atoms: C_3  and  C_4
REMARK    4  A    between atoms: N_6  and  C_7
REMARK    5  A    between atoms: C_20  and  C_23
REMARK    6  A    between atoms: C_26  and  O_30
REMARK    7  A    between atoms: C_27  and  O_29
REMARK    8  A    between atoms: O_30  and  C_31
REMARK                            x       y       z     vdW  Elec       q    Type
REMARK                         _______ _______ _______ _____ _____    ______ ____
ROOT
ATOM      1  C   UNL     1      -0.155   0.004   0.068  0.00  0.00    +0.034 A 
ATOM      2  C   UNL     1      -1.415  -0.563   0.204  0.00  0.00    +0.025 A 
ATOM      3  C   UNL     1      -1.544  -1.936   0.256  0.00  0.00    +0.025 A 
ATOM      4  C   UNL     1      -0.416  -2.745   0.175  0.00  0.00    +0.031 A 
ATOM      5  C   UNL     1       0.843  -2.188   0.044  0.00  0.00    -0.018 A 
ATOM      6  C   UNL     1       0.967  -0.806  -0.017  0.00  0.00    +0.029 A 
ATOM      7  C   UNL     1       2.098  -3.013  -0.039  0.00  0.00    +0.049 C 
ATOM      8  C   UNL     1       2.986  -2.612   1.131  0.00  0.00    -0.023 C 
ATOM      9  C   UNL     1       2.830  -3.444   2.130  0.00  0.00    -0.030 C 
ATOM     10  C   UNL     1       1.821  -4.520   1.772  0.00  0.00    +0.033 C 
ATOM     11  C   UNL     1       1.837  -4.507   0.225  0.00  0.00    +0.029 C 
ATOM     12  C   UNL     1       0.504  -4.963  -0.337  0.00  0.00    +0.105 C 
ATOM     13  N   UNL     1      -0.572  -4.138   0.223  0.00  0.00    -0.336 N 
ATOM     14  H   UNL     1      -1.363  -4.541   0.613  0.00  0.00    +0.147 HD
ENDROOT
BRANCH  12  15
ATOM     15  C   UNL     1       0.516  -4.822  -1.838  0.00  0.00    -0.023 A 
ATOM     16  C   UNL     1       0.293  -3.587  -2.416  0.00  0.00    +0.009 A 
ATOM     17  C   UNL     1       0.309  -3.450  -3.792  0.00  0.00    +0.050 A 
ATOM     18  C   UNL     1       0.539  -4.556  -4.594  0.00  0.00    +0.161 A 
ATOM     19  C   UNL     1       0.758  -5.801  -4.013  0.00  0.00    +0.159 A 
ATOM     20  C   UNL     1       0.746  -5.929  -2.633  0.00  0.00    +0.054 A 
BRANCH  19  21
ATOM     21  O   UNL     1       0.985  -6.889  -4.796  0.00  0.00    -0.503 OA
ATOM     22  H   UNL     1       0.182  -7.368  -5.046  0.00  0.00    +0.292 HD
ENDBRANCH  19  21
BRANCH  18  23
ATOM     23  O   UNL     1       0.550  -4.425  -5.948  0.00  0.00    -0.491 OA
ATOM     24  C   UNL     1       0.317  -3.118  -6.475  0.00  0.00    +0.277 C 
ENDBRANCH  18  23
ENDBRANCH  12  15
BRANCH   1  27
ATOM     25  C   UNL     1      -0.858   2.187   0.707  0.00  0.00    +0.217 C 
ATOM     26  O   UNL     1      -1.671   1.692   1.459  0.00  0.00    -0.275 OA
ATOM     27  N   UNL     1      -0.017   1.397   0.010  0.00  0.00    -0.285 N 
ATOM     28  H   UNL     1       0.681   1.794  -0.535  0.00  0.00    +0.155 HD
BRANCH  25  29
ATOM     29  C   UNL     1      -0.787   3.684   0.553  0.00  0.00    +0.096 C 
BRANCH  29  31
ATOM     30  C   UNL     1      -1.769   5.860   1.291  0.00  0.00    +0.004 C 
ATOM     31  C   UNL     1      -1.841   4.340   1.448  0.00  0.00    +0.006 C 
ENDBRANCH  29  31
ENDBRANCH  25  29
ENDBRANCH   1  27
TORSDOF 6
