REMARK  Name = ZINC08788770
REMARK  5 active torsions:
REMARK  status: ('A' for Active; 'I' for Inactive)
REMARK    1  A    between atoms: C_1  and  S_2
REMARK    2  A    between atoms: S_2  and  C_3
REMARK    3  A    between atoms: C_3  and  C_4
REMARK    4  A    between atoms: C_4  and  C_5
REMARK    5  A    between atoms: N_13  and  C_16
REMARK                            x       y       z     vdW  Elec       q    Type
REMARK                         _______ _______ _______ _____ _____    ______ ____
ROOT
ATOM      1  C   UNL     1       0.587  -7.000  -1.720  0.00  0.00    -0.057 C 
ATOM      2  C   UNL     1       0.715  -6.375  -0.315  0.00  0.00    +0.073 C 
ATOM      3  C   UNL     1      -0.724  -6.376   0.273  0.00  0.00    +0.088 C 
ATOM      4  C   UNL     1      -1.039  -4.904   0.422  0.00  0.00    +0.229 C 
ATOM      5  O   UNL     1      -2.072  -4.450   0.864  0.00  0.00    -0.275 OA
ATOM      6  N   UNL     1      -0.001  -4.181  -0.013  0.00  0.00    -0.210 N 
ATOM      7  C   UNL     1       1.037  -4.904  -0.449  0.00  0.00    +0.228 C 
ATOM      8  O   UNL     1       2.073  -4.451  -0.884  0.00  0.00    -0.275 OA
ATOM      9  C   UNL     1      -1.590  -6.997  -0.829  0.00  0.00    +0.050 C 
ATOM     10  C   UNL     1      -1.852  -8.454  -0.569  0.00  0.00    -0.028 A 
ATOM     11  C   UNL     1      -1.034  -9.552  -0.417  0.00  0.00    +0.004 A 
ATOM     12  C   UNL     1      -1.586 -10.798  -0.180  0.00  0.00    +0.000 A 
ATOM     13  C   UNL     1      -2.959 -10.938  -0.095  0.00  0.00    +0.002 A 
ATOM     14  C   UNL     1      -3.782  -9.841  -0.247  0.00  0.00    +0.023 A 
ATOM     15  C   UNL     1      -3.235  -8.583  -0.487  0.00  0.00    +0.036 A 
ATOM     16  N   UNL     1      -3.848  -7.342  -0.674  0.00  0.00    -0.286 N 
ATOM     17  C   UNL     1      -2.951  -6.359  -0.882  0.00  0.00    +0.211 C 
ATOM     18  O   UNL     1      -3.194  -5.186  -1.075  0.00  0.00    -0.277 OA
ATOM     19  H   UNL     1      -4.808  -7.204  -0.656  0.00  0.00    +0.155 HD
ATOM     20  N   UNL     1      -0.837  -6.803  -2.058  0.00  0.00    +0.394 N 
ATOM     21  H   UNL     1      -1.131  -7.487  -2.765  0.00  0.00    -0.083 HD
ATOM     22  H   UNL     1      -0.987  -5.853  -2.418  0.00  0.00    -0.083 HD
ENDROOT
BRANCH   6  23
ATOM     23  C   UNL     1       0.001  -2.777  -0.008  0.00  0.00    +0.048 A 
ATOM     24  C   UNL     1       0.857  -2.087   0.840  0.00  0.00    +0.028 A 
ATOM     25  C   UNL     1       0.860  -0.706   0.846  0.00  0.00    +0.051 A 
ATOM     26  C   UNL     1       0.007  -0.004   0.006  0.00  0.00    +0.162 A 
ATOM     27  C   UNL     1      -0.849  -0.692  -0.845  0.00  0.00    +0.164 A 
ATOM     28  C   UNL     1      -0.852  -2.079  -0.850  0.00  0.00    +0.073 A 
ATOM     29  O   UNL     1      -1.689  -0.021  -1.680  0.00  0.00    -0.485 OA
ATOM     30  C   UNL     1      -1.927   1.359  -1.380  0.00  0.00    +0.270 C 
ATOM     31  C   UNL     1      -0.576   2.026  -1.088  0.00  0.00    +0.270 C 
ATOM     32  O   UNL     1       0.021   1.357   0.028  0.00  0.00    -0.485 OA
ENDBRANCH   6  23
BRANCH   1  33
ATOM     33  C   UNL     1       1.525  -6.298  -2.703  0.00  0.00    -0.004 C 
BRANCH  33  34
ATOM     34  C   UNL     1       1.474  -7.012  -4.055  0.00  0.00    +0.067 C 
BRANCH  34  36
ATOM     35  C   UNL     1       2.413  -7.135  -6.753  0.00  0.00    +0.084 C 
ATOM     36  S   UNL     1       2.587  -6.179  -5.220  0.00  0.00    -0.164 S 
ENDBRANCH  34  36
ENDBRANCH  33  34
ENDBRANCH   1  33
TORSDOF 4
