REMARK  Name = ZINC13567597
REMARK  7 active torsions:
REMARK  status: ('A' for Active; 'I' for Inactive)
REMARK    1  A    between atoms: C_1  and  C_2
REMARK    2  A    between atoms: C_2  and  C_3
REMARK    3  A    between atoms: C_3  and  N_4
REMARK    4  A    between atoms: C_14  and  C_32
REMARK    5  A    between atoms: C_15  and  N_31
REMARK    6  A    between atoms: N_16  and  C_24
REMARK    7  A    between atoms: C_29  and  C_30
REMARK                            x       y       z     vdW  Elec       q    Type
REMARK                         _______ _______ _______ _____ _____    ______ ____
ROOT
ATOM      1  N   UNL     1      -1.690   2.709   2.720  0.00  0.00    -0.270 N 
ATOM      2  C   UNL     1      -1.113   2.765   3.976  0.00  0.00    +0.041 A 
ATOM      3  C   UNL     1       0.148   2.335   4.393  0.00  0.00    +0.024 A 
ATOM      4  C   UNL     1       0.471   2.518   5.728  0.00  0.00    +0.002 A 
ATOM      5  C   UNL     1      -0.408   3.100   6.619  0.00  0.00    +0.000 A 
ATOM      6  C   UNL     1      -1.667   3.532   6.217  0.00  0.00    +0.007 A 
ATOM      7  C   UNL     1      -1.994   3.353   4.890  0.00  0.00    -0.001 A 
ATOM      8  C   UNL     1      -3.235   3.692   4.122  0.00  0.00    +0.141 C 
ATOM      9  C   UNL     1      -2.932   3.235   2.709  0.00  0.00    +0.240 C 
ATOM     10  O   UNL     1      -3.668   3.325   1.750  0.00  0.00    -0.274 OA
ATOM     11  C   UNL     1      -4.419   2.948   4.663  0.00  0.00    +0.089 C 
ATOM     12  C   UNL     1      -5.364   3.585   5.403  0.00  0.00    +0.108 C 
ATOM     13  N   UNL     1      -5.247   4.932   5.662  0.00  0.00    -0.260 N 
ATOM     14  C   UNL     1      -4.440   5.725   4.890  0.00  0.00    +0.025 C 
ATOM     15  C   UNL     1      -3.467   5.181   4.128  0.00  0.00    +0.037 C 
ATOM     16  C   UNL     1      -2.645   5.984   3.318  0.00  0.00    +0.162 C 
ATOM     17  O   UNL     1      -1.773   5.464   2.652  0.00  0.00    -0.292 OA
ATOM     18  C   UNL     1      -2.826   7.477   3.262  0.00  0.00    +0.080 C 
ATOM     19  C   UNL     1      -4.292   7.813   3.553  0.00  0.00    +0.014 C 
ATOM     20  C   UNL     1      -4.667   7.216   4.911  0.00  0.00    +0.052 C 
ENDROOT
BRANCH  13  21
ATOM     21  C   UNL     1      -5.961   5.497   6.725  0.00  0.00    +0.043 A 
ATOM     22  C   UNL     1      -5.353   5.659   7.963  0.00  0.00    +0.024 A 
ATOM     23  C   UNL     1      -6.060   6.218   9.010  0.00  0.00    +0.002 A 
ATOM     24  C   UNL     1      -7.372   6.616   8.826  0.00  0.00    +0.000 A 
ATOM     25  C   UNL     1      -7.980   6.455   7.595  0.00  0.00    +0.005 A 
ATOM     26  C   UNL     1      -7.277   5.902   6.543  0.00  0.00    -0.029 A 
ATOM     27  C   UNL     1      -7.938   5.733   5.199  0.00  0.00    +0.045 C 
ENDBRANCH  13  21
BRANCH  12  28
ATOM     28  N   UNL     1      -6.439   2.883   5.894  0.00  0.00    -0.345 N 
ATOM     29  H   UNL     1      -7.114   3.336   6.423  0.00  0.00    +0.144 HD
ATOM     30  H   UNL     1      -6.522   1.934   5.712  0.00  0.00    +0.144 HD
ENDBRANCH  12  28
BRANCH  11  31
ATOM     31  C   UNL     1      -4.556   1.548   4.396  0.00  0.00    +0.100 C 
ATOM     32  N   UNL     1      -4.664   0.438   4.183  0.00  0.00    -0.191 NA
ENDBRANCH  11  31
BRANCH   1  33
ATOM     33  C   UNL     1      -1.028   2.149   1.539  0.00  0.00    +0.113 C 
BRANCH  33  35
ATOM     34  C   UNL     1      -0.653   0.070   0.204  0.00  0.00    +0.005 C 
ATOM     35  C   UNL     1      -1.345   0.655   1.438  0.00  0.00    +0.016 C 
ENDBRANCH  33  35
ENDBRANCH   1  33
TORSDOF 5
