REMARK  Name = ZINC35747639
REMARK  11 active torsions:
REMARK  status: ('A' for Active; 'I' for Inactive)
REMARK    1  A    between atoms: C_2  and  C_3
REMARK    2  A    between atoms: C_3  and  N_4
REMARK    3  A    between atoms: N_4  and  C_5
REMARK    4  A    between atoms: N_4  and  C_24
REMARK    5  A    between atoms: C_5  and  C_6
REMARK    6  A    between atoms: C_12  and  C_17
REMARK    7  A    between atoms: C_24  and  C_25
REMARK    8  A    between atoms: C_25  and  C_27
REMARK    9  A    between atoms: C_25  and  O_35
REMARK   10  A    between atoms: C_27  and  O_28
REMARK   11  A    between atoms: O_28  and  C_29
REMARK                            x       y       z     vdW  Elec       q    Type
REMARK                         _______ _______ _______ _____ _____    ______ ____
ROOT
ATOM      1  C   UNL     1      -2.712  -2.186  -1.400  0.00  0.00    -0.003 C 
ENDROOT
BRANCH   1   2
ATOM      2  C   UNL     1      -3.702  -1.072  -1.622  0.00  0.00    +0.094 A 
ATOM      3  N   UNL     1      -5.009  -1.372  -1.832  0.00  0.00    -0.312 N 
ATOM      4  H   UNL     1      -5.288  -2.301  -1.837  0.00  0.00    +0.170 HD
ATOM      5  C   UNL     1      -5.925  -0.407  -2.034  0.00  0.00    +0.260 A 
ATOM      6  O   UNL     1      -7.095  -0.693  -2.221  0.00  0.00    -0.267 OA
ATOM      7  C   UNL     1      -5.504   0.961  -2.025  0.00  0.00    +0.080 A 
ATOM      8  C   UNL     1      -6.295   2.171  -2.217  0.00  0.00    +0.004 A 
ATOM      9  C   UNL     1      -5.671   3.373  -2.165  0.00  0.00    +0.056 A 
ATOM     10  S   UNL     1      -3.970   2.941  -1.854  0.00  0.00    -0.076 S 
ATOM     11  C   UNL     1      -4.134   1.175  -1.800  0.00  0.00    +0.116 A 
ATOM     12  N   UNL     1      -3.288   0.167  -1.603  0.00  0.00    -0.229 NA
BRANCH   8  13
ATOM     13  C   UNL     1      -7.754   2.088  -2.464  0.00  0.00    -0.015 A 
ATOM     14  C   UNL     1      -8.250   1.230  -3.444  0.00  0.00    +0.008 A 
ATOM     15  C   UNL     1      -9.610   1.156  -3.670  0.00  0.00    +0.002 A 
ATOM     16  C   UNL     1     -10.480   1.932  -2.926  0.00  0.00    +0.020 A 
ATOM     17  C   UNL     1      -9.994   2.787  -1.952  0.00  0.00    +0.042 A 
ATOM     18  C   UNL     1      -8.636   2.864  -1.713  0.00  0.00    +0.028 A 
ATOM     19 CL   UNL     1     -11.094   3.758  -1.023  0.00  0.00    -0.084 Cl
ENDBRANCH   8  13
ENDBRANCH   1   2
BRANCH   1  20
ATOM     20  N   UNL     1      -1.374  -1.618  -1.190  0.00  0.00    +0.388 N 
ATOM     21  H   UNL     1      -1.137  -1.018  -1.967  0.00  0.00    -0.081 HD
BRANCH  20  22
ATOM     22  C   UNL     1      -1.363  -0.836   0.053  0.00  0.00    -0.051 C 
BRANCH  22  24
ATOM     23  C   UNL     1       0.002   1.167   0.346  0.00  0.00    +0.002 C 
ATOM     24  C   UNL     1      -0.037  -0.133   0.193  0.00  0.00    -0.053 C 
ENDBRANCH  22  24
ENDBRANCH  20  22
BRANCH  20  25
ATOM     25  C   UNL     1      -0.390  -2.705  -1.094  0.00  0.00    -0.043 C 
BRANCH  25  26
ATOM     26  C   UNL     1      -0.294  -3.427  -2.439  0.00  0.00    +0.135 C 
BRANCH  26  27
ATOM     27  O   UNL     1       0.122  -2.503  -3.447  0.00  0.00    -0.390 OA
ATOM     28  H   UNL     1       1.015  -2.155  -3.318  0.00  0.00    +0.210 HD
ENDBRANCH  26  27
BRANCH  26  29
ATOM     29  C   UNL     1       0.726  -4.562  -2.337  0.00  0.00    +0.258 C 
BRANCH  29  30
ATOM     30  O   UNL     1       0.732  -5.309  -3.555  0.00  0.00    -0.489 OA
BRANCH  30  31
ATOM     31  C   UNL     1       1.589  -6.361  -3.630  0.00  0.00    +0.121 A 
ATOM     32  C   UNL     1       2.404  -6.672  -2.551  0.00  0.00    +0.045 A 
ATOM     33  C   UNL     1       3.273  -7.742  -2.630  0.00  0.00    +0.004 A 
ATOM     34  C   UNL     1       3.333  -8.503  -3.783  0.00  0.00    +0.000 A 
ATOM     35  C   UNL     1       2.522  -8.195  -4.860  0.00  0.00    +0.004 A 
ATOM     36  C   UNL     1       1.646  -7.130  -4.784  0.00  0.00    +0.045 A 
ENDBRANCH  30  31
ENDBRANCH  29  30
ENDBRANCH  26  29
ENDBRANCH  25  26
ENDBRANCH  20  25
ENDBRANCH   1  20
TORSDOF 11
