REMARK  Name = ZINC13431585
REMARK  15 active torsions:
REMARK  status: ('A' for Active; 'I' for Inactive)
REMARK    1  A    between atoms: C_1  and  C_2
REMARK    2  A    between atoms: C_2  and  C_39
REMARK    3  A    between atoms: C_3  and  C_4
REMARK    4  A    between atoms: C_4  and  C_5
REMARK    5  A    between atoms: C_5  and  C_6
REMARK    6  A    between atoms: C_6  and  C_7
REMARK    7  A    between atoms: C_6  and  C_8
REMARK    8  A    between atoms: C_6  and  O_38
REMARK    9  A    between atoms: C_12  and  C_37
REMARK   10  A    between atoms: C_15  and  O_36
REMARK   11  A    between atoms: C_20  and  C_35
REMARK   12  A    between atoms: C_25  and  C_34
REMARK   13  A    between atoms: C_28  and  O_33
REMARK   14  A    between atoms: C_30  and  C_31
REMARK   15  A    between atoms: C_30  and  C_32
REMARK                            x       y       z     vdW  Elec       q    Type
REMARK                         _______ _______ _______ _____ _____    ______ ____
ROOT
ATOM      1  C   UNL     1       1.298   7.992  -1.998  0.00  0.00    +0.027 C 
ATOM      2  C   UNL     1       0.019   8.784  -2.373  0.00  0.00    +0.007 C 
ATOM      3  C   UNL     1      -0.625   8.001  -3.556  0.00  0.00    +0.008 C 
ATOM      4  C   UNL     1      -0.237   6.557  -3.216  0.00  0.00    -0.021 C 
ATOM      5  C   UNL     1       1.250   6.720  -2.837  0.00  0.00    +0.030 C 
ATOM      6  C   UNL     1       1.789   5.441  -2.247  0.00  0.00    +0.119 C 
ATOM      7  C   UNL     1       1.616   4.332  -3.313  0.00  0.00    +0.036 C 
ATOM      8  C   UNL     1       1.015   4.935  -4.576  0.00  0.00    +0.004 C 
ATOM      9  C   UNL     1      -0.361   5.531  -4.342  0.00  0.00    -0.023 C 
ATOM     10  C   UNL     1      -0.925   6.173  -5.597  0.00  0.00    +0.008 C 
ATOM     11  C   UNL     1      -0.676   5.359  -6.868  0.00  0.00    +0.005 C 
ATOM     12  C   UNL     1      -0.187   3.956  -6.554  0.00  0.00    +0.003 C 
ATOM     13  C   UNL     1       1.117   4.005  -5.780  0.00  0.00    -0.025 C 
ATOM     14  C   UNL     1       1.504   2.588  -5.354  0.00  0.00    +0.010 C 
ATOM     15  C   UNL     1       1.654   1.711  -6.598  0.00  0.00    +0.032 C 
ATOM     16  C   UNL     1       0.352   1.646  -7.381  0.00  0.00    +0.120 C 
ATOM     17  C   UNL     1      -0.187   3.027  -7.756  0.00  0.00    -0.006 C 
ATOM     18  C   UNL     1       0.551   3.584  -8.967  0.00  0.00    +0.014 C 
ATOM     19  C   UNL     1      -1.662   2.812  -8.184  0.00  0.00    +0.014 C 
ATOM     20  C   UNL     1       2.264   4.576  -6.636  0.00  0.00    +0.012 C 
ATOM     21  C   UNL     1      -1.348   4.486  -3.795  0.00  0.00    +0.012 C 
ATOM     22  C   UNL     1      -1.084   6.067  -2.034  0.00  0.00    +0.012 C 
ENDROOT
BRANCH   1  23
ATOM     23  C   UNL     1       1.347   7.711  -0.501  0.00  0.00    +0.067 C 
ATOM     24  C   UNL     1       1.266   9.031   0.269  0.00  0.00    +0.041 C 
BRANCH  23  25
ATOM     25  O   UNL     1       0.244   6.878  -0.136  0.00  0.00    -0.389 OA
ATOM     26  H   UNL     1       0.340   5.956  -0.411  0.00  0.00    +0.210 HD
ENDBRANCH  23  25
BRANCH  23  27
ATOM     27  C   UNL     1       2.658   7.000  -0.159  0.00  0.00    +0.039 C 
BRANCH  27  28
ATOM     28  C   UNL     1       2.976   7.204   1.324  0.00  0.00    +0.030 C 
BRANCH  28  31
ATOM     29  C   UNL     1       3.071   5.377   3.466  0.00  0.00    +0.038 C 
ATOM     30  C   UNL     1       4.306   5.639   2.644  0.00  0.00    -0.080 C 
ATOM     31  C   UNL     1       4.268   6.504   1.661  0.00  0.00    -0.028 C 
ATOM     32  C   UNL     1       5.586   4.906   2.953  0.00  0.00    +0.038 C 
ENDBRANCH  28  31
ENDBRANCH  27  28
ENDBRANCH  23  27
ENDBRANCH   1  23
BRANCH  16  33
ATOM     33  O   UNL     1       0.553   0.884  -8.578  0.00  0.00    -0.391 OA
ATOM     34  H   UNL     1       0.838  -0.027  -8.421  0.00  0.00    +0.210 HD
ENDBRANCH  16  33
BRANCH   6  35
ATOM     35  O   UNL     1       3.187   5.587  -1.960  0.00  0.00    -0.391 OA
ATOM     36  H   UNL     1       3.604   4.784  -1.619  0.00  0.00    +0.210 HD
ENDBRANCH   6  35
TORSDOF 7
