REMARK  Name = ZINC20617174
REMARK  13 active torsions:
REMARK  status: ('A' for Active; 'I' for Inactive)
REMARK    1  A    between atoms: C_1  and  C_2
REMARK    2  A    between atoms: C_5  and  C_9
REMARK    3  A    between atoms: C_6  and  C_8
REMARK    4  A    between atoms: C_9  and  C_11
REMARK    5  A    between atoms: C_9  and  N_12
REMARK    6  A    between atoms: C_13  and  C_15
REMARK    7  A    between atoms: N_17  and  C_34
REMARK    8  A    between atoms: C_19  and  C_20
REMARK    9  A    between atoms: N_22  and  C_23
REMARK   10  A    between atoms: C_23  and  C_25
REMARK   11  A    between atoms: C_23  and  C_26
REMARK   12  A    between atoms: C_29  and  C_33
REMARK   13  A    between atoms: C_31  and  C_32
REMARK                            x       y       z     vdW  Elec       q    Type
REMARK                         _______ _______ _______ _____ _____    ______ ____
ROOT
ATOM      1  C   UNL     1      -1.406  -5.666   2.473  0.00  0.00    +0.086 A 
ATOM      2  C   UNL     1      -2.744  -5.677   2.772  0.00  0.00    +0.121 A 
ATOM      3  N   UNL     1      -3.274  -4.552   2.265  0.00  0.00    -0.273 N 
ATOM      4  N   UNL     1      -2.389  -3.833   1.679  0.00  0.00    -0.166 NA
ATOM      5  C   UNL     1      -1.206  -4.405   1.742  0.00  0.00    +0.159 A 
ATOM      6  C   UNL     1      -4.690  -4.191   2.368  0.00  0.00    +0.172 C 
ENDROOT
BRANCH   1   8
ATOM      7  N   UNL     1      -0.755  -7.792   3.491  0.00  0.00    -0.305 N 
ATOM      8  C   UNL     1      -0.395  -6.686   2.810  0.00  0.00    +0.248 C 
ATOM      9  O   UNL     1       0.763  -6.529   2.473  0.00  0.00    -0.270 OA
ATOM     10  H   UNL     1      -1.802  -7.934   3.795  0.00  0.00    +0.150 HD
BRANCH   7  11
ATOM     11  C   UNL     1       0.249  -8.805   3.826  0.00  0.00    +0.101 C 
ATOM     12  C   UNL     1       0.880  -8.470   5.178  0.00  0.00    +0.033 C 
BRANCH  11  17
ATOM     13  C   UNL     1      -2.274 -13.996   4.112  0.00  0.00    +0.044 C 
ATOM     14  C   UNL     1      -1.616 -12.642   4.037  0.00  0.00    -0.050 A 
ATOM     15  C   UNL     1      -2.354 -11.500   4.287  0.00  0.00    +0.004 A 
ATOM     16  C   UNL     1      -1.751 -10.258   4.218  0.00  0.00    +0.006 A 
ATOM     17  C   UNL     1      -0.409 -10.159   3.900  0.00  0.00    -0.025 A 
ATOM     18  C   UNL     1       0.328 -11.300   3.645  0.00  0.00    -0.045 A 
ATOM     19  C   UNL     1      -0.275 -12.542   3.717  0.00  0.00    +0.007 A 
ATOM     20  C   UNL     1       1.789 -11.191   3.292  0.00  0.00    +0.044 C 
ENDBRANCH  11  17
ENDBRANCH   7  11
ENDBRANCH   1   8
BRANCH   5  21
ATOM     21  C   UNL     1       0.062  -3.890   1.187  0.00  0.00    +0.265 C 
ATOM     22  O   UNL     1       1.088  -4.529   1.319  0.00  0.00    -0.268 OA
ATOM     23  N   UNL     1       0.082  -2.712   0.533  0.00  0.00    -0.303 N 
ATOM     24  H   UNL     1      -0.846  -2.133   0.413  0.00  0.00    +0.150 HD
BRANCH  23  25
ATOM     25  C   UNL     1       1.340  -2.200  -0.018  0.00  0.00    +0.101 C 
ATOM     26  C   UNL     1       1.520  -2.721  -1.445  0.00  0.00    +0.033 C 
BRANCH  25  27
ATOM     27  C   UNL     1       1.306  -0.694  -0.033  0.00  0.00    -0.025 A 
ATOM     28  C   UNL     1       0.096  -0.030  -0.113  0.00  0.00    +0.006 A 
ATOM     29  C   UNL     1       0.065   1.351  -0.128  0.00  0.00    +0.004 A 
ATOM     30  C   UNL     1       1.244   2.070  -0.062  0.00  0.00    -0.050 A 
ATOM     31  C   UNL     1       2.454   1.406   0.018  0.00  0.00    +0.007 A 
ATOM     32  C   UNL     1       2.485   0.024   0.032  0.00  0.00    -0.045 A 
ATOM     33  C   UNL     1       3.804  -0.699   0.119  0.00  0.00    +0.044 C 
ATOM     34  C   UNL     1       1.211   3.576  -0.078  0.00  0.00    +0.044 C 
ENDBRANCH  25  27
ENDBRANCH  23  25
ENDBRANCH   5  21
TORSDOF 6
