REMARK  Name = ZINC39287253
REMARK  4 active torsions:
REMARK  status: ('A' for Active; 'I' for Inactive)
REMARK    1  A    between atoms: C_5  and  C_15
REMARK    2  A    between atoms: C_15  and  N_16
REMARK    3  A    between atoms: N_16  and  C_17
REMARK    4  A    between atoms: C_17  and  C_18
REMARK                            x       y       z     vdW  Elec       q    Type
REMARK                         _______ _______ _______ _____ _____    ______ ____
ROOT
ATOM      1  C   UNL     1      -0.017   1.383   0.010  0.00  0.00    +0.001 A 
ATOM      2  C   UNL     1       1.152   2.089   0.002  0.00  0.00    +0.010 A 
ATOM      3  C   UNL     1       2.375   1.411  -0.012  0.00  0.00    -0.001 A 
ATOM      4  C   UNL     1       3.640   2.149  -0.026  0.00  0.00    +0.017 A 
ATOM      5  C   UNL     1       4.798   1.446  -0.041  0.00  0.00    +0.001 A 
ATOM      6  C   UNL     1       4.771   0.037  -0.041  0.00  0.00    +0.253 A 
ATOM      7  O   UNL     1       5.825  -0.575  -0.058  0.00  0.00    -0.267 OA
ATOM      8  N   UNL     1       3.614  -0.655  -0.022  0.00  0.00    -0.308 N 
ATOM      9  C   UNL     1       2.401   0.002  -0.015  0.00  0.00    +0.055 A 
ATOM     10  C   UNL     1       1.196  -0.693  -0.011  0.00  0.00    -0.023 A 
ATOM     11  C   UNL     1       0.002  -0.004   0.002  0.00  0.00    +0.006 A 
ATOM     12  C   UNL     1       1.185  -2.200  -0.026  0.00  0.00    +0.039 C 
ATOM     13  C   UNL     1       2.453  -2.696  -0.729  0.00  0.00    +0.026 C 
ATOM     14  C   UNL     1       3.673  -2.121  -0.005  0.00  0.00    +0.126 C 
ENDROOT
BRANCH   5  15
ATOM     15  C   UNL     1       6.119   2.172  -0.059  0.00  0.00    -0.041 C 
BRANCH  15  16
ATOM     16  N   UNL     1       6.624   2.303   1.314  0.00  0.00    +0.384 N 
ATOM     17  H   UNL     1       5.961   2.824   1.868  0.00  0.00    -0.085 HD
ATOM     18  H   UNL     1       6.750   1.386   1.714  0.00  0.00    -0.085 HD
BRANCH  16  19
ATOM     19  C   UNL     1       7.911   3.011   1.296  0.00  0.00    -0.046 C 
BRANCH  19  20
ATOM     20  C   UNL     1       8.430   3.145   2.705  0.00  0.00    -0.061 A 
ATOM     21  C   UNL     1       8.089   4.249   3.463  0.00  0.00    +0.005 A 
ATOM     22  C   UNL     1       8.562   4.377   4.756  0.00  0.00    +0.050 A 
ATOM     23  C   UNL     1       9.380   3.397   5.295  0.00  0.00    +0.166 A 
ATOM     24  C   UNL     1       9.724   2.284   4.531  0.00  0.00    +0.166 A 
ATOM     25  C   UNL     1       9.241   2.160   3.238  0.00  0.00    +0.051 A 
ATOM     26  O   UNL     1      10.529   1.474   5.278  0.00  0.00    -0.453 OA
ATOM     27  C   UNL     1      11.006   2.296   6.359  0.00  0.00    +0.466 C 
ATOM     28  O   UNL     1       9.970   3.283   6.521  0.00  0.00    -0.453 OA
ENDBRANCH  19  20
ENDBRANCH  16  19
ENDBRANCH  15  16
ENDBRANCH   5  15
TORSDOF 4
