REMARK  Name = ZINC21335505
REMARK  11 active torsions:
REMARK  status: ('A' for Active; 'I' for Inactive)
REMARK    1  A    between atoms: C_1  and  C_2
REMARK    2  A    between atoms: C_2  and  C_3
REMARK    3  A    between atoms: C_3  and  C_4
REMARK    4  A    between atoms: C_4  and  N_5
REMARK    5  A    between atoms: C_9  and  S_31
REMARK    6  A    between atoms: C_13  and  C_14
REMARK    7  A    between atoms: C_14  and  O_15
REMARK    8  A    between atoms: O_15  and  C_16
REMARK    9  A    between atoms: C_16  and  C_18
REMARK   10  A    between atoms: C_27  and  O_30
REMARK   11  A    between atoms: S_31  and  N_34
REMARK                            x       y       z     vdW  Elec       q    Type
REMARK                         _______ _______ _______ _____ _____    ______ ____
ROOT
ATOM      1  N   UNL     1       2.087   0.774  -0.014  0.00  0.00    -0.325 N 
ATOM      2  C   UNL     1       1.352  -0.395  -0.013  0.00  0.00    +0.069 A 
ATOM      3  C   UNL     1       1.680  -1.744  -0.023  0.00  0.00    +0.030 A 
ATOM      4  C   UNL     1       0.678  -2.691  -0.018  0.00  0.00    +0.030 A 
ATOM      5  C   UNL     1      -0.655  -2.304  -0.003  0.00  0.00    +0.107 A 
ATOM      6  C   UNL     1      -0.997  -0.982   0.007  0.00  0.00    +0.058 A 
ATOM      7  C   UNL     1       0.002  -0.004   0.002  0.00  0.00    +0.091 A 
ATOM      8  N   UNL     1      -0.016   1.354   0.009  0.00  0.00    -0.229 NA
ATOM      9  C   UNL     1       1.203   1.808   0.000  0.00  0.00    +0.149 A 
ENDROOT
BRANCH   5  10
ATOM     10  S   UNL     1      -1.919  -3.531   0.003  0.00  0.00    +0.056 S 
ATOM     11  O   UNL     1      -3.083  -2.918  -0.533  0.00  0.00    -0.153 OA
ATOM     12  O   UNL     1      -1.348  -4.705  -0.559  0.00  0.00    -0.153 OA
BRANCH  10  13
ATOM     13  N   UNL     1      -2.255  -3.880   1.587  0.00  0.00    -0.204 NA
ATOM     14  H   UNL     1      -3.043  -4.646   1.635  0.00  0.00    +0.144 HD
ATOM     15  H   UNL     1      -2.598  -2.969   2.098  0.00  0.00    +0.144 HD
ENDBRANCH  10  13
ENDBRANCH   5  10
BRANCH   1  16
ATOM     16  C   UNL     1       3.548   0.880  -0.027  0.00  0.00    +0.123 C 
BRANCH  16  17
ATOM     17  C   UNL     1       4.043   0.925  -1.474  0.00  0.00    +0.021 C 
BRANCH  17  19
ATOM     18  C   UNL     1       6.064   1.081  -2.934  0.00  0.00    +0.004 C 
ATOM     19  C   UNL     1       5.569   1.036  -1.487  0.00  0.00    -0.002 C 
ENDBRANCH  17  19
ENDBRANCH  16  17
ENDBRANCH   1  16
BRANCH   9  20
ATOM     20  C   UNL     1       1.581   3.267   0.004  0.00  0.00    +0.306 C 
BRANCH  20  21
ATOM     21  O   UNL     1       1.716   3.728   1.373  0.00  0.00    -0.456 OA
BRANCH  21  22
ATOM     22  C   UNL     1       2.051   5.016   1.552  0.00  0.00    +0.314 C 
ATOM     23  O   UNL     1       2.227   5.733   0.596  0.00  0.00    -0.250 OA
BRANCH  22  24
ATOM     24  C   UNL     1       2.209   5.567   2.946  0.00  0.00    +0.071 C 
ATOM     25  C   UNL     1       0.889   5.420   3.705  0.00  0.00    +0.021 C 
ATOM     26  C   UNL     1       1.049   5.980   5.120  0.00  0.00    -0.007 C 
ATOM     27  C   UNL     1       2.147   5.206   5.853  0.00  0.00    +0.007 C 
ATOM     28  C   UNL     1       3.468   5.353   5.094  0.00  0.00    -0.007 C 
ATOM     29  C   UNL     1       3.307   4.793   3.679  0.00  0.00    +0.021 C 
ATOM     30  C   UNL     1       3.850   6.832   5.017  0.00  0.00    +0.038 C 
ATOM     31  C   UNL     1       2.752   7.606   4.284  0.00  0.00    +0.068 C 
ATOM     32  C   UNL     1       1.432   7.459   5.043  0.00  0.00    +0.038 C 
ATOM     33  C   UNL     1       2.592   7.046   2.869  0.00  0.00    +0.052 C 
BRANCH  31  34
ATOM     34  O   UNL     1       3.109   8.987   4.212  0.00  0.00    -0.389 OA
ATOM     35  H   UNL     1       2.437   9.704   3.718  0.00  0.00    +0.210 HD
ENDBRANCH  31  34
ENDBRANCH  22  24
ENDBRANCH  21  22
ENDBRANCH  20  21
ENDBRANCH   9  20
TORSDOF 10
