REMARK  Name = ZINC35930193
REMARK  6 active torsions:
REMARK  status: ('A' for Active; 'I' for Inactive)
REMARK    1  A    between atoms: C_1  and  N_2
REMARK    2  A    between atoms: C_3  and  N_26
REMARK    3  A    between atoms: C_5  and  C_19
REMARK    4  A    between atoms: N_11  and  C_12
REMARK    5  A    between atoms: C_12  and  C_13
REMARK    6  A    between atoms: C_13  and  C_14
REMARK                            x       y       z     vdW  Elec       q    Type
REMARK                         _______ _______ _______ _____ _____    ______ ____
ROOT
ATOM      1  C   UNL     1      -1.048   1.180  -0.100  0.00  0.00    +0.174 C 
ATOM      2  N   UNL     1      -0.468  -0.164  -0.059  0.00  0.00    -0.251 N 
ATOM      3  C   UNL     1      -0.032  -0.850  -1.129  0.00  0.00    +0.126 A 
ATOM      4  C   UNL     1       0.444  -2.075  -0.677  0.00  0.00    +0.086 A 
ATOM      5  C   UNL     1       1.020  -3.220  -1.273  0.00  0.00    +0.089 A 
ATOM      6  N   UNL     1       1.360  -4.233  -0.487  0.00  0.00    -0.214 NA
ATOM      7  C   UNL     1       1.176  -4.200   0.830  0.00  0.00    +0.218 A 
ATOM      8  N   UNL     1       0.647  -3.175   1.466  0.00  0.00    -0.193 NA
ATOM      9  C   UNL     1       0.258  -2.079   0.785  0.00  0.00    +0.188 A 
ATOM     10  N   UNL     1      -0.280  -0.923   1.102  0.00  0.00    -0.149 NA
ATOM     11  N   UNL     1       1.561  -5.302   1.572  0.00  0.00    -0.313 N 
ATOM     12  H   UNL     1       1.952  -6.072   1.130  0.00  0.00    +0.149 HD
ENDROOT
BRANCH   5  13
ATOM     13  C   UNL     1       1.236  -3.287  -2.735  0.00  0.00    +0.001 A 
ATOM     14  C   UNL     1       1.798  -2.203  -3.410  0.00  0.00    +0.013 A 
ATOM     15  C   UNL     1       1.998  -2.271  -4.773  0.00  0.00    +0.039 A 
ATOM     16  C   UNL     1       1.643  -3.414  -5.472  0.00  0.00    +0.123 A 
ATOM     17  C   UNL     1       1.085  -4.494  -4.806  0.00  0.00    +0.039 A 
ATOM     18  C   UNL     1       0.885  -4.438  -3.443  0.00  0.00    +0.013 A 
ATOM     19  F   UNL     1       1.840  -3.475  -6.807  0.00  0.00    -0.205 F 
ENDBRANCH   5  13
BRANCH   3  20
ATOM     20  N   UNL     1      -0.053  -0.415  -2.442  0.00  0.00    -0.343 N 
ATOM     21  H   UNL     1      -0.147   0.530  -2.638  0.00  0.00    +0.144 HD
ATOM     22  H   UNL     1       0.026  -1.056  -3.166  0.00  0.00    +0.144 HD
ENDBRANCH   3  20
BRANCH  11  23
ATOM     23  C   UNL     1       1.376  -5.308   3.025  0.00  0.00    +0.109 C 
BRANCH  23  24
ATOM     24  C   UNL     1       1.880  -6.634   3.598  0.00  0.00    +0.061 C 
BRANCH  24  25
ATOM     25  C   UNL     1       1.690  -6.639   5.093  0.00  0.00    -0.009 A 
ATOM     26  C   UNL     1       0.626  -7.065   5.817  0.00  0.00    +0.011 A 
ATOM     27  C   UNL     1       0.674  -6.974   7.195  0.00  0.00    +0.008 A 
ATOM     28  C   UNL     1       1.783  -6.462   7.782  0.00  0.00    +0.045 A 
ATOM     29  S   UNL     1       2.812  -6.094   6.371  0.00  0.00    -0.102 S 
ENDBRANCH  24  25
ENDBRANCH  23  24
ENDBRANCH  11  23
TORSDOF 5
