REMARK  Name = ZINC03104702
REMARK  3 active torsions:
REMARK  status: ('A' for Active; 'I' for Inactive)
REMARK    1  A    between atoms: C_6  and  N_7
REMARK    2  A    between atoms: N_15  and  C_18
REMARK    3  A    between atoms: N_21  and  C_26
REMARK                            x       y       z     vdW  Elec       q    Type
REMARK                         _______ _______ _______ _____ _____    ______ ____
ROOT
ATOM      1  N   UNL     1      -9.818   4.755  -0.912  0.00  0.00    -0.187 N 
ATOM      2  C   UNL     1      -9.303   3.735  -1.614  0.00  0.00    +0.322 C 
ATOM      3  O   UNL     1      -9.925   3.088  -2.435  0.00  0.00    -0.251 OA
ATOM      4  N   UNL     1      -8.012   3.517  -1.299  0.00  0.00    -0.278 N 
ATOM      5  C   UNL     1      -7.655   4.509  -0.278  0.00  0.00    +0.106 C 
ATOM      6  N   UNL     1      -8.884   5.290  -0.069  0.00  0.00    -0.209 NA
ATOM      7  C   UNL     1      -7.239   3.815   1.016  0.00  0.00    +0.062 C 
ATOM      8  C   UNL     1      -5.943   3.034   0.778  0.00  0.00    +0.108 C 
ATOM      9  N   UNL     1      -4.895   3.954   0.318  0.00  0.00    -0.327 N 
ATOM     10  C   UNL     1      -5.257   4.578  -0.961  0.00  0.00    +0.108 C 
ATOM     11  C   UNL     1      -6.530   5.410  -0.781  0.00  0.00    +0.062 C 
ATOM     12  H   UNL     1      -7.431   2.837  -1.674  0.00  0.00    +0.152 HD
ATOM     13  H   UNL     1      -9.190   5.234   0.891  0.00  0.00    +0.147 HD
ENDROOT
BRANCH   9  14
ATOM     14  C   UNL     1      -3.672   3.309   0.227  0.00  0.00    +0.074 A 
ATOM     15  C   UNL     1      -3.513   2.204  -0.635  0.00  0.00    +0.158 A 
ATOM     16  N   UNL     1      -2.363   1.595  -0.723  0.00  0.00    -0.170 NA
ATOM     17  N   UNL     1      -1.264   2.020   0.032  0.00  0.00    -0.194 N 
ATOM     18  C   UNL     1      -1.373   3.067   0.872  0.00  0.00    +0.292 A 
ATOM     19  O   UNL     1      -0.410   3.429   1.531  0.00  0.00    -0.264 OA
ATOM     20  C   UNL     1      -2.596   3.743   0.981  0.00  0.00    +0.129 A 
ATOM     21 CL   UNL     1      -2.760   5.100   2.051  0.00  0.00    -0.076 Cl
BRANCH  17  22
ATOM     22  C   UNL     1      -0.042   1.346  -0.084  0.00  0.00    +0.088 A 
ATOM     23  C   UNL     1       0.931   1.815  -0.957  0.00  0.00    +0.031 A 
ATOM     24  C   UNL     1       2.138   1.152  -1.064  0.00  0.00    +0.022 A 
ATOM     25  C   UNL     1       2.378   0.021  -0.303  0.00  0.00    +0.042 A 
ATOM     26  C   UNL     1       1.411  -0.448   0.568  0.00  0.00    +0.042 A 
ATOM     27  C   UNL     1       0.202   0.211   0.680  0.00  0.00    +0.068 A 
ATOM     28 CL   UNL     1      -1.011  -0.378   1.774  0.00  0.00    -0.081 Cl
ATOM     29 CL   UNL     1       3.897  -0.809  -0.442  0.00  0.00    -0.083 Cl
ENDBRANCH  17  22
ENDBRANCH   9  14
BRANCH   1  35
ATOM     30  C   UNL     1     -11.394   6.570  -1.141  0.00  0.00    +0.026 A 
ATOM     31  C   UNL     1     -12.696   7.018  -1.260  0.00  0.00    +0.022 A 
ATOM     32  C   UNL     1     -13.743   6.112  -1.255  0.00  0.00    +0.041 A 
ATOM     33  C   UNL     1     -13.488   4.757  -1.138  0.00  0.00    +0.022 A 
ATOM     34  C   UNL     1     -12.188   4.305  -1.024  0.00  0.00    +0.026 A 
ATOM     35  C   UNL     1     -11.136   5.211  -1.028  0.00  0.00    +0.054 A 
ATOM     36 CL   UNL     1     -15.378   6.678  -1.397  0.00  0.00    -0.084 Cl
ENDBRANCH   1  35
TORSDOF 3
