REMARK  Name = ZINC04504246
REMARK  6 active torsions:
REMARK  status: ('A' for Active; 'I' for Inactive)
REMARK    1  A    between atoms: C_1  and  C_2
REMARK    2  A    between atoms: C_6  and  N_9
REMARK    3  A    between atoms: C_7  and  C_8
REMARK    4  A    between atoms: C_10  and  C_12
REMARK    5  A    between atoms: C_12  and  S_13
REMARK    6  A    between atoms: S_13  and  C_14
REMARK                            x       y       z     vdW  Elec       q    Type
REMARK                         _______ _______ _______ _____ _____    ______ ____
ROOT
ATOM      1  C   UNL     1       1.436  -0.653  -0.143  0.00  0.00    +0.173 C 
ENDROOT
BRANCH   1   3
ATOM      2  N   UNL     1      -0.016   1.344   0.009  0.00  0.00    -0.285 N 
ATOM      3  C   UNL     1       0.085  -0.000  -0.009  0.00  0.00    +0.227 C 
ATOM      4  O   UNL     1      -0.912  -0.685   0.083  0.00  0.00    -0.275 OA
ATOM      5  H   UNL     1       0.785   1.890   0.014  0.00  0.00    +0.155 HD
BRANCH   2  11
ATOM      6  C   UNL     1      -2.846   5.210   1.110  0.00  0.00    +0.044 C 
ATOM      7  C   UNL     1      -2.677   3.824   0.543  0.00  0.00    -0.046 A 
ATOM      8  C   UNL     1      -3.770   3.151   0.028  0.00  0.00    +0.004 A 
ATOM      9  C   UNL     1      -3.619   1.879  -0.493  0.00  0.00    +0.002 A 
ATOM     10  C   UNL     1      -2.376   1.277  -0.501  0.00  0.00    +0.023 A 
ATOM     11  C   UNL     1      -1.277   1.950   0.016  0.00  0.00    +0.037 A 
ATOM     12  C   UNL     1      -1.433   3.226   0.543  0.00  0.00    -0.026 A 
ATOM     13  C   UNL     1      -0.244   3.958   1.111  0.00  0.00    +0.046 C 
ENDBRANCH   2  11
ENDBRANCH   1   3
BRANCH   1  14
ATOM     14  S   UNL     1       1.241  -2.452  -0.136  0.00  0.00    -0.076 S 
BRANCH  14  15
ATOM     15  C   UNL     1       2.925  -2.943  -0.302  0.00  0.00    +0.195 A 
ATOM     16  N   UNL     1       3.232  -4.237  -0.339  0.00  0.00    -0.204 NA
ATOM     17  C   UNL     1       4.505  -4.617  -0.465  0.00  0.00    +0.144 A 
ATOM     18  C   UNL     1       4.839  -5.980  -0.505  0.00  0.00    +0.048 A 
ATOM     19  C   UNL     1       6.147  -6.343  -0.635  0.00  0.00    +0.025 A 
ATOM     20  C   UNL     1       7.135  -5.351  -0.723  0.00  0.00    +0.058 A 
ATOM     21  C   UNL     1       6.792  -4.042  -0.682  0.00  0.00    +0.117 A 
ATOM     22  N   UNL     1       5.489  -3.671  -0.554  0.00  0.00    -0.250 N 
ATOM     23  C   UNL     1       5.154  -2.365  -0.513  0.00  0.00    +0.356 A 
ATOM     24  O   UNL     1       6.019  -1.508  -0.592  0.00  0.00    -0.244 OA
ATOM     25  N   UNL     1       3.876  -2.015  -0.393  0.00  0.00    -0.167 NA
ATOM     26 CL   UNL     1       8.803  -5.804  -0.886  0.00  0.00    -0.082 Cl
ENDBRANCH  14  15
ENDBRANCH   1  14
TORSDOF 4
