REMARK  Name = ZINC09914178
REMARK  5 active torsions:
REMARK  status: ('A' for Active; 'I' for Inactive)
REMARK    1  A    between atoms: C_1  and  C_2
REMARK    2  A    between atoms: N_10  and  N_14
REMARK    3  A    between atoms: C_15  and  C_17
REMARK    4  A    between atoms: C_17  and  S_18
REMARK    5  A    between atoms: S_18  and  C_19
REMARK                            x       y       z     vdW  Elec       q    Type
REMARK                         _______ _______ _______ _____ _____    ______ ____
ROOT
ATOM      1  N   UNL     1      -0.011   0.966   0.007  0.00  0.00    -0.223 N 
ATOM      2  C   UNL     1      -1.187   1.624   0.017  0.00  0.00    +0.240 C 
ATOM      3  O   UNL     1      -1.204   2.837   0.023  0.00  0.00    -0.273 OA
ATOM      4  H   UNL     1       0.002  -0.004   0.002  0.00  0.00    +0.174 HD
ENDROOT
BRANCH   1  14
ATOM      5  C   UNL     1       6.872   4.883   0.522  0.00  0.00    +0.007 C 
ATOM      6  C   UNL     1       5.707   4.029   1.024  0.00  0.00    -0.014 C 
ATOM      7  C   UNL     1       4.400   4.811   0.874  0.00  0.00    +0.006 C 
ATOM      8  C   UNL     1       3.236   3.960   1.388  0.00  0.00    +0.035 C 
ATOM      9  C   UNL     1       3.164   2.659   0.596  0.00  0.00    +0.114 C 
ATOM     10  C   UNL     1       4.469   1.881   0.716  0.00  0.00    +0.035 C 
ATOM     11  C   UNL     1       5.628   2.740   0.204  0.00  0.00    +0.006 C 
ATOM     12  C   UNL     1       2.002   1.817   1.071  0.00  0.00    +0.263 C 
ATOM     13  O   UNL     1       1.834   1.358   2.180  0.00  0.00    -0.271 OA
ATOM     14  N   UNL     1       1.193   1.683  -0.000  0.00  0.00    -0.137 N 
ATOM     15  C   UNL     1       1.685   2.315  -1.073  0.00  0.00    +0.326 C 
ATOM     16  O   UNL     1       1.137   2.333  -2.157  0.00  0.00    -0.251 OA
ATOM     17  N   UNL     1       2.854   2.931  -0.814  0.00  0.00    -0.284 N 
ATOM     18  H   UNL     1       3.388   3.449  -1.437  0.00  0.00    +0.151 HD
ENDBRANCH   1  14
BRANCH   2  19
ATOM     19  C   UNL     1      -2.482   0.853   0.018  0.00  0.00    +0.174 C 
BRANCH  19  20
ATOM     20  S   UNL     1      -3.874   2.010   0.031  0.00  0.00    -0.078 S 
BRANCH  20  21
ATOM     21  C   UNL     1      -5.218   0.872   0.032  0.00  0.00    +0.168 A 
ATOM     22  N   UNL     1      -6.540   1.218   0.040  0.00  0.00    -0.333 N 
ATOM     23  H   UNL     1      -6.910   2.147   0.047  0.00  0.00    +0.168 HD
ATOM     24  C   UNL     1      -7.273   0.042   0.036  0.00  0.00    +0.068 A 
ATOM     25  C   UNL     1      -8.629  -0.246   0.041  0.00  0.00    +0.047 A 
ATOM     26  C   UNL     1      -9.053  -1.560   0.035  0.00  0.00    +0.043 A 
ATOM     27  C   UNL     1      -8.130  -2.596   0.025  0.00  0.00    +0.022 A 
ATOM     28  C   UNL     1      -6.779  -2.328   0.020  0.00  0.00    +0.031 A 
ATOM     29  C   UNL     1      -6.334  -1.003   0.026  0.00  0.00    +0.090 A 
ATOM     30  N   UNL     1      -5.100  -0.433   0.018  0.00  0.00    -0.222 NA
ATOM     31 CL   UNL     1     -10.752  -1.918   0.041  0.00  0.00    -0.083 Cl
ENDBRANCH  20  21
ENDBRANCH  19  20
ENDBRANCH   2  19
TORSDOF 4
