REMARK  Name = ZINC19943742
REMARK  10 active torsions:
REMARK  status: ('A' for Active; 'I' for Inactive)
REMARK    1  A    between atoms: C_1  and  C_2
REMARK    2  A    between atoms: C_2  and  C_3
REMARK    3  A    between atoms: C_3  and  C_4
REMARK    4  A    between atoms: C_4  and  O_5
REMARK    5  A    between atoms: O_5  and  C_6
REMARK    6  A    between atoms: C_8  and  C_24
REMARK    7  A    between atoms: C_9  and  C_23
REMARK    8  A    between atoms: C_11  and  S_12
REMARK    9  A    between atoms: S_12  and  N_15
REMARK   10  A    between atoms: C_19  and  C_22
REMARK                            x       y       z     vdW  Elec       q    Type
REMARK                         _______ _______ _______ _____ _____    ______ ____
ROOT
ATOM      1  C   UNL     1       0.002  -0.004   0.002  0.00  0.00    +0.147 A 
ATOM      2  C   UNL     1      -0.017   1.383   0.010  0.00  0.00    +0.051 A 
ATOM      3  C   UNL     1       1.171   2.089   0.002  0.00  0.00    -0.044 A 
ATOM      4  C   UNL     1       2.377   1.414  -0.013  0.00  0.00    -0.045 A 
ATOM      5  C   UNL     1       2.399   0.032  -0.021  0.00  0.00    +0.036 A 
ATOM      6  C   UNL     1       1.214  -0.679  -0.013  0.00  0.00    +0.147 A 
ATOM      7  C   UNL     1       3.671   2.186  -0.021  0.00  0.00    +0.044 C 
ATOM      8  C   UNL     1       1.151   3.596   0.010  0.00  0.00    +0.044 C 
ENDROOT
BRANCH   6   9
ATOM      9  S   UNL     1       1.242  -2.441  -0.022  0.00  0.00    +0.064 S 
ATOM     10  O   UNL     1       0.343  -2.856  -1.041  0.00  0.00    -0.153 OA
ATOM     11  O   UNL     1       2.610  -2.825  -0.011  0.00  0.00    -0.153 OA
BRANCH   9  12
ATOM     12  N   UNL     1       0.595  -2.948   1.415  0.00  0.00    -0.176 NA
ATOM     13  C   UNL     1       1.455  -3.168   2.587  0.00  0.00    +0.109 C 
ATOM     14  C   UNL     1       1.214  -4.578   3.123  0.00  0.00    +0.017 C 
ATOM     15  C   UNL     1      -0.279  -4.771   3.393  0.00  0.00    +0.006 C 
ATOM     16  C   UNL     1      -1.061  -4.608   2.088  0.00  0.00    +0.002 C 
ATOM     17  C   UNL     1      -0.848  -3.193   1.542  0.00  0.00    +0.112 C 
ATOM     18  C   UNL     1      -2.551  -4.834   2.354  0.00  0.00    +0.009 C 
ENDBRANCH   9  12
ENDBRANCH   6   9
BRANCH   1  19
ATOM     19  O   UNL     1      -1.165  -0.701   0.009  0.00  0.00    -0.490 OA
BRANCH  19  20
ATOM     20  C   UNL     1      -2.374   0.060   0.024  0.00  0.00    +0.229 C 
BRANCH  20  21
ATOM     21  C   UNL     1      -3.574  -0.889   0.030  0.00  0.00    +0.041 C 
BRANCH  21  23
ATOM     22  C   UNL     1      -6.069  -1.025   0.052  0.00  0.00    +0.004 C 
ATOM     23  C   UNL     1      -4.869  -0.075   0.046  0.00  0.00    -0.000 C 
ENDBRANCH  21  23
ENDBRANCH  20  21
ENDBRANCH  19  20
ENDBRANCH   1  19
TORSDOF 6
