REMARK  Name = ZINC62778929
REMARK  2 active torsions:
REMARK  status: ('A' for Active; 'I' for Inactive)
REMARK    1  A    between atoms: C_6  and  C_7
REMARK    2  A    between atoms: C_7  and  C_9
REMARK                            x       y       z     vdW  Elec       q    Type
REMARK                         _______ _______ _______ _____ _____    ______ ____
ROOT
ATOM      1  C   UNL     1      -0.017   1.378   0.010  0.00  0.00    +0.009 A 
ATOM      2  C   UNL     1       1.170   2.088   0.002  0.00  0.00    +0.050 A 
ATOM      3  C   UNL     1       2.382   1.415  -0.013  0.00  0.00    +0.162 A 
ATOM      4  C   UNL     1       2.401   0.025  -0.018  0.00  0.00    +0.162 A 
ATOM      5  C   UNL     1       1.207  -0.681  -0.011  0.00  0.00    +0.054 A 
ATOM      6  C   UNL     1       0.002  -0.004   0.002  0.00  0.00    -0.022 A 
ATOM      7  O   UNL     1       3.579  -0.656  -0.024  0.00  0.00    -0.485 OA
ATOM      8  C   UNL     1       4.746   0.081  -0.406  0.00  0.00    +0.270 C 
ATOM      9  C   UNL     1       4.733   1.422   0.340  0.00  0.00    +0.270 C 
ATOM     10  O   UNL     1       3.542   2.127  -0.024  0.00  0.00    -0.485 OA
ENDROOT
BRANCH   6  11
ATOM     11  C   UNL     1      -1.293  -0.774   0.009  0.00  0.00    +0.143 C 
ATOM     12 CL   UNL     1      -2.296  -0.250   1.412  0.00  0.00    -0.112 Cl
BRANCH  11  13
ATOM     13  C   UNL     1      -2.043  -0.507  -1.271  0.00  0.00    +0.012 A 
ATOM     14  C   UNL     1      -2.328  -1.418  -2.231  0.00  0.00    +0.110 A 
ATOM     15  N   UNL     1      -3.008  -0.784  -3.210  0.00  0.00    -0.284 N 
ATOM     16  H   UNL     1      -3.343  -1.188  -4.026  0.00  0.00    +0.188 HD
ATOM     17  N   UNL     1      -3.145   0.560  -2.839  0.00  0.00    -0.182 NA
ATOM     18  C   UNL     1      -2.571   0.723  -1.675  0.00  0.00    +0.139 A 
ENDBRANCH  11  13
ENDBRANCH   6  11
TORSDOF 2
