REMARK  Name = ZINC21866062
REMARK  11 active torsions:
REMARK  status: ('A' for Active; 'I' for Inactive)
REMARK    1  A    between atoms: C_1  and  C_2
REMARK    2  A    between atoms: C_2  and  C_3
REMARK    3  A    between atoms: C_3  and  C_4
REMARK    4  A    between atoms: C_4  and  N_5
REMARK    5  A    between atoms: C_9  and  N_32
REMARK    6  A    between atoms: C_12  and  O_30
REMARK    7  A    between atoms: C_18  and  C_19
REMARK    8  A    between atoms: C_18  and  C_20
REMARK    9  A    between atoms: N_22  and  C_23
REMARK   10  A    between atoms: O_30  and  C_31
REMARK   11  A    between atoms: C_33  and  C_35
REMARK                            x       y       z     vdW  Elec       q    Type
REMARK                         _______ _______ _______ _____ _____    ______ ____
ROOT
ATOM      1  N   UNL     1      -5.391   3.159   0.767  0.00  0.00    -0.281 N 
ATOM      2  C   UNL     1      -4.087   3.009   0.436  0.00  0.00    +0.266 C 
ATOM      3  O   UNL     1      -3.318   3.953   0.420  0.00  0.00    -0.268 OA
ATOM      4  C   UNL     1      -3.648   1.651   0.098  0.00  0.00    +0.127 A 
ATOM      5  C   UNL     1      -2.385   1.159  -0.085  0.00  0.00    +0.072 A 
ATOM      6  C   UNL     1      -2.538  -0.251  -0.416  0.00  0.00    +0.025 A 
ATOM      7  C   UNL     1      -1.597  -1.246  -0.706  0.00  0.00    +0.057 A 
ATOM      8  C   UNL     1      -2.091  -2.512  -0.979  0.00  0.00    +0.121 A 
ATOM      9  C   UNL     1      -3.455  -2.783  -0.967  0.00  0.00    +0.047 A 
ATOM     10  C   UNL     1      -4.398  -1.815  -0.675  0.00  0.00    +0.030 A 
ATOM     11  C   UNL     1      -3.930  -0.528  -0.403  0.00  0.00    +0.052 A 
ATOM     12  N   UNL     1      -4.584   0.625  -0.106  0.00  0.00    -0.332 N 
ATOM     13  C   UNL     1      -6.027   0.883   0.000  0.00  0.00    +0.157 C 
ATOM     14  C   UNL     1      -6.262   2.013   1.002  0.00  0.00    +0.128 C 
ATOM     15  C   UNL     1      -7.718   2.469   0.900  0.00  0.00    +0.043 C 
ENDROOT
BRANCH   5  16
ATOM     16  N   UNL     1      -1.191   1.867   0.018  0.00  0.00    -0.283 N 
ATOM     17  C   UNL     1      -0.475   1.819   1.159  0.00  0.00    +0.214 C 
ATOM     18  O   UNL     1      -0.917   1.238   2.128  0.00  0.00    -0.276 OA
ATOM     19  C   UNL     1       0.876   2.482   1.230  0.00  0.00    +0.109 C 
ATOM     20  H   UNL     1      -0.831   2.465  -0.832  0.00  0.00    +0.155 HD
ENDBRANCH   5  16
BRANCH  14  21
ATOM     21  C   UNL     1      -6.011   1.490   2.393  0.00  0.00    +0.238 C 
ATOM     22  O   UNL     1      -6.936   1.085   3.064  0.00  0.00    -0.273 OA
ATOM     23  N   UNL     1      -4.759   1.474   2.891  0.00  0.00    -0.311 N 
ATOM     24  H   UNL     1      -3.920   1.841   2.282  0.00  0.00    +0.149 HD
BRANCH  23  25
ATOM     25  C   UNL     1      -4.515   0.966   4.244  0.00  0.00    +0.073 C 
ATOM     26  C   UNL     1      -4.787   2.095   5.258  0.00  0.00    +0.022 C 
ATOM     27  C   UNL     1      -5.041   1.476   6.606  0.00  0.00    +0.002 C 
ATOM     28  C   UNL     1      -3.765   1.400   7.468  0.00  0.00    +0.000 C 
ATOM     29  C   UNL     1      -2.525   0.967   6.662  0.00  0.00    +0.000 C 
ATOM     30  C   UNL     1      -2.826  -0.148   5.697  0.00  0.00    +0.002 C 
ATOM     31  C   UNL     1      -3.149   0.469   4.321  0.00  0.00    +0.022 C 
ENDBRANCH  23  25
ENDBRANCH  14  21
BRANCH   8  32
ATOM     32  O   UNL     1      -1.219  -3.515  -1.267  0.00  0.00    -0.495 OA
ATOM     33  C   UNL     1      -1.778  -4.801  -1.542  0.00  0.00    +0.277 C 
ENDBRANCH   8  32
BRANCH   1  34
ATOM     34  C   UNL     1      -5.943   4.510   0.892  0.00  0.00    +0.109 C 
BRANCH  34  35
ATOM     35  C   UNL     1      -5.779   4.996   2.333  0.00  0.00    +0.019 C 
BRANCH  35  37
ATOM     36  C   UNL     1      -6.192   6.894   3.905  0.00  0.00    +0.004 C 
ATOM     37  C   UNL     1      -6.356   6.407   2.464  0.00  0.00    -0.002 C 
ENDBRANCH  35  37
ENDBRANCH  34  35
ENDBRANCH   1  34
TORSDOF 7
