REMARK  Name = ZINC54827982
REMARK  4 active torsions:
REMARK  status: ('A' for Active; 'I' for Inactive)
REMARK    1  A    between atoms: C_3  and  N_13
REMARK    2  A    between atoms: C_4  and  N_8
REMARK    3  A    between atoms: N_13  and  S_14
REMARK    4  A    between atoms: S_14  and  C_17
REMARK                            x       y       z     vdW  Elec       q    Type
REMARK                         _______ _______ _______ _____ _____    ______ ____
ROOT
ATOM      1  C   UNL     1      -0.017   1.378   0.010  0.00  0.00    +0.003 A 
ATOM      2  C   UNL     1       1.161   2.081  -0.163  0.00  0.00    +0.029 A 
ATOM      3  C   UNL     1       2.374   1.408  -0.179  0.00  0.00    +0.101 A 
ATOM      4  C   UNL     1       2.401   0.023  -0.021  0.00  0.00    +0.108 A 
ATOM      5  C   UNL     1       1.214  -0.674   0.152  0.00  0.00    +0.068 A 
ATOM      6  C   UNL     1       0.009   0.005   0.167  0.00  0.00    +0.022 A 
ATOM      7 CL   UNL     1       1.242  -2.399   0.349  0.00  0.00    -0.081 Cl
ENDROOT
BRANCH   4   8
ATOM      8  N   UNL     1       3.625  -0.664  -0.038  0.00  0.00    -0.237 N 
ATOM      9  C   UNL     1       4.734  -0.330   0.660  0.00  0.00    +0.114 A 
ATOM     10  C   UNL     1       5.692  -1.241   0.370  0.00  0.00    +0.041 A 
ATOM     11  C   UNL     1       5.153  -2.162  -0.534  0.00  0.00    +0.135 A 
ATOM     12  N   UNL     1       3.912  -1.820  -0.775  0.00  0.00    -0.175 NA
ENDBRANCH   4   8
BRANCH   3  13
ATOM     13  N   UNL     1       3.566   2.117  -0.355  0.00  0.00    -0.096 NA
BRANCH  13  14
ATOM     14  S   UNL     1       3.531   3.762  -0.543  0.00  0.00    +0.093 S 
ATOM     15  O   UNL     1       2.878   4.015  -1.779  0.00  0.00    -0.148 OA
ATOM     16  O   UNL     1       3.070   4.302   0.688  0.00  0.00    -0.148 OA
BRANCH  14  17
ATOM     17  C   UNL     1       5.198   4.300  -0.736  0.00  0.00    +0.128 A 
ATOM     18  C   UNL     1       5.957   4.646   0.373  0.00  0.00    +0.033 A 
ATOM     19  C   UNL     1       7.263   5.063   0.174  0.00  0.00    +0.042 A 
ATOM     20  C   UNL     1       7.764   5.120  -1.115  0.00  0.00    +0.129 A 
ATOM     21  N   UNL     1       7.013   4.783  -2.146  0.00  0.00    -0.242 NA
ATOM     22  C   UNL     1       5.768   4.376  -1.992  0.00  0.00    +0.141 A 
ATOM     23 CL   UNL     1       9.399   5.642  -1.378  0.00  0.00    -0.062 Cl
ENDBRANCH  14  17
ENDBRANCH  13  14
ENDBRANCH   3  13
TORSDOF 4
