REMARK  Name = ZINC40147181
REMARK  3 active torsions:
REMARK  status: ('A' for Active; 'I' for Inactive)
REMARK    1  A    between atoms: C_14  and  C_15
REMARK    2  A    between atoms: N_16  and  N_17
REMARK    3  A    between atoms: C_18  and  C_20
REMARK                            x       y       z     vdW  Elec       q    Type
REMARK                         _______ _______ _______ _____ _____    ______ ____
ROOT
ATOM      1  C   UNL     1       4.965   0.238  -0.046  0.00  0.00    +0.139 C 
ATOM      2  N   UNL     1       6.116  -0.365   0.037  0.00  0.00    -0.187 NA
ENDROOT
BRANCH   1  16
ATOM      3  C   UNL     1       3.826  -4.738  -0.108  0.00  0.00    +0.001 A 
ATOM      4  C   UNL     1       5.007  -3.998  -0.116  0.00  0.00    +0.001 A 
ATOM      5  C   UNL     1       4.998  -2.638  -0.094  0.00  0.00    +0.009 A 
ATOM      6  C   UNL     1       3.771  -1.953  -0.062  0.00  0.00    -0.009 A 
ATOM      7  C   UNL     1       2.528  -2.727  -0.054  0.00  0.00    -0.017 A 
ATOM      8  C   UNL     1       2.608  -4.136  -0.078  0.00  0.00    +0.008 A 
ATOM      9  C   UNL     1       1.294  -2.078  -0.022  0.00  0.00    +0.017 A 
ATOM     10  C   UNL     1       1.240  -0.684   0.002  0.00  0.00    -0.017 A 
ATOM     11  C   UNL     1       0.003  -0.004   0.035  0.00  0.00    +0.008 A 
ATOM     12  C   UNL     1      -0.016   1.353   0.059  0.00  0.00    +0.001 A 
ATOM     13  C   UNL     1       1.161   2.101   0.051  0.00  0.00    +0.001 A 
ATOM     14  C   UNL     1       2.383   1.507   0.019  0.00  0.00    +0.009 A 
ATOM     15  C   UNL     1       2.474   0.104  -0.006  0.00  0.00    -0.009 A 
ATOM     16  C   UNL     1       3.726  -0.543  -0.038  0.00  0.00    +0.010 A 
ENDBRANCH   1  16
BRANCH   2  17
ATOM     17  N   UNL     1       7.301   0.383   0.030  0.00  0.00    -0.203 N 
ATOM     18  C   UNL     1       8.492  -0.242   0.116  0.00  0.00    +0.264 C 
ATOM     19  O   UNL     1       8.538  -1.455   0.200  0.00  0.00    -0.268 OA
ATOM     20  H   UNL     1       7.264   1.350  -0.038  0.00  0.00    +0.178 HD
BRANCH  18  21
ATOM     21  C   UNL     1       9.737   0.543   0.108  0.00  0.00    +0.049 A 
ATOM     22  C   UNL     1       9.714   1.916   0.019  0.00  0.00    +0.058 A 
ATOM     23  S   UNL     1      11.334   2.358   0.045  0.00  0.00    -0.101 S 
ATOM     24  C   UNL     1      12.078   0.758   0.174  0.00  0.00    -0.006 A 
ATOM     25  C   UNL     1      11.033  -0.100   0.199  0.00  0.00    -0.025 A 
ATOM     26  C   UNL     1      11.247  -1.603   0.308  0.00  0.00    +0.037 C 
ATOM     27  C   UNL     1      12.696  -1.920  -0.070  0.00  0.00    +0.005 C 
ATOM     28  C   UNL     1      13.652  -1.043   0.745  0.00  0.00    +0.005 C 
ATOM     29  C   UNL     1      13.531   0.408   0.247  0.00  0.00    +0.043 C 
ENDBRANCH  18  21
ENDBRANCH   2  17
TORSDOF 3
