REMARK  Name = ZINC39360187
REMARK  11 active torsions:
REMARK  status: ('A' for Active; 'I' for Inactive)
REMARK    1  A    between atoms: C_1  and  C_2
REMARK    2  A    between atoms: C_2  and  C_3
REMARK    3  A    between atoms: C_3  and  C_4
REMARK    4  A    between atoms: C_4  and  C_18
REMARK    5  A    between atoms: N_7  and  C_11
REMARK    6  A    between atoms: C_11  and  C_12
REMARK    7  A    between atoms: N_21  and  C_24
REMARK    8  A    between atoms: C_24  and  C_25
REMARK    9  A    between atoms: C_30  and  C_31
REMARK   10  A    between atoms: C_34  and  O_37
REMARK   11  A    between atoms: O_37  and  C_38
REMARK                            x       y       z     vdW  Elec       q    Type
REMARK                         _______ _______ _______ _____ _____    ______ ____
ROOT
ATOM      1  C   UNL     1       1.770  -2.234  -2.631  0.00  0.00    +0.018 C 
ATOM      2  C   UNL     1       1.115  -1.735  -3.922  0.00  0.00    -0.013 C 
ATOM      3  C   UNL     1       1.758  -2.439  -5.119  0.00  0.00    -0.078 C 
ATOM      4  N   UNL     1       1.565  -3.889  -5.000  0.00  0.00    +0.380 N 
ATOM      5  C   UNL     1       2.252  -4.386  -3.802  0.00  0.00    -0.078 C 
ATOM      6  C   UNL     1       1.629  -3.757  -2.554  0.00  0.00    -0.013 C 
ATOM      7  H   UNL     1       0.579  -4.092  -4.929  0.00  0.00    -0.082 HD
ENDROOT
BRANCH   1   8
ATOM      8  C   UNL     1       1.079  -1.594  -1.426  0.00  0.00    +0.115 C 
ATOM      9  C   UNL     1      -0.343  -2.100  -1.292  0.00  0.00    +0.247 C 
ATOM     10  O   UNL     1      -1.244  -1.976  -2.095  0.00  0.00    -0.273 OA
ATOM     11  N   UNL     1      -0.399  -2.718  -0.096  0.00  0.00    -0.222 N 
ATOM     12  C   UNL     1       0.778  -2.673   0.539  0.00  0.00    +0.309 C 
ATOM     13  O   UNL     1       0.975  -3.162   1.634  0.00  0.00    -0.252 OA
ATOM     14  N   UNL     1       1.720  -2.026  -0.172  0.00  0.00    -0.285 N 
ATOM     15  H   UNL     1       2.641  -1.874   0.091  0.00  0.00    +0.151 HD
BRANCH   8  16
ATOM     16  C   UNL     1       1.099  -0.069  -1.543  0.00  0.00    +0.035 C 
BRANCH  16  18
ATOM     17  C   UNL     1       0.486   2.072  -0.411  0.00  0.00    +0.004 C 
ATOM     18  C   UNL     1       0.467   0.547  -0.294  0.00  0.00    -0.001 C 
ENDBRANCH  16  18
ENDBRANCH   8  16
BRANCH  11  19
ATOM     19  C   UNL     1      -1.601  -3.359   0.445  0.00  0.00    +0.149 C 
BRANCH  19  20
ATOM     20  C   UNL     1      -1.637  -4.825   0.009  0.00  0.00    +0.136 C 
ATOM     21  C   UNL     1      -2.919  -5.513   0.541  0.00  0.00    +0.035 C 
ATOM     22  C   UNL     1      -3.082  -6.667  -0.485  0.00  0.00    +0.031 C 
ATOM     23  C   UNL     1      -2.562  -6.023  -1.788  0.00  0.00    +0.160 C 
ATOM     24  O   UNL     1      -1.725  -4.918  -1.422  0.00  0.00    -0.375 OA
ENDBRANCH  19  20
ENDBRANCH  11  19
ENDBRANCH   1   8
BRANCH   4  25
ATOM     25  C   UNL     1       2.115  -4.554  -6.189  0.00  0.00    -0.063 C 
BRANCH  25  26
ATOM     26  C   UNL     1       1.293  -4.162  -7.418  0.00  0.00    +0.066 C 
ATOM     27  C   UNL     1      -0.090  -4.779  -7.356  0.00  0.00    +0.115 C 
ATOM     28  N   UNL     1      -0.185  -5.553  -8.387  0.00  0.00    -0.161 NA
ATOM     29  N   UNL     1       0.969  -5.551  -9.163  0.00  0.00    -0.153 NA
ATOM     30  C   UNL     1       1.893  -4.762  -8.675  0.00  0.00    +0.077 C 
BRANCH  30  31
ATOM     31  C   UNL     1       3.231  -4.509  -9.227  0.00  0.00    -0.001 A 
ATOM     32  C   UNL     1       4.107  -3.635  -8.573  0.00  0.00    +0.013 A 
ATOM     33  C   UNL     1       5.360  -3.402  -9.094  0.00  0.00    +0.046 A 
ATOM     34  C   UNL     1       5.756  -4.034 -10.268  0.00  0.00    +0.120 A 
ATOM     35  C   UNL     1       4.890  -4.903 -10.921  0.00  0.00    +0.046 A 
ATOM     36  C   UNL     1       3.637  -5.146 -10.405  0.00  0.00    +0.013 A 
BRANCH  34  37
ATOM     37  O   UNL     1       6.992  -3.800 -10.777  0.00  0.00    -0.495 OA
ATOM     38  C   UNL     1       7.335  -4.482 -11.986  0.00  0.00    +0.277 C 
ENDBRANCH  34  37
ENDBRANCH  30  31
ENDBRANCH  25  26
ENDBRANCH   4  25
TORSDOF 9
