REMARK  Name = ZINC36065851
REMARK  14 active torsions:
REMARK  status: ('A' for Active; 'I' for Inactive)
REMARK    1  A    between atoms: C_1  and  C_2
REMARK    2  A    between atoms: C_2  and  C_3
REMARK    3  A    between atoms: C_3  and  C_5
REMARK    4  A    between atoms: C_3  and  N_6
REMARK    5  A    between atoms: C_7  and  C_9
REMARK    6  A    between atoms: C_12  and  C_14
REMARK    7  A    between atoms: C_14  and  N_15
REMARK    8  A    between atoms: N_15  and  C_16
REMARK    9  A    between atoms: N_15  and  C_26
REMARK   10  A    between atoms: C_16  and  C_17
REMARK   11  A    between atoms: C_20  and  C_23
REMARK   12  A    between atoms: C_23  and  C_24
REMARK   13  A    between atoms: C_23  and  C_25
REMARK   14  A    between atoms: C_26  and  C_27
REMARK                            x       y       z     vdW  Elec       q    Type
REMARK                         _______ _______ _______ _____ _____    ______ ____
ROOT
ATOM      1  N   UNL     1      -3.945  -0.479   6.862  0.00  0.00    +0.391 N 
ATOM      2  H   UNL     1      -3.885  -1.259   6.225  0.00  0.00    -0.080 HD
ENDROOT
BRANCH   1   3
ATOM      3  C   UNL     1      -3.142   0.637   6.345  0.00  0.00    +0.020 C 
BRANCH   3   7
ATOM      4  C   UNL     1       0.028  -0.639   5.143  0.00  0.00    +0.163 A 
ATOM      5  C   UNL     1       0.370  -0.294   6.414  0.00  0.00    +0.230 A 
ATOM      6  O   UNL     1      -0.733   0.206   6.994  0.00  0.00    -0.449 OA
ATOM      7  C   UNL     1      -1.730   0.169   6.099  0.00  0.00    +0.179 A 
ATOM      8  N   UNL     1      -1.287  -0.330   4.984  0.00  0.00    -0.210 NA
BRANCH   4  10
ATOM      9  N   UNL     1       0.442  -1.517   2.899  0.00  0.00    -0.307 N 
ATOM     10  C   UNL     1       0.918  -1.230   4.126  0.00  0.00    +0.266 C 
ATOM     11  O   UNL     1       2.081  -1.460   4.396  0.00  0.00    -0.268 OA
ATOM     12  H   UNL     1      -0.486  -1.334   2.683  0.00  0.00    +0.149 HD
BRANCH   9  13
ATOM     13  C   UNL     1       1.326  -2.105   1.889  0.00  0.00    +0.070 C 
ATOM     14  C   UNL     1       1.365  -3.624   2.068  0.00  0.00    +0.028 C 
BRANCH  13  16
ATOM     15  C   UNL     1       0.876  -0.258   0.268  0.00  0.00    +0.005 C 
ATOM     16  C   UNL     1       0.799  -1.769   0.492  0.00  0.00    +0.018 C 
ENDBRANCH  13  16
ENDBRANCH   9  13
ENDBRANCH   4  10
ENDBRANCH   3   7
ENDBRANCH   1   3
BRANCH   1  17
ATOM     17  C   UNL     1      -5.346  -0.057   6.989  0.00  0.00    -0.042 C 
BRANCH  17  18
ATOM     18  C   UNL     1      -5.912   0.225   5.621  0.00  0.00    -0.064 A 
ATOM     19  C   UNL     1      -5.922   1.518   5.130  0.00  0.00    +0.002 A 
ATOM     20  C   UNL     1      -6.441   1.776   3.875  0.00  0.00    +0.004 A 
ATOM     21  C   UNL     1      -6.949   0.743   3.111  0.00  0.00    -0.045 A 
ATOM     22  C   UNL     1      -6.938  -0.550   3.602  0.00  0.00    +0.004 A 
ATOM     23  C   UNL     1      -6.415  -0.809   4.855  0.00  0.00    +0.002 A 
BRANCH  21  24
ATOM     24  C   UNL     1      -7.516   1.024   1.744  0.00  0.00    +0.013 C 
ATOM     25  C   UNL     1      -6.672   0.312   0.685  0.00  0.00    +0.012 C 
ATOM     26  C   UNL     1      -8.957   0.516   1.674  0.00  0.00    +0.012 C 
ENDBRANCH  21  24
ENDBRANCH  17  18
ENDBRANCH   1  17
BRANCH   1  27
ATOM     27  C   UNL     1      -3.433  -0.881   8.179  0.00  0.00    -0.042 C 
BRANCH  27  28
ATOM     28  C   UNL     1      -4.175  -2.105   8.653  0.00  0.00    -0.060 A 
ATOM     29  C   UNL     1      -5.263  -1.968   9.495  0.00  0.00    +0.005 A 
ATOM     30  C   UNL     1      -5.946  -3.087   9.933  0.00  0.00    +0.050 A 
ATOM     31  C   UNL     1      -5.542  -4.349   9.528  0.00  0.00    +0.166 A 
ATOM     32  C   UNL     1      -4.446  -4.487   8.680  0.00  0.00    +0.166 A 
ATOM     33  C   UNL     1      -3.769  -3.360   8.241  0.00  0.00    +0.051 A 
ATOM     34  O   UNL     1      -4.251  -5.814   8.431  0.00  0.00    -0.453 OA
ATOM     35  C   UNL     1      -4.983  -6.510   9.458  0.00  0.00    +0.466 C 
ATOM     36  O   UNL     1      -6.034  -5.591   9.811  0.00  0.00    -0.453 OA
ENDBRANCH  27  28
ENDBRANCH   1  27
TORSDOF 10
