REMARK  Name = ZINC44445513
REMARK  8 active torsions:
REMARK  status: ('A' for Active; 'I' for Inactive)
REMARK    1  A    between atoms: C_1  and  C_2
REMARK    2  A    between atoms: C_2  and  C_3
REMARK    3  A    between atoms: C_3  and  C_4
REMARK    4  A    between atoms: C_7  and  S_10
REMARK    5  A    between atoms: S_10  and  N_13
REMARK    6  A    between atoms: N_13  and  C_14
REMARK    7  A    between atoms: C_14  and  C_15
REMARK    8  A    between atoms: C_21  and  C_26
REMARK                            x       y       z     vdW  Elec       q    Type
REMARK                         _______ _______ _______ _____ _____    ______ ____
ROOT
ATOM      1  N   UNL     1       0.112  -6.982   0.163  0.00  0.00    -0.181 N 
ATOM      2  C   UNL     1       0.815  -7.206   1.340  0.00  0.00    +0.144 A 
ATOM      3  C   UNL     1       0.789  -6.250   2.351  0.00  0.00    -0.009 A 
ATOM      4  C   UNL     1       1.494  -6.486   3.518  0.00  0.00    +0.008 A 
ATOM      5  C   UNL     1       2.203  -7.674   3.635  0.00  0.00    +0.020 A 
ATOM      6  C   UNL     1       2.185  -8.578   2.592  0.00  0.00    +0.113 A 
ATOM      7  N   UNL     1       1.499  -8.329   1.492  0.00  0.00    -0.239 NA
ATOM      8  C   UNL     1       0.005  -4.976   2.177  0.00  0.00    +0.047 C 
ENDROOT
BRANCH   1   9
ATOM      9  S   UNL     1       0.900  -6.413  -1.178  0.00  0.00    +0.076 S 
ATOM     10  O   UNL     1       0.126  -6.806  -2.302  0.00  0.00    -0.150 OA
ATOM     11  O   UNL     1       2.266  -6.775  -1.029  0.00  0.00    -0.150 OA
BRANCH   9  15
ATOM     12  C   UNL     1       0.735  -1.892  -1.011  0.00  0.00    -0.047 A 
ATOM     13  C   UNL     1       1.789  -2.568  -0.423  0.00  0.00    +0.005 A 
ATOM     14  C   UNL     1       1.839  -3.948  -0.474  0.00  0.00    +0.029 A 
ATOM     15  C   UNL     1       0.836  -4.653  -1.112  0.00  0.00    +0.109 A 
ATOM     16  C   UNL     1      -0.218  -3.978  -1.698  0.00  0.00    +0.029 A 
ATOM     17  C   UNL     1      -0.271  -2.598  -1.644  0.00  0.00    +0.005 A 
BRANCH  12  18
ATOM     18  C   UNL     1       0.680  -0.387  -0.955  0.00  0.00    +0.035 C 
BRANCH  18  20
ATOM     19  C   UNL     1      -0.124   1.578   0.361  0.00  0.00    +0.004 C 
ATOM     20  C   UNL     1      -0.069   0.050   0.305  0.00  0.00    +0.001 C 
ENDBRANCH  18  20
ENDBRANCH  12  18
ENDBRANCH   9  15
ENDBRANCH   1   9
BRANCH   1  21
ATOM     21  C   UNL     1      -1.328  -7.250   0.107  0.00  0.00    +0.168 C 
BRANCH  21  22
ATOM     22  C   UNL     1      -1.556  -8.721  -0.128  0.00  0.00    -0.021 A 
ATOM     23  C   UNL     1      -1.573  -9.232  -1.412  0.00  0.00    +0.013 A 
ATOM     24  C   UNL     1      -1.782 -10.560  -1.588  0.00  0.00    +0.045 A 
ATOM     25  S   UNL     1      -1.963 -11.132   0.093  0.00  0.00    -0.105 S 
ATOM     26  C   UNL     1      -1.743  -9.563   0.917  0.00  0.00    +0.050 A 
ENDBRANCH  21  22
ENDBRANCH   1  21
TORSDOF 6
