REMARK  Name = ZINC23528339
REMARK  6 active torsions:
REMARK  status: ('A' for Active; 'I' for Inactive)
REMARK    1  A    between atoms: C_1  and  C_2
REMARK    2  A    between atoms: C_2  and  N_19
REMARK    3  A    between atoms: N_9  and  C_12
REMARK    4  A    between atoms: N_19  and  C_20
REMARK    5  A    between atoms: C_20  and  C_21
REMARK    6  A    between atoms: C_21  and  C_22
REMARK                            x       y       z     vdW  Elec       q    Type
REMARK                         _______ _______ _______ _____ _____    ______ ____
ROOT
ATOM      1  C   UNL     1      -0.007   1.502  -0.060  0.00  0.00    +0.061 C 
ATOM      2  C   UNL     1       0.002  -0.004   0.002  0.00  0.00    +0.018 C 
ATOM      3  C   UNL     1       0.144  -0.645   1.219  0.00  0.00    +0.116 C 
ATOM      4  C   UNL     1       0.313  -2.107   1.303  0.00  0.00    +0.258 C 
ATOM      5  O   UNL     1       0.334  -2.792   0.298  0.00  0.00    -0.270 OA
ATOM      6  N   UNL     1       0.446  -2.664   2.524  0.00  0.00    -0.235 N 
ATOM      7  C   UNL     1       0.425  -1.921   3.639  0.00  0.00    +0.316 C 
ATOM      8  O   UNL     1       0.549  -2.484   4.709  0.00  0.00    -0.252 OA
ATOM      9  N   UNL     1       0.274  -0.589   3.638  0.00  0.00    -0.218 N 
ATOM     10  C   UNL     1       0.137   0.104   2.488  0.00  0.00    +0.261 C 
ATOM     11  O   UNL     1       0.007   1.313   2.499  0.00  0.00    -0.269 OA
ATOM     12  H   UNL     1       0.558  -3.625   2.597  0.00  0.00    +0.159 HD
ENDROOT
BRANCH   9  13
ATOM     13  C   UNL     1       0.264   0.132   4.913  0.00  0.00    +0.086 C 
ATOM     14  C   UNL     1       1.632  -0.051   5.601  0.00  0.00    +0.023 C 
ATOM     15  C   UNL     1       1.814   1.055   6.605  0.00  0.00    +0.002 C 
ATOM     16  C   UNL     1       1.368   0.644   8.021  0.00  0.00    +0.000 C 
ATOM     17  C   UNL     1       0.057  -0.165   8.024  0.00  0.00    +0.000 C 
ATOM     18  C   UNL     1      -0.963   0.389   7.066  0.00  0.00    +0.002 C 
ATOM     19  C   UNL     1      -0.837  -0.364   5.726  0.00  0.00    +0.023 C 
ENDBRANCH   9  13
BRANCH   2  20
ATOM     20  N   UNL     1      -0.128  -0.726  -1.129  0.00  0.00    -0.346 N 
ATOM     21  H   UNL     1      -0.207  -1.692  -1.082  0.00  0.00    +0.146 HD
BRANCH  20  22
ATOM     22  C   UNL     1      -0.150  -0.052  -2.430  0.00  0.00    +0.106 C 
BRANCH  22  23
ATOM     23  C   UNL     1      -0.306  -1.092  -3.541  0.00  0.00    +0.056 C 
BRANCH  23  24
ATOM     24  C   UNL     1      -0.329  -0.399  -4.878  0.00  0.00    -0.021 A 
ATOM     25  C   UNL     1      -1.420  -0.019  -5.562  0.00  0.00    +0.087 A 
ATOM     26  N   UNL     1      -1.050   0.580  -6.736  0.00  0.00    -0.360 N 
ATOM     27  H   UNL     1      -1.663   0.937  -7.397  0.00  0.00    +0.165 HD
ATOM     28  C   UNL     1       0.323   0.600  -6.838  0.00  0.00    +0.047 A 
ATOM     29  C   UNL     1       0.835  -0.006  -5.676  0.00  0.00    +0.003 A 
ATOM     30  C   UNL     1       2.215  -0.122  -5.501  0.00  0.00    +0.010 A 
ATOM     31  C   UNL     1       3.063   0.359  -6.459  0.00  0.00    +0.001 A 
ATOM     32  C   UNL     1       2.564   0.962  -7.605  0.00  0.00    +0.002 A 
ATOM     33  C   UNL     1       1.205   1.078  -7.802  0.00  0.00    +0.026 A 
ENDBRANCH  23  24
ENDBRANCH  22  23
ENDBRANCH  20  22
ENDBRANCH   2  20
TORSDOF 5
