REMARK  Name = ZINC42027894
REMARK  4 active torsions:
REMARK  status: ('A' for Active; 'I' for Inactive)
REMARK    1  A    between atoms: C_1  and  C_2
REMARK    2  A    between atoms: C_6  and  C_9
REMARK    3  A    between atoms: C_7  and  N_8
REMARK    4  A    between atoms: N_13  and  C_14
REMARK                            x       y       z     vdW  Elec       q    Type
REMARK                         _______ _______ _______ _____ _____    ______ ____
ROOT
ATOM      1  C   UNL     1       0.079  -2.864   2.454  0.00  0.00    +0.189 A 
ATOM      2  N   UNL     1       0.152  -2.357   3.668  0.00  0.00    -0.108 NA
ATOM      3  N   UNL     1       0.108  -3.290   4.549  0.00  0.00    -0.022 NA
ATOM      4  N   UNL     1       0.005  -4.443   3.983  0.00  0.00    -0.039 NA
ATOM      5  N   UNL     1      -0.025  -4.217   2.596  0.00  0.00    -0.192 N 
ENDROOT
BRANCH   5   6
ATOM      6  C   UNL     1      -0.135  -5.175   1.577  0.00  0.00    +0.084 A 
ATOM      7  C   UNL     1       0.741  -5.147   0.500  0.00  0.00    +0.032 A 
ATOM      8  C   UNL     1       0.631  -6.092  -0.501  0.00  0.00    +0.040 A 
ATOM      9  C   UNL     1      -0.351  -7.066  -0.432  0.00  0.00    +0.125 A 
ATOM     10  C   UNL     1      -1.226  -7.095   0.640  0.00  0.00    +0.055 A 
ATOM     11  C   UNL     1      -1.116  -6.155   1.648  0.00  0.00    +0.046 A 
ATOM     12 BR   UNL     1      -2.306  -6.200   3.117  0.00  0.00    -0.048 Br
ATOM     13  F   UNL     1      -0.457  -7.988  -1.414  0.00  0.00    -0.205 F 
ENDBRANCH   5   6
BRANCH   1  19
ATOM     14  C   UNL     1       2.128   0.630  -0.483  0.00  0.00    +0.045 C 
ATOM     15  C   UNL     1       1.082  -0.426  -0.237  0.00  0.00    -0.029 A 
ATOM     16  C   UNL     1       0.132  -0.696  -1.203  0.00  0.00    +0.005 A 
ATOM     17  C   UNL     1      -0.832  -1.664  -0.986  0.00  0.00    +0.001 A 
ATOM     18  C   UNL     1      -0.855  -2.371   0.199  0.00  0.00    +0.013 A 
ATOM     19  C   UNL     1       0.098  -2.110   1.183  0.00  0.00    +0.042 A 
ATOM     20  C   UNL     1       1.077  -1.132   0.958  0.00  0.00    +0.038 A 
BRANCH  20  21
ATOM     21  N   UNL     1       2.038  -0.867   1.931  0.00  0.00    -0.357 N 
ATOM     22  H   UNL     1       2.712  -0.187   1.775  0.00  0.00    +0.142 HD
ATOM     23  H   UNL     1       2.032  -1.361   2.766  0.00  0.00    +0.142 HD
ENDBRANCH  20  21
ENDBRANCH   1  19
TORSDOF 3
