REMARK  Name = ZINC25265627
REMARK  3 active torsions:
REMARK  status: ('A' for Active; 'I' for Inactive)
REMARK    1  A    between atoms: C_3  and  C_31
REMARK    2  A    between atoms: C_4  and  N_25
REMARK    3  A    between atoms: C_10  and  N_11
REMARK                            x       y       z     vdW  Elec       q    Type
REMARK                         _______ _______ _______ _____ _____    ______ ____
ROOT
ATOM      1  C   UNL     1       1.387  -2.526   2.261  0.00  0.00    +0.051 A 
ATOM      2  C   UNL     1       1.253  -3.909   2.379  0.00  0.00    +0.013 A 
ATOM      3  C   UNL     1       1.877  -4.703   3.436  0.00  0.00    +0.100 A 
ATOM      4  C   UNL     1       1.658  -6.091   3.420  0.00  0.00    +0.142 A 
ATOM      5  N   UNL     1       0.911  -6.665   2.483  0.00  0.00    -0.215 NA
ATOM      6  C   UNL     1       0.326  -5.995   1.511  0.00  0.00    +0.133 A 
ATOM      7  C   UNL     1       0.473  -4.595   1.417  0.00  0.00    +0.061 A 
ATOM      8  C   UNL     1      -0.141  -3.863   0.381  0.00  0.00    +0.110 A 
ATOM      9  N   UNL     1       0.017  -2.557   0.320  0.00  0.00    -0.331 N 
ATOM     10  C   UNL     1       0.744  -1.886   1.214  0.00  0.00    +0.101 A 
ATOM     11  N   UNL     1      -0.902  -4.557  -0.548  0.00  0.00    -0.309 N 
ATOM     12  C   UNL     1      -0.605  -5.984  -0.754  0.00  0.00    +0.099 C 
ATOM     13  N   UNL     1      -0.450  -6.632   0.557  0.00  0.00    -0.308 N 
ATOM     14  C   UNL     1      -1.756  -6.638  -1.516  0.00  0.00    +0.045 C 
ATOM     15  C   UNL     1      -1.447  -8.121  -1.735  0.00  0.00    +0.004 C 
ATOM     16  C   UNL     1      -0.153  -8.258  -2.539  0.00  0.00    +0.000 C 
ATOM     17  C   UNL     1       0.998  -7.609  -1.769  0.00  0.00    +0.004 C 
ATOM     18  C   UNL     1       0.691  -6.126  -1.550  0.00  0.00    +0.045 C 
ATOM     19  H   UNL     1      -1.706  -4.074  -1.123  0.00  0.00    +0.149 HD
ATOM     20  H   UNL     1      -0.944  -7.595   0.756  0.00  0.00    +0.150 HD
ATOM     21  H   UNL     1      -0.459  -1.982  -0.489  0.00  0.00    +0.168 HD
ENDROOT
BRANCH  10  22
ATOM     22  N   UNL     1       0.865  -0.509   1.088  0.00  0.00    -0.317 N 
ATOM     23  C   UNL     1       0.121  -0.019  -0.080  0.00  0.00    +0.106 C 
ATOM     24  C   UNL     1       0.155   1.510  -0.104  0.00  0.00    +0.019 C 
ATOM     25  C   UNL     1       1.611   1.983  -0.167  0.00  0.00    +0.003 C 
ATOM     26  C   UNL     1       2.374   1.420   1.035  0.00  0.00    +0.019 C 
ATOM     27  C   UNL     1       2.276  -0.107   1.026  0.00  0.00    +0.106 C 
ENDBRANCH  10  22
BRANCH   4  28
ATOM     28  N   UNL     1       2.232  -6.876   4.401  0.00  0.00    -0.314 N 
ATOM     29  C   UNL     1       3.170  -7.844   3.818  0.00  0.00    +0.106 C 
ATOM     30  C   UNL     1       3.893  -8.595   4.939  0.00  0.00    +0.019 C 
ATOM     31  C   UNL     1       2.862  -9.316   5.811  0.00  0.00    +0.003 C 
ATOM     32  C   UNL     1       1.869  -8.292   6.367  0.00  0.00    +0.019 C 
ATOM     33  C   UNL     1       1.205  -7.550   5.205  0.00  0.00    +0.106 C 
ENDBRANCH   4  28
BRANCH   3  34
ATOM     34  C   UNL     1       2.682  -4.090   4.450  0.00  0.00    +0.103 C 
ATOM     35  N   UNL     1       3.320  -3.603   5.253  0.00  0.00    -0.191 NA
ENDBRANCH   3  34
TORSDOF 3
