REMARK  Name = ZINC00106848
REMARK  4 active torsions:
REMARK  status: ('A' for Active; 'I' for Inactive)
REMARK    1  A    between atoms: C_1  and  C_2
REMARK    2  A    between atoms: C_2  and  C_3
REMARK    3  A    between atoms: C_3  and  C_4
REMARK    4  A    between atoms: N_16  and  C_17
REMARK                            x       y       z     vdW  Elec       q    Type
REMARK                         _______ _______ _______ _____ _____    ______ ____
ROOT
ATOM      1  C   UNL     1       1.339  -0.755  -0.001  0.00  0.00    +0.108 C 
ATOM      2  C   UNL     1       0.009  -0.003   0.018  0.00  0.00    -0.017 A 
ATOM      3  C   UNL     1      -1.230  -0.641   0.020  0.00  0.00    +0.013 A 
ATOM      4  C   UNL     1      -2.368   0.090   0.042  0.00  0.00    +0.046 A 
ATOM      5  S   UNL     1      -1.732   1.760   0.053  0.00  0.00    -0.101 S 
ATOM      6  C   UNL     1      -0.004   1.358   0.034  0.00  0.00    -0.004 A 
ATOM      7  C   UNL     1       1.165   2.288   0.030  0.00  0.00    +0.062 C 
ATOM      8  C   UNL     1       2.426   1.497   0.408  0.00  0.00    +0.115 C 
ATOM      9  N   UNL     1       2.399   0.214  -0.310  0.00  0.00    -0.278 N 
ATOM     10  C   UNL     1       3.333  -0.070  -1.239  0.00  0.00    +0.307 C 
ATOM     11  O   UNL     1       4.149   0.774  -1.557  0.00  0.00    -0.252 OA
ATOM     12  N   UNL     1       3.364  -1.288  -1.815  0.00  0.00    -0.269 N 
ATOM     13  H   UNL     1       2.668  -1.934  -1.619  0.00  0.00    +0.156 HD
ENDROOT
BRANCH  12  14
ATOM     14  C   UNL     1       4.400  -1.620  -2.695  0.00  0.00    +0.035 A 
ATOM     15  C   UNL     1       4.151  -2.446  -3.783  0.00  0.00    +0.025 A 
ATOM     16  C   UNL     1       5.174  -2.769  -4.653  0.00  0.00    +0.022 A 
ATOM     17  C   UNL     1       6.449  -2.277  -4.436  0.00  0.00    +0.041 A 
ATOM     18  C   UNL     1       6.702  -1.458  -3.349  0.00  0.00    +0.022 A 
ATOM     19  C   UNL     1       5.681  -1.128  -2.479  0.00  0.00    +0.025 A 
ATOM     20 CL   UNL     1       7.734  -2.690  -5.527  0.00  0.00    -0.084 Cl
ENDBRANCH  12  14
BRANCH   1  21
ATOM     21  C   UNL     1       1.596  -1.385   1.370  0.00  0.00    +0.027 C 
BRANCH  21  23
ATOM     22  C   UNL     1       3.122  -2.869   2.679  0.00  0.00    +0.004 C 
ATOM     23  C   UNL     1       2.864  -2.239   1.308  0.00  0.00    -0.001 C 
ENDBRANCH  21  23
ENDBRANCH   1  21
TORSDOF 3
