REMARK  Name = ZINC12312716
REMARK  13 active torsions:
REMARK  status: ('A' for Active; 'I' for Inactive)
REMARK    1  A    between atoms: C_1  and  C_2
REMARK    2  A    between atoms: C_2  and  O_3
REMARK    3  A    between atoms: O_3  and  C_4
REMARK    4  A    between atoms: C_4  and  C_6
REMARK    5  A    between atoms: C_6  and  C_7
REMARK    6  A    between atoms: C_13  and  C_15
REMARK    7  A    between atoms: C_15  and  S_16
REMARK    8  A    between atoms: S_16  and  C_17
REMARK    9  A    between atoms: N_20  and  C_24
REMARK   10  A    between atoms: C_24  and  C_25
REMARK   11  A    between atoms: C_25  and  N_61
REMARK   12  A    between atoms: C_26  and  N_61
REMARK   13  A    between atoms: C_27  and  N_61
REMARK                            x       y       z     vdW  Elec       q    Type
REMARK                         _______ _______ _______ _____ _____    ______ ____
ROOT
ATOM      1  S   UNL     1      -1.086   6.061   1.548  0.00  0.00    -0.096 S 
ENDROOT
BRANCH   1   2
ATOM      2  C   UNL     1      -1.173   5.148   0.043  0.00  0.00    +0.108 A 
ATOM      3  C   UNL     1      -0.919   3.755   0.044  0.00  0.00    +0.004 A 
ATOM      4  C   UNL     1      -1.000   3.080  -1.117  0.00  0.00    +0.029 A 
ATOM      5  N   UNL     1      -1.314   3.763  -2.263  0.00  0.00    -0.298 N 
ATOM      6  C   UNL     1      -1.545   5.085  -2.232  0.00  0.00    +0.350 A 
ATOM      7  O   UNL     1      -1.823   5.671  -3.266  0.00  0.00    -0.244 OA
ATOM      8  N   UNL     1      -1.476   5.766  -1.090  0.00  0.00    -0.186 NA
ATOM      9  C   UNL     1      -0.763   1.597  -1.221  0.00  0.00    +0.054 C 
ATOM     10  C   UNL     1      -0.013   1.086   0.008  0.00  0.00    +0.006 C 
ATOM     11  C   UNL     1      -0.742   1.586   1.261  0.00  0.00    +0.005 C 
ATOM     12  C   UNL     1      -0.560   3.100   1.350  0.00  0.00    +0.039 C 
BRANCH   5  13
ATOM     13  C   UNL     1      -1.397   3.042  -3.535  0.00  0.00    +0.108 C 
BRANCH  13  14
ATOM     14  C   UNL     1      -2.826   2.540  -3.745  0.00  0.00    -0.058 C 
BRANCH  14  17
ATOM     15  C   UNL     1      -2.109   0.586  -4.982  0.00  0.00    -0.097 C 
ATOM     16  C   UNL     1      -4.306   1.526  -5.371  0.00  0.00    -0.097 C 
ATOM     17  N   UNL     1      -2.899   1.834  -5.042  0.00  0.00    +0.377 N 
ATOM     18  H   UNL     1      -2.510   2.441  -5.774  0.00  0.00    -0.083 HD
ENDBRANCH  14  17
ENDBRANCH  13  14
ENDBRANCH   5  13
ENDBRANCH   1   2
BRANCH   1  19
ATOM     19  C   UNL     1      -1.490   7.716   0.936  0.00  0.00    +0.172 C 
BRANCH  19  26
ATOM     20  C   UNL     1      -1.919  12.909   4.013  0.00  0.00    +0.061 A 
ATOM     21  C   UNL     1      -1.608  12.282   5.174  0.00  0.00    +0.072 A 
ATOM     22  S   UNL     1      -1.399  10.603   4.599  0.00  0.00    -0.060 S 
ATOM     23  C   UNL     1      -1.735  10.896   2.921  0.00  0.00    +0.165 A 
ATOM     24  N   UNL     1      -1.968  12.194   2.906  0.00  0.00    -0.229 NA
ATOM     25  N   UNL     1      -1.749   9.994   1.863  0.00  0.00    -0.264 N 
ATOM     26  C   UNL     1      -1.475   8.693   2.083  0.00  0.00    +0.229 C 
ATOM     27  O   UNL     1      -1.217   8.309   3.203  0.00  0.00    -0.275 OA
ATOM     28  H   UNL     1      -1.956  10.302   0.966  0.00  0.00    +0.157 HD
BRANCH  20  29
ATOM     29  C   UNL     1      -2.193  14.391   3.986  0.00  0.00    +0.176 C 
BRANCH  29  30
ATOM     30  C   UNL     1      -1.284  15.052   2.983  0.00  0.00    +0.313 C 
ATOM     31  O   UNL     1      -0.494  14.389   2.354  0.00  0.00    -0.250 OA
BRANCH  30  32
ATOM     32  O   UNL     1      -1.352  16.379   2.788  0.00  0.00    -0.465 OA
BRANCH  32  34
ATOM     33  C   UNL     1      -0.668  18.459   1.723  0.00  0.00    +0.048 C 
ATOM     34  C   UNL     1      -0.446  16.948   1.806  0.00  0.00    +0.229 C 
ENDBRANCH  32  34
ENDBRANCH  30  32
ENDBRANCH  29  30
ENDBRANCH  20  29
ENDBRANCH  19  26
ENDBRANCH   1  19
TORSDOF 10
