REMARK  Name = ZINC20567588
REMARK  3 active torsions:
REMARK  status: ('A' for Active; 'I' for Inactive)
REMARK    1  A    between atoms: C_1  and  C_2
REMARK    2  A    between atoms: C_6  and  N_8
REMARK    3  A    between atoms: N_18  and  C_21
REMARK                            x       y       z     vdW  Elec       q    Type
REMARK                         _______ _______ _______ _____ _____    ______ ____
ROOT
ATOM      1  N   UNL     1      -1.239   2.005   0.031  0.00  0.00    -0.277 N 
ATOM      2  C   UNL     1      -0.068   1.446   0.502  0.00  0.00    +0.116 A 
ATOM      3  C   UNL     1       1.072   2.191   0.489  0.00  0.00    +0.069 A 
ATOM      4  C   UNL     1       1.025   3.510   0.002  0.00  0.00    +0.258 A 
ATOM      5  O   UNL     1       2.035   4.192  -0.015  0.00  0.00    -0.267 OA
ATOM      6  N   UNL     1      -0.140   4.016  -0.447  0.00  0.00    -0.302 N 
ATOM      7  H   UNL     1      -0.182   5.048  -0.826  0.00  0.00    +0.171 HD
ATOM      8  C   UNL     1      -1.257   3.266  -0.435  0.00  0.00    +0.166 A 
ATOM      9  S   UNL     1      -2.724   3.929  -1.017  0.00  0.00    -0.012 S 
ATOM     10  C   UNL     1       2.385   1.641   0.981  0.00  0.00    +0.130 C 
ATOM     11  N   UNL     1       2.142   0.413   1.752  0.00  0.00    -0.280 NA
ATOM     12  C   UNL     1       1.224  -0.464   1.006  0.00  0.00    +0.191 C 
ATOM     13  N   UNL     1      -0.102   0.161   0.970  0.00  0.00    -0.317 N 
ATOM     14  H   UNL     1      -0.985  -0.405   1.300  0.00  0.00    +0.149 HD
ENDROOT
BRANCH   1  20
ATOM     15  C   UNL     1      -4.256  -1.140  -2.247  0.00  0.00    +0.044 C 
ATOM     16  C   UNL     1      -3.905  -0.283  -1.058  0.00  0.00    -0.048 A 
ATOM     17  C   UNL     1      -4.748  -0.243   0.038  0.00  0.00    +0.003 A 
ATOM     18  C   UNL     1      -4.429   0.541   1.131  0.00  0.00    +0.002 A 
ATOM     19  C   UNL     1      -3.264   1.284   1.134  0.00  0.00    +0.026 A 
ATOM     20  C   UNL     1      -2.418   1.250   0.033  0.00  0.00    +0.050 A 
ATOM     21  C   UNL     1      -2.742   0.461  -1.063  0.00  0.00    +0.029 A 
ENDBRANCH   1  20
BRANCH  11  22
ATOM     22  C   UNL     1       3.403  -0.279   2.051  0.00  0.00    +0.058 C 
ATOM     23  C   UNL     1       4.065  -0.720   0.744  0.00  0.00    +0.019 C 
ATOM     24  C   UNL     1       5.379  -1.440   1.056  0.00  0.00    +0.002 C 
ATOM     25  C   UNL     1       5.094  -2.668   1.923  0.00  0.00    +0.000 C 
ATOM     26  C   UNL     1       4.432  -2.227   3.230  0.00  0.00    +0.002 C 
ATOM     27  C   UNL     1       3.118  -1.507   2.918  0.00  0.00    +0.019 C 
ENDBRANCH  11  22
TORSDOF 2
