REMARK  Name = ZINC06549909
REMARK  4 active torsions:
REMARK  status: ('A' for Active; 'I' for Inactive)
REMARK    1  A    between atoms: C_1  and  C_2
REMARK    2  A    between atoms: C_8  and  N_10
REMARK    3  A    between atoms: C_11  and  C_13
REMARK    4  A    between atoms: N_21  and  C_22
REMARK                            x       y       z     vdW  Elec       q    Type
REMARK                         _______ _______ _______ _____ _____    ______ ____
ROOT
ATOM      1  C   UNL     1       4.180   0.639   2.378  0.00  0.00    +0.039 A 
ATOM      2  C   UNL     1       4.786   0.992   1.168  0.00  0.00    +0.015 A 
ATOM      3  C   UNL     1       6.077   1.468   1.155  0.00  0.00    +0.029 A 
ATOM      4  C   UNL     1       6.782   1.600   2.345  0.00  0.00    +0.070 A 
ATOM      5  C   UNL     1       6.182   1.249   3.559  0.00  0.00    +0.068 A 
ATOM      6  C   UNL     1       4.883   0.775   3.576  0.00  0.00    +0.041 A 
ATOM      7  N   UNL     1       7.124   1.488   4.557  0.00  0.00    -0.306 N 
ATOM      8  C   UNL     1       8.243   1.962   3.977  0.00  0.00    +0.328 A 
ATOM      9  N   UNL     1       8.065   2.040   2.645  0.00  0.00    -0.289 N 
ATOM     10  O   UNL     1       9.260   2.274   4.568  0.00  0.00    -0.247 OA
ATOM     11  H   UNL     1       6.996   1.340   5.507  0.00  0.00    +0.170 HD
ENDROOT
BRANCH   9  12
ATOM     12  C   UNL     1       9.058   2.509   1.675  0.00  0.00    +0.092 C 
ATOM     13  C   UNL     1      10.345   1.666   1.788  0.00  0.00    +0.025 C 
ATOM     14  C   UNL     1      11.488   2.686   1.554  0.00  0.00    +0.002 C 
ATOM     15  C   UNL     1      10.970   3.952   2.279  0.00  0.00    +0.002 C 
ATOM     16  C   UNL     1       9.455   3.962   1.988  0.00  0.00    +0.025 C 
ENDBRANCH   9  12
BRANCH   1  18
ATOM     17  N   UNL     1       2.116  -0.004   1.231  0.00  0.00    -0.308 N 
ATOM     18  C   UNL     1       2.795   0.128   2.388  0.00  0.00    +0.244 C 
ATOM     19  O   UNL     1       2.266  -0.174   3.441  0.00  0.00    -0.270 OA
ATOM     20  H   UNL     1       2.538   0.237   0.392  0.00  0.00    +0.149 HD
BRANCH  17  27
ATOM     21  C   UNL     1      -0.019   1.526   0.010  0.00  0.00    +0.009 C 
ATOM     22  C   UNL     1       0.002  -0.004   0.002  0.00  0.00    +0.006 C 
ATOM     23  C   UNL     1      -1.433  -0.534   0.013  0.00  0.00    +0.005 C 
ATOM     24  C   UNL     1      -1.413  -2.063   0.004  0.00  0.00    +0.000 C 
ATOM     25  C   UNL     1      -0.673  -2.570   1.244  0.00  0.00    +0.002 C 
ATOM     26  C   UNL     1       0.763  -2.041   1.233  0.00  0.00    +0.022 C 
ATOM     27  C   UNL     1       0.742  -0.511   1.242  0.00  0.00    +0.076 C 
ENDBRANCH  17  27
ENDBRANCH   1  18
TORSDOF 3
