REMARK  Name = ZINC04688391
REMARK  7 active torsions:
REMARK  status: ('A' for Active; 'I' for Inactive)
REMARK    1  A    between atoms: C_1  and  C_2
REMARK    2  A    between atoms: C_4  and  C_25
REMARK    3  A    between atoms: C_6  and  N_8
REMARK    4  A    between atoms: C_14  and  C_15
REMARK    5  A    between atoms: C_18  and  N_21
REMARK    6  A    between atoms: N_21  and  C_22
REMARK    7  A    between atoms: N_21  and  C_23
REMARK                            x       y       z     vdW  Elec       q    Type
REMARK                         _______ _______ _______ _____ _____    ______ ____
ROOT
ATOM      1  N   UNL     1      -2.252   0.646   0.470  0.00  0.00    -0.226 NA
ATOM      2  C   UNL     1      -3.263   1.104   1.174  0.00  0.00    +0.166 C 
ATOM      3  N   UNL     1      -4.539   0.593   1.272  0.00  0.00    -0.260 N 
ATOM      4  C   UNL     1      -5.445   1.184   2.034  0.00  0.00    +0.256 C 
ATOM      5  O   UNL     1      -6.576   0.747   2.133  0.00  0.00    -0.269 OA
ATOM      6  C   UNL     1      -5.021   2.397   2.758  0.00  0.00    +0.078 C 
ATOM      7  C   UNL     1      -5.734   3.193   3.597  0.00  0.00    +0.028 C 
ATOM      8  S   UNL     1      -3.317   2.535   2.240  0.00  0.00    -0.049 S 
ATOM      9  H   UNL     1      -4.776  -0.208   0.779  0.00  0.00    +0.157 HD
ENDROOT
BRANCH   1  15
ATOM     10  C   UNL     1       0.272   4.838   0.300  0.00  0.00    +0.044 C 
ATOM     11  C   UNL     1       0.217   3.337   0.419  0.00  0.00    -0.048 A 
ATOM     12  C   UNL     1       1.388   2.612   0.552  0.00  0.00    +0.006 A 
ATOM     13  C   UNL     1       1.348   1.233   0.662  0.00  0.00    -0.048 A 
ATOM     14  C   UNL     1       0.138   0.571   0.639  0.00  0.00    +0.031 A 
ATOM     15  C   UNL     1      -1.048   1.296   0.499  0.00  0.00    +0.067 A 
ATOM     16  C   UNL     1      -1.000   2.688   0.395  0.00  0.00    +0.031 A 
ATOM     17  C   UNL     1       2.628   0.452   0.807  0.00  0.00    +0.044 C 
ENDBRANCH   1  15
BRANCH   7  18
ATOM     18  C   UNL     1      -5.061   4.263   4.342  0.00  0.00    -0.024 A 
ATOM     19  C   UNL     1      -3.667   4.249   4.487  0.00  0.00    +0.010 A 
ATOM     20  C   UNL     1      -3.042   5.254   5.179  0.00  0.00    +0.023 A 
ATOM     21  C   UNL     1      -3.791   6.282   5.747  0.00  0.00    +0.029 A 
ATOM     22  C   UNL     1      -5.176   6.297   5.610  0.00  0.00    +0.023 A 
ATOM     23  C   UNL     1      -5.810   5.299   4.914  0.00  0.00    +0.010 A 
BRANCH  21  24
ATOM     24  N   UNL     1      -3.152   7.297   6.454  0.00  0.00    -0.336 N 
ATOM     25  C   UNL     1      -3.938   8.380   7.051  0.00  0.00    +0.129 C 
ATOM     26  C   UNL     1      -1.695   7.283   6.599  0.00  0.00    +0.129 C 
ENDBRANCH  21  24
ENDBRANCH   7  18
TORSDOF 3
