REMARK  Name = ZINC53688650
REMARK  9 active torsions:
REMARK  status: ('A' for Active; 'I' for Inactive)
REMARK    1  A    between atoms: C_1  and  C_2
REMARK    2  A    between atoms: C_5  and  C_29
REMARK    3  A    between atoms: N_8  and  C_10
REMARK    4  A    between atoms: C_10  and  C_11
REMARK    5  A    between atoms: C_10  and  C_12
REMARK    6  A    between atoms: C_10  and  C_13
REMARK    7  A    between atoms: C_13  and  N_14
REMARK    8  A    between atoms: N_14  and  S_15
REMARK    9  A    between atoms: S_15  and  C_18
REMARK                            x       y       z     vdW  Elec       q    Type
REMARK                         _______ _______ _______ _____ _____    ______ ____
ROOT
ATOM      1  N   UNL     1       2.001   1.661   3.436  0.00  0.00    -0.191 NA
ATOM      2  H   UNL     1       2.446   2.074   2.679  0.00  0.00    +0.148 HD
ENDROOT
BRANCH   1   3
ATOM      3  S   UNL     1       1.090   2.584   4.465  0.00  0.00    +0.058 S 
ATOM      4  O   UNL     1       1.177   3.922   3.995  0.00  0.00    -0.153 OA
ATOM      5  O   UNL     1      -0.151   1.911   4.624  0.00  0.00    -0.153 OA
BRANCH   3   6
ATOM      6  C   UNL     1       1.886   2.551   6.037  0.00  0.00    +0.106 A 
ATOM      7  C   UNL     1       1.562   1.566   6.953  0.00  0.00    +0.030 A 
ATOM      8  C   UNL     1       2.184   1.537   8.186  0.00  0.00    +0.025 A 
ATOM      9  C   UNL     1       3.135   2.497   8.505  0.00  0.00    +0.037 A 
ATOM     10  C   UNL     1       3.457   3.484   7.583  0.00  0.00    -0.024 A 
ATOM     11  C   UNL     1       2.836   3.505   6.350  0.00  0.00    +0.034 A 
ATOM     12  C   UNL     1       4.489   4.525   7.929  0.00  0.00    +0.046 C 
ATOM     13  C   UNL     1       4.412   4.845   9.423  0.00  0.00    +0.101 C 
ATOM     14  C   UNL     1       4.395   3.568  10.220  0.00  0.00    +0.218 C 
ATOM     15  O   UNL     1       4.952   3.526  11.296  0.00  0.00    -0.275 OA
ATOM     16  N   UNL     1       3.768   2.473   9.752  0.00  0.00    -0.285 N 
ATOM     17  H   UNL     1       3.755   1.661  10.283  0.00  0.00    +0.155 HD
ENDBRANCH   3   6
ENDBRANCH   1   3
BRANCH   1  18
ATOM     18  C   UNL     1       2.136   0.221   3.668  0.00  0.00    +0.093 C 
BRANCH  18  19
ATOM     19  C   UNL     1       2.657  -0.454   2.398  0.00  0.00    -0.057 C 
ATOM     20  C   UNL     1       2.692  -1.970   2.604  0.00  0.00    -0.009 C 
ATOM     21  C   UNL     1       4.069   0.051   2.095  0.00  0.00    -0.009 C 
BRANCH  19  27
ATOM     22  C   UNL     1      -0.535   1.335   0.298  0.00  0.00    +0.005 C 
ATOM     23  C   UNL     1      -0.536  -0.188   0.445  0.00  0.00    -0.031 C 
ATOM     24  C   UNL     1      -0.060  -0.828  -0.863  0.00  0.00    +0.003 C 
ATOM     25  C   UNL     1       1.386  -0.401  -1.132  0.00  0.00    -0.031 C 
ATOM     26  C   UNL     1       2.260  -0.797   0.059  0.00  0.00    -0.075 C 
ATOM     27  N   UNL     1       1.770  -0.133   1.273  0.00  0.00    +0.384 N 
ATOM     28  C   UNL     1       0.409  -0.593   1.579  0.00  0.00    -0.075 C 
ATOM     29  C   UNL     1       1.897  -1.095  -2.396  0.00  0.00    +0.005 C 
ATOM     30  H   UNL     1       1.761   0.866   1.129  0.00  0.00    -0.081 HD
ENDBRANCH  19  27
ENDBRANCH  18  19
ENDBRANCH   1  18
TORSDOF 5
