REMARK  Name = ZINC44662856
REMARK  9 active torsions:
REMARK  status: ('A' for Active; 'I' for Inactive)
REMARK    1  A    between atoms: C_1  and  C_2
REMARK    2  A    between atoms: C_2  and  C_4
REMARK    3  A    between atoms: C_2  and  O_24
REMARK    4  A    between atoms: C_7  and  S_9
REMARK    5  A    between atoms: S_9  and  C_10
REMARK    6  A    between atoms: C_10  and  C_12
REMARK    7  A    between atoms: C_10  and  C_13
REMARK    8  A    between atoms: C_13  and  C_15
REMARK    9  A    between atoms: O_24  and  C_25
REMARK                            x       y       z     vdW  Elec       q    Type
REMARK                         _______ _______ _______ _____ _____    ______ ____
ROOT
ATOM      1  C   UNL     1       0.861  -0.295   1.210  0.00  0.00    +0.258 A 
ATOM      2  N   UNL     1       2.137  -0.068   1.315  0.00  0.00    -0.108 NA
ATOM      3  N   UNL     1       2.545  -0.430   2.480  0.00  0.00    -0.101 NA
ATOM      4  C   UNL     1       1.534  -0.905   3.166  0.00  0.00    +0.278 A 
ATOM      5  O   UNL     1       0.445  -0.825   2.378  0.00  0.00    -0.412 OA
ENDROOT
BRANCH   1   7
ATOM      6  C   UNL     1      -0.253   1.492  -0.098  0.00  0.00    +0.062 C 
ATOM      7  C   UNL     1       0.001  -0.013   0.005  0.00  0.00    +0.257 C 
BRANCH   7   8
ATOM      8  O   UNL     1       0.671  -0.465  -1.174  0.00  0.00    -0.477 OA
BRANCH   8   9
ATOM      9  C   UNL     1      -0.107  -0.775  -2.245  0.00  0.00    +0.157 A 
ATOM     10  C   UNL     1      -1.473  -0.541  -2.202  0.00  0.00    +0.048 A 
ATOM     11  C   UNL     1      -2.262  -0.857  -3.292  0.00  0.00    +0.004 A 
ATOM     12  C   UNL     1      -1.691  -1.406  -4.425  0.00  0.00    +0.003 A 
ATOM     13  C   UNL     1      -0.329  -1.642  -4.472  0.00  0.00    +0.042 A 
ATOM     14  C   UNL     1       0.466  -1.321  -3.386  0.00  0.00    +0.165 A 
ATOM     15  F   UNL     1       1.798  -1.546  -3.433  0.00  0.00    -0.202 F 
ENDBRANCH   8   9
ENDBRANCH   7   8
ENDBRANCH   1   7
BRANCH   4  16
ATOM     16  S   UNL     1       1.588  -1.527   4.813  0.00  0.00    -0.055 S 
BRANCH  16  17
ATOM     17  C   UNL     1       3.328  -1.346   5.294  0.00  0.00    +0.123 C 
ATOM     18  C   UNL     1       4.195  -2.255   4.421  0.00  0.00    +0.028 C 
BRANCH  17  19
ATOM     19  C   UNL     1       3.492  -1.732   6.741  0.00  0.00    +0.175 C 
ATOM     20  O   UNL     1       2.703  -2.496   7.259  0.00  0.00    -0.291 OA
BRANCH  19  21
ATOM     21  C   UNL     1       4.563  -1.206   7.494  0.00  0.00    +0.024 C 
ATOM     22  C   UNL     1       4.857  -1.462   8.822  0.00  0.00    +0.006 A 
ATOM     23  C   UNL     1       4.240  -2.270   9.806  0.00  0.00    +0.010 A 
ATOM     24  C   UNL     1       4.754  -2.334  11.054  0.00  0.00    +0.001 A 
ATOM     25  C   UNL     1       5.901  -1.620  11.435  0.00  0.00    +0.002 A 
ATOM     26  C   UNL     1       6.564  -0.820  10.573  0.00  0.00    +0.026 A 
ATOM     27  C   UNL     1       6.071  -0.693   9.191  0.00  0.00    +0.043 A 
ATOM     28  N   UNL     1       6.505  -0.008   8.172  0.00  0.00    -0.380 N 
ATOM     29  C   UNL     1       5.634  -0.250   7.018  0.00  0.00    +0.152 C 
ATOM     30  H   UNL     1       7.285   0.569   8.175  0.00  0.00    +0.160 HD
ENDBRANCH  19  21
ENDBRANCH  17  19
ENDBRANCH  16  17
ENDBRANCH   4  16
TORSDOF 7
