REMARK  Name = ZINC11513081
REMARK  10 active torsions:
REMARK  status: ('A' for Active; 'I' for Inactive)
REMARK    1  A    between atoms: C_1  and  C_2
REMARK    2  A    between atoms: C_2  and  C_3
REMARK    3  A    between atoms: C_3  and  C_4
REMARK    4  A    between atoms: C_4  and  N_5
REMARK    5  A    between atoms: C_9  and  C_28
REMARK    6  A    between atoms: C_10  and  C_27
REMARK    7  A    between atoms: C_14  and  S_15
REMARK    8  A    between atoms: S_15  and  C_16
REMARK    9  A    between atoms: C_16  and  C_17
REMARK   10  A    between atoms: C_24  and  C_26
REMARK                            x       y       z     vdW  Elec       q    Type
REMARK                         _______ _______ _______ _____ _____    ______ ____
ROOT
ATOM      1  N   UNL     1       8.554  -0.410   1.072  0.00  0.00    -0.287 N 
ATOM      2  C   UNL     1       9.634   0.393   1.035  0.00  0.00    +0.263 A 
ATOM      3  O   UNL     1      10.757  -0.083   1.029  0.00  0.00    -0.267 OA
ATOM      4  C   UNL     1       9.448   1.811   1.007  0.00  0.00    +0.075 A 
ATOM      5  C   UNL     1      10.443   2.868   0.971  0.00  0.00    -0.026 A 
ATOM      6  C   UNL     1      10.040   4.147   0.951  0.00  0.00    -0.008 A 
ATOM      7  S   UNL     1       8.262   4.021   0.978  0.00  0.00    -0.073 S 
ATOM      8  C   UNL     1       8.111   2.253   1.017  0.00  0.00    +0.117 A 
ATOM      9  N   UNL     1       7.089   1.407   1.049  0.00  0.00    -0.216 NA
ATOM     10  C   UNL     1       7.290   0.105   1.074  0.00  0.00    +0.173 A 
ATOM     11  C   UNL     1      10.887   5.393   0.913  0.00  0.00    +0.052 C 
ATOM     12  C   UNL     1      11.912   2.532   0.958  0.00  0.00    +0.045 C 
ENDROOT
BRANCH   1  13
ATOM     13  C   UNL     1       8.739  -1.863   1.106  0.00  0.00    +0.127 C 
BRANCH  13  14
ATOM     14  C   UNL     1       8.787  -2.404  -0.324  0.00  0.00    +0.021 C 
BRANCH  14  16
ATOM     15  C   UNL     1       9.028  -4.463  -1.718  0.00  0.00    +0.004 C 
ATOM     16  C   UNL     1       8.980  -3.921  -0.288  0.00  0.00    -0.002 C 
ENDBRANCH  14  16
ENDBRANCH  13  14
ENDBRANCH   1  13
BRANCH  10  17
ATOM     17  S   UNL     1       5.908  -0.987   1.117  0.00  0.00    -0.078 S 
BRANCH  17  18
ATOM     18  C   UNL     1       4.556   0.217   1.111  0.00  0.00    +0.173 C 
BRANCH  18  19
ATOM     19  C   UNL     1       3.236  -0.509   1.145  0.00  0.00    +0.226 C 
ATOM     20  O   UNL     1       3.212  -1.722   1.171  0.00  0.00    -0.275 OA
ATOM     21  N   UNL     1       2.083   0.188   1.147  0.00  0.00    -0.298 N 
ATOM     22  C   UNL     1       2.092   1.650   1.005  0.00  0.00    +0.108 C 
ATOM     23  C   UNL     1       1.166   2.039  -0.152  0.00  0.00    +0.019 C 
ATOM     24  C   UNL     1      -0.222   1.440   0.088  0.00  0.00    +0.003 C 
ATOM     25  C   UNL     1      -0.119  -0.087   0.132  0.00  0.00    +0.022 C 
ATOM     26  C   UNL     1       0.792  -0.499   1.292  0.00  0.00    +0.073 C 
ATOM     27  C   UNL     1       1.008  -2.014   1.261  0.00  0.00    +0.028 C 
ENDBRANCH  18  19
ENDBRANCH  17  18
ENDBRANCH  10  17
TORSDOF 6
