REMARK  Name = ZINC20684624
REMARK  6 active torsions:
REMARK  status: ('A' for Active; 'I' for Inactive)
REMARK    1  A    between atoms: C_1  and  C_2
REMARK    2  A    between atoms: C_2  and  N_3
REMARK    3  A    between atoms: C_14  and  C_16
REMARK    4  A    between atoms: C_27  and  S_32
REMARK    5  A    between atoms: S_32  and  N_35
REMARK    6  A    between atoms: N_38  and  C_41
REMARK                            x       y       z     vdW  Elec       q    Type
REMARK                         _______ _______ _______ _____ _____    ______ ____
ROOT
ATOM      1  C   UNL     1      -0.013   1.086   0.008  0.00  0.00    +0.105 C 
ATOM      2  C   UNL     1      -0.660   1.609  -1.262  0.00  0.00    +0.029 C 
ATOM      3  C   UNL     1      -2.054   1.069  -1.610  0.00  0.00    +0.033 C 
ATOM      4  C   UNL     1      -2.047   1.160  -3.137  0.00  0.00    -0.030 C 
ATOM      5  C   UNL     1      -0.800   1.102  -3.589  0.00  0.00    -0.023 C 
ATOM      6  C   UNL     1       0.117   0.935  -2.432  0.00  0.00    +0.049 C 
ATOM      7  C   UNL     1       1.491   1.482  -2.438  0.00  0.00    -0.018 A 
ATOM      8  C   UNL     1       2.204   1.679  -3.601  0.00  0.00    +0.034 A 
ATOM      9  C   UNL     1       3.499   2.161  -3.552  0.00  0.00    +0.106 A 
ATOM     10  C   UNL     1       4.084   2.448  -2.333  0.00  0.00    +0.030 A 
ATOM     11  C   UNL     1       3.376   2.261  -1.163  0.00  0.00    +0.025 A 
ATOM     12  C   UNL     1       2.072   1.782  -1.201  0.00  0.00    +0.031 A 
ATOM     13  N   UNL     1       1.368   1.616  -0.002  0.00  0.00    -0.336 N 
ATOM     14  H   UNL     1       1.861   1.887   0.943  0.00  0.00    +0.147 HD
ENDROOT
BRANCH   1  26
ATOM     15  N   UNL     1      -2.904   2.743   4.568  0.00  0.00    -0.340 N 
ATOM     16  C   UNL     1      -3.619   1.597   4.866  0.00  0.00    +0.050 A 
ATOM     17  C   UNL     1      -4.535   1.300   5.872  0.00  0.00    +0.026 A 
ATOM     18  C   UNL     1      -5.108   0.048   5.934  0.00  0.00    +0.002 A 
ATOM     19  C   UNL     1      -4.783  -0.924   5.001  0.00  0.00    +0.001 A 
ATOM     20  C   UNL     1      -3.880  -0.648   3.997  0.00  0.00    +0.010 A 
ATOM     21  C   UNL     1      -3.291   0.612   3.923  0.00  0.00    +0.008 A 
ATOM     22  C   UNL     1      -2.313   1.223   3.004  0.00  0.00    +0.008 A 
ATOM     23  C   UNL     1      -2.112   2.537   3.452  0.00  0.00    +0.050 A 
ATOM     24  C   UNL     1      -1.226   3.363   2.767  0.00  0.00    +0.027 A 
ATOM     25  C   UNL     1      -0.555   2.888   1.661  0.00  0.00    +0.007 A 
ATOM     26  C   UNL     1      -0.754   1.589   1.220  0.00  0.00    -0.026 A 
ATOM     27  C   UNL     1      -1.633   0.758   1.881  0.00  0.00    +0.016 A 
BRANCH  15  29
ATOM     28  C   UNL     1      -4.075   4.883   4.743  0.00  0.00    +0.027 C 
ATOM     29  C   UNL     1      -2.974   3.995   5.326  0.00  0.00    +0.119 C 
ENDBRANCH  15  29
ENDBRANCH   1  26
BRANCH   9  30
ATOM     30  S   UNL     1       4.404   2.409  -5.044  0.00  0.00    +0.061 S 
ATOM     31  O   UNL     1       5.781   2.350  -4.698  0.00  0.00    -0.153 OA
ATOM     32  O   UNL     1       3.825   1.551  -6.018  0.00  0.00    -0.153 OA
BRANCH  30  33
ATOM     33  N   UNL     1       4.107   3.960  -5.544  0.00  0.00    -0.180 NA
ATOM     34  C   UNL     1       2.984   4.261  -6.445  0.00  0.00    +0.091 C 
ATOM     35  C   UNL     1       2.163   5.404  -5.828  0.00  0.00    -0.062 C 
ATOM     36  N   UNL     1       3.052   6.539  -5.543  0.00  0.00    +0.380 N 
ATOM     37  C   UNL     1       4.068   6.183  -4.543  0.00  0.00    -0.062 C 
ATOM     38  C   UNL     1       4.963   5.072  -5.103  0.00  0.00    +0.091 C 
ATOM     39  C   UNL     1       2.283   7.715  -5.116  0.00  0.00    -0.096 C 
ATOM     40  H   UNL     1       3.575   6.796  -6.476  0.00  0.00    -0.082 HD
ENDBRANCH  30  33
ENDBRANCH   9  30
TORSDOF 4
