REMARK  Name = ZINC63203336
REMARK  7 active torsions:
REMARK  status: ('A' for Active; 'I' for Inactive)
REMARK    1  A    between atoms: C_4  and  O_7
REMARK    2  A    between atoms: O_7  and  C_8
REMARK    3  A    between atoms: N_10  and  C_11
REMARK    4  A    between atoms: C_11  and  C_13
REMARK    5  A    between atoms: C_11  and  C_23
REMARK    6  A    between atoms: C_13  and  C_14
REMARK    7  A    between atoms: N_25  and  C_26
REMARK                            x       y       z     vdW  Elec       q    Type
REMARK                         _______ _______ _______ _____ _____    ______ ____
ROOT
ATOM      1  C   UNL     1       4.689  -4.126   0.255  0.00  0.00    +0.166 C 
ENDROOT
BRANCH   1   4
ATOM      2  C   UNL     1       3.562  -1.975   0.060  0.00  0.00    +0.406 C 
ATOM      3  O   UNL     1       2.499  -2.565   0.066  0.00  0.00    -0.226 OA
ATOM      4  N   UNL     1       4.716  -2.665   0.150  0.00  0.00    -0.269 N 
ATOM      5  H   UNL     1       5.564  -2.195   0.145  0.00  0.00    +0.153 HD
BRANCH   2   6
ATOM      6  O   UNL     1       3.586  -0.632  -0.037  0.00  0.00    -0.412 OA
BRANCH   6  10
ATOM      7  C   UNL     1      -0.012   1.384   0.070  0.00  0.00    +0.000 A 
ATOM      8  C   UNL     1       0.471   0.774   1.212  0.00  0.00    +0.004 A 
ATOM      9  C   UNL     1       1.676   0.098   1.179  0.00  0.00    +0.046 A 
ATOM     10  C   UNL     1       2.400   0.032  -0.002  0.00  0.00    +0.133 A 
ATOM     11  C   UNL     1       1.913   0.644  -1.147  0.00  0.00    +0.046 A 
ATOM     12  C   UNL     1       0.708   1.319  -1.109  0.00  0.00    +0.004 A 
ENDBRANCH   6  10
ENDBRANCH   2   6
ENDBRANCH   1   4
BRANCH   1  13
ATOM     13  C   UNL     1       4.606  -4.728  -1.124  0.00  0.00    +0.234 C 
ATOM     14  O   UNL     1       4.571  -4.007  -2.099  0.00  0.00    -0.274 OA
ATOM     15  N   UNL     1       4.569  -6.066  -1.275  0.00  0.00    -0.311 N 
ATOM     16  H   UNL     1       4.596  -6.643  -0.495  0.00  0.00    +0.149 HD
BRANCH  15  17
ATOM     17  C   UNL     1       4.487  -6.651  -2.615  0.00  0.00    +0.073 C 
ATOM     18  C   UNL     1       3.024  -6.708  -3.058  0.00  0.00    +0.022 C 
ATOM     19  C   UNL     1       2.938  -7.319  -4.459  0.00  0.00    +0.002 C 
ATOM     20  C   UNL     1       3.520  -8.734  -4.434  0.00  0.00    +0.000 C 
ATOM     21  C   UNL     1       4.983  -8.677  -3.991  0.00  0.00    +0.002 C 
ATOM     22  C   UNL     1       5.068  -8.066  -2.591  0.00  0.00    +0.022 C 
ENDBRANCH  15  17
ENDBRANCH   1  13
BRANCH   1  23
ATOM     23  C   UNL     1       5.966  -4.611   0.946  0.00  0.00    +0.065 C 
BRANCH  23  24
ATOM     24  C   UNL     1       5.989  -4.109   2.367  0.00  0.00    -0.039 C 
ATOM     25  C   UNL     1       5.577  -4.773   3.470  0.00  0.00    -0.001 A 
ATOM     26  C   UNL     1       5.004  -6.110   3.671  0.00  0.00    +0.010 A 
ATOM     27  C   UNL     1       4.683  -6.505   4.924  0.00  0.00    +0.001 A 
ATOM     28  C   UNL     1       4.881  -5.671   6.033  0.00  0.00    +0.002 A 
ATOM     29  C   UNL     1       5.403  -4.431   5.929  0.00  0.00    +0.026 A 
ATOM     30  C   UNL     1       5.777  -3.913   4.658  0.00  0.00    +0.043 A 
ATOM     31  N   UNL     1       6.293  -2.761   4.303  0.00  0.00    -0.380 N 
ATOM     32  C   UNL     1       6.484  -2.764   2.848  0.00  0.00    +0.144 C 
ATOM     33  H   UNL     1       6.516  -2.031   4.901  0.00  0.00    +0.160 HD
ENDBRANCH  23  24
ENDBRANCH   1  23
TORSDOF 7
