REMARK  Name = ZINC02969669
REMARK  10 active torsions:
REMARK  status: ('A' for Active; 'I' for Inactive)
REMARK    1  A    between atoms: C_1  and  C_2
REMARK    2  A    between atoms: C_7  and  N_8
REMARK    3  A    between atoms: C_9  and  C_11
REMARK    4  A    between atoms: C_11  and  S_12
REMARK    5  A    between atoms: S_12  and  C_13
REMARK    6  A    between atoms: C_24  and  C_26
REMARK    7  A    between atoms: C_26  and  C_27
REMARK    8  A    between atoms: C_27  and  C_28
REMARK    9  A    between atoms: C_29  and  C_35
REMARK   10  A    between atoms: C_33  and  C_34
REMARK                            x       y       z     vdW  Elec       q    Type
REMARK                         _______ _______ _______ _____ _____    ______ ____
ROOT
ATOM      1  C   UNL     1      -1.632   3.743  -3.867  0.00  0.00    +0.192 A 
ATOM      2  N   UNL     1      -2.550   3.599  -4.789  0.00  0.00    -0.222 NA
ATOM      3  C   UNL     1      -3.356   2.511  -4.835  0.00  0.00    +0.077 A 
ATOM      4  C   UNL     1      -4.332   2.368  -5.825  0.00  0.00    +0.028 A 
ATOM      5  C   UNL     1      -5.132   1.249  -5.840  0.00  0.00    +0.002 A 
ATOM      6  C   UNL     1      -4.982   0.255  -4.881  0.00  0.00    +0.001 A 
ATOM      7  C   UNL     1      -4.028   0.372  -3.894  0.00  0.00    +0.014 A 
ATOM      8  C   UNL     1      -3.207   1.497  -3.860  0.00  0.00    +0.045 A 
ATOM      9  C   UNL     1      -2.174   1.676  -2.834  0.00  0.00    +0.168 A 
ATOM     10  N   UNL     1      -1.417   2.815  -2.885  0.00  0.00    -0.188 N 
ATOM     11  N   UNL     1      -0.523   2.731  -1.809  0.00  0.00    -0.148 NA
ATOM     12  C   UNL     1      -0.769   1.603  -1.190  0.00  0.00    +0.152 A 
ATOM     13  N   UNL     1      -1.758   0.963  -1.809  0.00  0.00    -0.211 NA
ENDROOT
BRANCH   1  14
ATOM     14  S   UNL     1      -0.633   5.194  -3.891  0.00  0.00    -0.077 S 
BRANCH  14  15
ATOM     15  C   UNL     1      -1.327   6.029  -5.339  0.00  0.00    +0.173 C 
BRANCH  15  17
ATOM     16  N   UNL     1      -0.954   8.131  -6.589  0.00  0.00    -0.285 N 
ATOM     17  C   UNL     1      -0.605   7.334  -5.560  0.00  0.00    +0.227 C 
ATOM     18  O   UNL     1       0.290   7.666  -4.812  0.00  0.00    -0.275 OA
ATOM     19  H   UNL     1      -1.613   7.830  -7.234  0.00  0.00    +0.155 HD
BRANCH  16  26
ATOM     20  C   UNL     1      -0.846   9.285  -9.188  0.00  0.00    +0.045 C 
ATOM     21  C   UNL     1      -0.291   9.993  -7.978  0.00  0.00    -0.029 A 
ATOM     22  C   UNL     1       0.286  11.241  -8.111  0.00  0.00    +0.006 A 
ATOM     23  C   UNL     1       0.800  11.888  -7.003  0.00  0.00    +0.020 A 
ATOM     24  C   UNL     1       0.732  11.292  -5.756  0.00  0.00    +0.043 A 
ATOM     25  C   UNL     1       0.151  10.046  -5.616  0.00  0.00    +0.043 A 
ATOM     26  C   UNL     1      -0.365   9.393  -6.728  0.00  0.00    +0.038 A 
ATOM     27 CL   UNL     1       1.378  12.109  -4.367  0.00  0.00    -0.083 Cl
ENDBRANCH  16  26
ENDBRANCH  15  17
ENDBRANCH  14  15
ENDBRANCH   1  14
BRANCH  12  28
ATOM     28  C   UNL     1      -0.041   1.103   0.030  0.00  0.00    +0.083 C 
BRANCH  28  29
ATOM     29  C   UNL     1      -0.750   1.605   1.289  0.00  0.00    +0.046 C 
BRANCH  29  30
ATOM     30  C   UNL     1      -0.021   1.106   2.510  0.00  0.00    -0.004 A 
ATOM     31  C   UNL     1       0.990   1.740   3.148  0.00  0.00    +0.036 A 
ATOM     32  N   UNL     1       1.368   0.967   4.189  0.00  0.00    -0.281 N 
ATOM     33  H   UNL     1       2.094   1.176   4.843  0.00  0.00    +0.189 HD
ATOM     34  N   UNL     1       0.563  -0.179   4.189  0.00  0.00    -0.179 NA
ATOM     35  C   UNL     1      -0.273  -0.092   3.186  0.00  0.00    +0.063 A 
ATOM     36  C   UNL     1      -1.323  -1.109   2.820  0.00  0.00    +0.068 C 
ATOM     37  C   UNL     1       1.587   3.069   2.767  0.00  0.00    +0.065 C 
ENDBRANCH  29  30
ENDBRANCH  28  29
ENDBRANCH  12  28
TORSDOF 7
