REMARK  Name = ZINC42859830
REMARK  4 active torsions:
REMARK  status: ('A' for Active; 'I' for Inactive)
REMARK    1  A    between atoms: C_1  and  C_2
REMARK    2  A    between atoms: C_8  and  C_10
REMARK    3  A    between atoms: C_10  and  N_11
REMARK    4  A    between atoms: N_11  and  C_12
REMARK                            x       y       z     vdW  Elec       q    Type
REMARK                         _______ _______ _______ _____ _____    ______ ____
ROOT
ATOM      1  C   UNL     1       0.114   0.072   4.896  0.00  0.00    +0.052 C 
ATOM      2  C   UNL     1       0.929  -0.245   6.128  0.00  0.00    +0.004 A 
ATOM      3  C   UNL     1       0.148  -1.089   6.908  0.00  0.00    +0.041 A 
ATOM      4  C   UNL     1       0.655  -1.548   8.121  0.00  0.00    +0.062 A 
ATOM      5  C   UNL     1       1.917  -1.166   8.536  0.00  0.00    +0.128 A 
ATOM      6  C   UNL     1       2.687  -0.326   7.751  0.00  0.00    +0.077 A 
ATOM      7  C   UNL     1       2.188   0.135   6.542  0.00  0.00    +0.130 A 
ATOM      8  F   UNL     1       2.935   0.956   5.771  0.00  0.00    -0.205 F 
ATOM      9  F   UNL     1       2.401  -1.615   9.715  0.00  0.00    -0.205 F 
ATOM     10  N   UNL     1      -1.076  -1.328   6.282  0.00  0.00    -0.286 N 
ATOM     11  C   UNL     1      -1.180  -0.687   5.102  0.00  0.00    +0.208 C 
ATOM     12  O   UNL     1      -2.129  -0.713   4.347  0.00  0.00    -0.277 OA
ATOM     13  H   UNL     1      -1.772  -1.891   6.654  0.00  0.00    +0.155 HD
ENDROOT
BRANCH   1  14
ATOM     14  N   UNL     1       0.801  -0.402   3.687  0.00  0.00    +0.390 N 
ATOM     15  H   UNL     1       0.888  -1.407   3.721  0.00  0.00    -0.084 HD
ATOM     16  H   UNL     1       1.720   0.013   3.638  0.00  0.00    -0.084 HD
BRANCH  14  17
ATOM     17  C   UNL     1       0.026  -0.018   2.500  0.00  0.00    -0.077 C 
BRANCH  17  24
ATOM     18  C   UNL     1      -0.019   1.526   0.010  0.00  0.00    +0.008 C 
ATOM     19  C   UNL     1       0.002  -0.004   0.002  0.00  0.00    -0.013 C 
ATOM     20  C   UNL     1       0.718  -0.497  -1.257  0.00  0.00    +0.003 C 
ATOM     21  C   UNL     1       0.739  -2.027  -1.265  0.00  0.00    +0.000 C 
ATOM     22  C   UNL     1       1.479  -2.534  -0.026  0.00  0.00    +0.000 C 
ATOM     23  C   UNL     1       0.763  -2.041   1.233  0.00  0.00    +0.002 C 
ATOM     24  C   UNL     1       0.742  -0.511   1.242  0.00  0.00    -0.025 C 
ENDBRANCH  17  24
ENDBRANCH  14  17
ENDBRANCH   1  14
TORSDOF 3
