REMARK  Name = ZINC06443807
REMARK  7 active torsions:
REMARK  status: ('A' for Active; 'I' for Inactive)
REMARK    1  A    between atoms: C_1  and  C_2
REMARK    2  A    between atoms: C_12  and  C_14
REMARK    3  A    between atoms: C_14  and  C_16
REMARK    4  A    between atoms: C_14  and  N_60
REMARK    5  A    between atoms: N_20  and  C_21
REMARK    6  A    between atoms: C_21  and  C_22
REMARK    7  A    between atoms: C_32  and  C_35
REMARK                            x       y       z     vdW  Elec       q    Type
REMARK                         _______ _______ _______ _____ _____    ______ ____
ROOT
ATOM      1  C   UNL     1      -0.289   0.840   2.030  0.00  0.00    +0.039 C 
ENDROOT
BRANCH   1  13
ATOM      2  C   UNL     1      -4.035   5.335   5.026  0.00  0.00    +0.046 C 
ATOM      3  C   UNL     1      -3.618   3.948   5.443  0.00  0.00    -0.026 A 
ATOM      4  C   UNL     1      -4.041   3.433   6.650  0.00  0.00    +0.005 A 
ATOM      5  C   UNL     1      -3.663   2.157   7.047  0.00  0.00    +0.001 A 
ATOM      6  C   UNL     1      -2.865   1.389   6.248  0.00  0.00    +0.010 A 
ATOM      7  C   UNL     1      -2.425   1.891   5.019  0.00  0.00    -0.001 A 
ATOM      8  C   UNL     1      -2.806   3.184   4.613  0.00  0.00    +0.052 A 
ATOM      9  N   UNL     1      -2.368   3.674   3.401  0.00  0.00    -0.322 N 
ATOM     10  H   UNL     1      -2.631   4.565   3.123  0.00  0.00    +0.169 HD
ATOM     11  C   UNL     1      -1.577   2.937   2.602  0.00  0.00    +0.251 A 
ATOM     12  O   UNL     1      -1.205   3.405   1.540  0.00  0.00    -0.268 OA
ATOM     13  C   UNL     1      -1.171   1.633   2.959  0.00  0.00    +0.011 A 
ATOM     14  C   UNL     1      -1.568   1.094   4.139  0.00  0.00    +0.017 A 
ENDBRANCH   1  13
BRANCH   1  21
ATOM     15  C   UNL     1      -2.256   0.015   0.885  0.00  0.00    -0.077 C 
ATOM     16  C   UNL     1      -2.988   0.002  -0.459  0.00  0.00    -0.018 C 
ATOM     17  C   UNL     1      -2.131  -0.732  -1.494  0.00  0.00    -0.001 C 
ATOM     18  C   UNL     1      -0.768  -0.042  -1.599  0.00  0.00    -0.031 C 
ATOM     19  C   UNL     1      -0.101  -0.028  -0.222  0.00  0.00    -0.074 C 
ATOM     20  C   UNL     1       0.117  -0.804  -2.588  0.00  0.00    +0.005 C 
ATOM     21  N   UNL     1      -0.964   0.714   0.722  0.00  0.00    +0.389 N 
ATOM     22  H   UNL     1      -1.139   1.653   0.345  0.00  0.00    -0.080 HD
ENDBRANCH   1  21
BRANCH   1  23
ATOM     23  C   UNL     1      -0.028  -0.520   2.624  0.00  0.00    +0.143 A 
ATOM     24  N   UNL     1      -0.900  -1.485   2.785  0.00  0.00    -0.115 NA
ATOM     25  N   UNL     1      -0.293  -2.485   3.324  0.00  0.00    -0.023 NA
ATOM     26  N   UNL     1       0.945  -2.183   3.511  0.00  0.00    -0.044 NA
ATOM     27  N   UNL     1       1.149  -0.981   3.088  0.00  0.00    -0.226 N 
BRANCH  27  28
ATOM     28  C   UNL     1       2.420  -0.255   3.110  0.00  0.00    +0.182 C 
BRANCH  28  29
ATOM     29  C   UNL     1       2.604   0.395   4.458  0.00  0.00    -0.026 A 
ATOM     30  C   UNL     1       2.233   1.713   4.646  0.00  0.00    +0.008 A 
ATOM     31  C   UNL     1       2.397   2.308   5.882  0.00  0.00    +0.038 A 
ATOM     32  C   UNL     1       2.942   1.586   6.930  0.00  0.00    +0.123 A 
ATOM     33  C   UNL     1       3.318   0.268   6.740  0.00  0.00    +0.038 A 
ATOM     34  C   UNL     1       3.149  -0.327   5.504  0.00  0.00    +0.008 A 
ATOM     35  F   UNL     1       3.107   2.168   8.138  0.00  0.00    -0.205 F 
ENDBRANCH  28  29
ENDBRANCH  27  28
ENDBRANCH   1  23
TORSDOF 5
