REMARK  Name = ZINC39517548
REMARK  14 active torsions:
REMARK  status: ('A' for Active; 'I' for Inactive)
REMARK    1  A    between atoms: C_1  and  C_2
REMARK    2  A    between atoms: C_2  and  C_3
REMARK    3  A    between atoms: C_3  and  C_4
REMARK    4  A    between atoms: C_4  and  N_5
REMARK    5  A    between atoms: C_11  and  C_16
REMARK    6  A    between atoms: C_16  and  O_18
REMARK    7  A    between atoms: O_18  and  C_19
REMARK    8  A    between atoms: C_19  and  C_21
REMARK    9  A    between atoms: C_19  and  C_22
REMARK   10  A    between atoms: N_24  and  C_25
REMARK   11  A    between atoms: C_25  and  C_26
REMARK   12  A    between atoms: N_28  and  C_29
REMARK   13  A    between atoms: C_30  and  C_36
REMARK   14  A    between atoms: C_34  and  C_35
REMARK                            x       y       z     vdW  Elec       q    Type
REMARK                         _______ _______ _______ _____ _____    ______ ____
ROOT
ATOM      1  C   UNL     1       5.161  -6.028  -9.836  0.00  0.00    +0.259 C 
ATOM      2  C   UNL     1       4.638  -7.231 -10.624  0.00  0.00    +0.062 C 
ENDROOT
BRANCH   1   3
ATOM      3  C   UNL     1       5.788  -5.040 -10.786  0.00  0.00    +0.254 C 
ATOM      4  O   UNL     1       5.350  -3.911 -10.864  0.00  0.00    -0.272 OA
ATOM      5  N   UNL     1       6.836  -5.410 -11.548  0.00  0.00    -0.304 N 
ATOM      6  H   UNL     1       7.186  -6.312 -11.486  0.00  0.00    +0.149 HD
BRANCH   5   7
ATOM      7  C   UNL     1       7.446  -4.449 -12.471  0.00  0.00    +0.200 C 
BRANCH   7   8
ATOM      8  C   UNL     1       8.589  -5.109 -13.199  0.00  0.00    +0.234 C 
ATOM      9  O   UNL     1       8.867  -6.267 -12.970  0.00  0.00    -0.274 OA
ATOM     10  N   UNL     1       9.303  -4.411 -14.105  0.00  0.00    -0.284 N 
ATOM     11  H   UNL     1       9.036  -3.509 -14.343  0.00  0.00    +0.155 HD
BRANCH  10  12
ATOM     12  C   UNL     1      10.428  -4.988 -14.704  0.00  0.00    +0.039 A 
ATOM     13  C   UNL     1      10.531  -5.040 -16.087  0.00  0.00    -0.029 A 
ATOM     14  C   UNL     1      11.643  -5.610 -16.675  0.00  0.00    +0.005 A 
ATOM     15  C   UNL     1      12.654  -6.129 -15.887  0.00  0.00    +0.001 A 
ATOM     16  C   UNL     1      12.555  -6.079 -14.508  0.00  0.00    +0.005 A 
ATOM     17  C   UNL     1      11.447  -5.505 -13.915  0.00  0.00    -0.029 A 
ATOM     18  C   UNL     1      11.343  -5.445 -12.412  0.00  0.00    +0.045 C 
ATOM     19  C   UNL     1       9.430  -4.475 -16.947  0.00  0.00    +0.045 C 
ENDBRANCH  10  12
ENDBRANCH   7   8
ENDBRANCH   5   7
ENDBRANCH   1   3
BRANCH   1  20
ATOM     20  O   UNL     1       4.077  -5.403  -9.146  0.00  0.00    -0.449 OA
BRANCH  20  21
ATOM     21  C   UNL     1       3.810  -5.843  -7.901  0.00  0.00    +0.340 C 
ATOM     22  O   UNL     1       4.479  -6.732  -7.415  0.00  0.00    -0.245 OA
BRANCH  21  29
ATOM     23  N   UNL     1      -0.199  -4.508  -3.580  0.00  0.00    -0.234 N 
ATOM     24  C   UNL     1      -0.388  -3.734  -4.664  0.00  0.00    +0.254 C 
ATOM     25  O   UNL     1      -1.240  -2.877  -4.782  0.00  0.00    -0.270 OA
ATOM     26  C   UNL     1       0.617  -4.101  -5.687  0.00  0.00    +0.049 A 
ATOM     27  C   UNL     1       0.896  -3.653  -6.968  0.00  0.00    +0.014 A 
ATOM     28  C   UNL     1       1.935  -4.220  -7.687  0.00  0.00    +0.016 A 
ATOM     29  C   UNL     1       2.702  -5.242  -7.127  0.00  0.00    +0.060 A 
ATOM     30  C   UNL     1       2.426  -5.700  -5.835  0.00  0.00    +0.028 A 
ATOM     31  C   UNL     1       1.388  -5.133  -5.115  0.00  0.00    +0.050 A 
ATOM     32  C   UNL     1       0.830  -5.355  -3.764  0.00  0.00    +0.254 C 
ATOM     33  O   UNL     1       1.233  -6.167  -2.956  0.00  0.00    -0.270 OA
BRANCH  23  34
ATOM     34  C   UNL     1      -1.003  -4.435  -2.358  0.00  0.00    +0.117 C 
BRANCH  34  35
ATOM     35  C   UNL     1      -0.377  -3.425  -1.395  0.00  0.00    +0.019 C 
BRANCH  35  37
ATOM     36  C   UNL     1      -0.591  -2.338   0.845  0.00  0.00    +0.004 C 
ATOM     37  C   UNL     1      -1.218  -3.349  -0.119  0.00  0.00    -0.002 C 
ENDBRANCH  35  37
ENDBRANCH  34  35
ENDBRANCH  23  34
ENDBRANCH  21  29
ENDBRANCH  20  21
ENDBRANCH   1  20
TORSDOF 10
