REMARK  Name = ZINC41585183
REMARK  6 active torsions:
REMARK  status: ('A' for Active; 'I' for Inactive)
REMARK    1  A    between atoms: C_4  and  C_7
REMARK    2  A    between atoms: C_7  and  C_8
REMARK    3  A    between atoms: C_12  and  O_30
REMARK    4  A    between atoms: C_13  and  C_17
REMARK    5  A    between atoms: C_17  and  N_18
REMARK    6  A    between atoms: N_21  and  C_24
REMARK                            x       y       z     vdW  Elec       q    Type
REMARK                         _______ _______ _______ _____ _____    ______ ____
ROOT
ATOM      1  C   UNL     1       4.147  -0.965   1.378  0.00  0.00    +0.096 A 
ATOM      2  C   UNL     1       4.973  -0.066   2.188  0.00  0.00    +0.045 A 
ATOM      3  C   UNL     1       5.552   1.184   1.955  0.00  0.00    +0.017 A 
ATOM      4  C   UNL     1       6.289   1.785   2.934  0.00  0.00    +0.046 A 
ATOM      5  C   UNL     1       6.469   1.160   4.166  0.00  0.00    +0.125 A 
ATOM      6  C   UNL     1       5.904  -0.078   4.414  0.00  0.00    +0.053 A 
ATOM      7  C   UNL     1       5.152  -0.702   3.428  0.00  0.00    +0.175 A 
ATOM      8  O   UNL     1       4.492  -1.877   3.370  0.00  0.00    -0.354 OA
ATOM      9  N   UNL     1       3.882  -2.009   2.102  0.00  0.00    -0.082 NA
ENDROOT
BRANCH   5  10
ATOM     10  O   UNL     1       7.206   1.771   5.130  0.00  0.00    -0.506 OA
ATOM     11  H   UNL     1       6.690   2.342   5.716  0.00  0.00    +0.292 HD
ENDBRANCH   5  10
BRANCH   1  12
ATOM     12  C   UNL     1       3.684  -0.720  -0.035  0.00  0.00    +0.094 C 
BRANCH  12  16
ATOM     13  C   UNL     1      -0.066   1.323   0.026  0.00  0.00    +0.000 A 
ATOM     14  C   UNL     1       1.113   2.044   0.012  0.00  0.00    +0.000 A 
ATOM     15  C   UNL     1       2.327   1.383  -0.007  0.00  0.00    +0.004 A 
ATOM     16  C   UNL     1       2.361   0.001  -0.013  0.00  0.00    -0.041 A 
ATOM     17  C   UNL     1       1.182  -0.720   0.002  0.00  0.00    +0.004 A 
ATOM     18  C   UNL     1      -0.032  -0.058   0.020  0.00  0.00    +0.000 A 
ENDBRANCH  12  16
ENDBRANCH   1  12
BRANCH   6  19
ATOM     19  C   UNL     1       6.106  -0.748   5.749  0.00  0.00    +0.127 C 
BRANCH  19  20
ATOM     20  N   UNL     1       5.029  -0.347   6.665  0.00  0.00    -0.295 NA
ATOM     21  C   UNL     1       5.103   1.088   6.970  0.00  0.00    +0.103 C 
ATOM     22  C   UNL     1       3.867   1.500   7.776  0.00  0.00    +0.120 C 
ATOM     23  N   UNL     1       3.759   0.619   8.949  0.00  0.00    -0.327 N 
ATOM     24  C   UNL     1       3.814  -0.835   8.735  0.00  0.00    +0.120 C 
ATOM     25  C   UNL     1       5.053  -1.155   7.891  0.00  0.00    +0.103 C 
BRANCH  23  26
ATOM     26  C   UNL     1       3.607   1.150  10.232  0.00  0.00    +0.030 A 
ATOM     27  C   UNL     1       3.669   2.523  10.429  0.00  0.00    +0.023 A 
ATOM     28  C   UNL     1       3.518   3.044  11.699  0.00  0.00    +0.002 A 
ATOM     29  C   UNL     1       3.306   2.200  12.774  0.00  0.00    +0.000 A 
ATOM     30  C   UNL     1       3.243   0.833  12.581  0.00  0.00    +0.002 A 
ATOM     31  C   UNL     1       3.388   0.305  11.313  0.00  0.00    +0.023 A 
ENDBRANCH  23  26
ENDBRANCH  19  20
ENDBRANCH   6  19
TORSDOF 6
