REMARK  Name = ZINC39237431
REMARK  5 active torsions:
REMARK  status: ('A' for Active; 'I' for Inactive)
REMARK    1  A    between atoms: C_6  and  C_7
REMARK    2  A    between atoms: C_10  and  C_35
REMARK    3  A    between atoms: C_17  and  C_20
REMARK    4  A    between atoms: N_22  and  C_23
REMARK    5  A    between atoms: C_23  and  C_24
REMARK                            x       y       z     vdW  Elec       q    Type
REMARK                         _______ _______ _______ _____ _____    ______ ____
ROOT
ATOM      1  C   UNL     1      -1.311  -0.850  -0.076  0.00  0.00    -0.037 C 
ATOM      2  C   UNL     1      -1.581  -1.257   1.372  0.00  0.00    +0.018 C 
ATOM      3  C   UNL     1      -2.820  -2.163   1.455  0.00  0.00    +0.173 C 
ATOM      4  N   UNL     1      -2.604  -3.278   0.541  0.00  0.00    -0.245 NA
ATOM      5  C   UNL     1      -2.501  -2.750  -0.847  0.00  0.00    +0.019 C 
ATOM      6  N   UNL     1      -1.232  -2.036  -0.951  0.00  0.00    +0.395 N 
ATOM      7  C   UNL     1      -2.579  -4.025  -1.696  0.00  0.00    +0.030 C 
ATOM      8  C   UNL     1      -3.385  -5.007  -0.809  0.00  0.00    +0.155 C 
ATOM      9  N   UNL     1      -3.665  -4.269   0.455  0.00  0.00    -0.243 NA
ATOM     10  H   UNL     1      -1.081  -1.747  -1.905  0.00  0.00    -0.083 HD
ATOM     11  H   UNL     1      -3.645  -4.890   1.249  0.00  0.00    +0.142 HD
ATOM     12  H   UNL     1      -0.477  -2.633  -0.649  0.00  0.00    -0.083 HD
ENDROOT
BRANCH   1  18
ATOM     13  C   UNL     1      -0.009   1.284  -0.189  0.00  0.00    +0.003 A 
ATOM     14  C   UNL     1       1.186   1.976  -0.251  0.00  0.00    +0.020 A 
ATOM     15  C   UNL     1       2.384   1.284  -0.269  0.00  0.00    +0.041 A 
ATOM     16  C   UNL     1       2.385  -0.099  -0.225  0.00  0.00    +0.020 A 
ATOM     17  C   UNL     1       1.190  -0.789  -0.163  0.00  0.00    +0.003 A 
ATOM     18  C   UNL     1      -0.007  -0.097  -0.145  0.00  0.00    -0.061 A 
ATOM     19 CL   UNL     1       3.886   2.152  -0.348  0.00  0.00    -0.084 Cl
ENDBRANCH   1  18
BRANCH   8  20
ATOM     20  C   UNL     1      -4.675  -5.386  -1.490  0.00  0.00    +0.232 C 
ATOM     21  O   UNL     1      -5.712  -4.845  -1.168  0.00  0.00    -0.274 OA
ATOM     22  N   UNL     1      -4.676  -6.325  -2.456  0.00  0.00    -0.308 N 
ATOM     23  H   UNL     1      -3.847  -6.757  -2.713  0.00  0.00    +0.149 HD
BRANCH  22  24
ATOM     24  C   UNL     1      -5.930  -6.693  -3.118  0.00  0.00    +0.157 C 
BRANCH  24  25
ATOM     25  C   UNL     1      -5.660  -7.757  -4.151  0.00  0.00    +0.034 A 
ATOM     26  H   UNL     1      -5.101  -6.641  -5.818  0.00  0.00    +0.166 HD
ATOM     27  C   UNL     1      -5.785  -9.078  -3.947  0.00  0.00    +0.032 A 
ATOM     28  C   UNL     1      -5.426  -9.741  -5.203  0.00  0.00    +0.001 A 
ATOM     29  C   UNL     1      -5.362 -11.074  -5.612  0.00  0.00    +0.030 A 
ATOM     30  C   UNL     1      -4.976 -11.373  -6.901  0.00  0.00    +0.042 A 
ATOM     31  C   UNL     1      -4.652 -10.357  -7.791  0.00  0.00    +0.022 A 
ATOM     32  C   UNL     1      -4.711  -9.037  -7.401  0.00  0.00    +0.027 A 
ATOM     33  C   UNL     1      -5.098  -8.712  -6.106  0.00  0.00    +0.047 A 
ATOM     34  N   UNL     1      -5.256  -7.519  -5.436  0.00  0.00    -0.357 N 
ATOM     35 CL   UNL     1      -4.894 -13.030  -7.414  0.00  0.00    -0.084 Cl
ENDBRANCH  24  25
ENDBRANCH  22  24
ENDBRANCH   8  20
BRANCH   3  36
ATOM     36  C   UNL     1      -4.067  -1.380   1.038  0.00  0.00    +0.406 C 
ATOM     37  F   UNL     1      -3.846  -0.780  -0.206  0.00  0.00    -0.169 F 
ATOM     38  F   UNL     1      -5.157  -2.252   0.949  0.00  0.00    -0.169 F 
ATOM     39  F   UNL     1      -4.337  -0.392   1.991  0.00  0.00    -0.169 F 
ENDBRANCH   3  36
TORSDOF 5
