REMARK  Name = ZINC16435208
REMARK  13 active torsions:
REMARK  status: ('A' for Active; 'I' for Inactive)
REMARK    1  A    between atoms: C_1  and  C_2
REMARK    2  A    between atoms: C_2  and  C_3
REMARK    3  A    between atoms: C_3  and  N_4
REMARK    4  A    between atoms: N_4  and  C_5
REMARK    5  A    between atoms: C_5  and  C_6
REMARK    6  A    between atoms: N_8  and  C_9
REMARK    7  A    between atoms: C_11  and  C_22
REMARK    8  A    between atoms: N_13  and  C_14
REMARK    9  A    between atoms: C_17  and  C_21
REMARK   10  A    between atoms: C_19  and  C_20
REMARK   11  A    between atoms: N_30  and  C_31
REMARK   12  A    between atoms: C_35  and  C_38
REMARK   13  A    between atoms: C_36  and  C_37
REMARK                            x       y       z     vdW  Elec       q    Type
REMARK                         _______ _______ _______ _____ _____    ______ ____
ROOT
ATOM      1  C   UNL     1      -3.399  -1.365   0.449  0.00  0.00    +0.236 C 
ATOM      2  O   UNL     1      -3.129  -2.543   0.541  0.00  0.00    -0.274 OA
ATOM      3  N   UNL     1      -2.416  -0.460   0.270  0.00  0.00    -0.269 N 
ATOM      4  H   UNL     1      -2.632   0.483   0.197  0.00  0.00    +0.156 HD
ENDROOT
BRANCH   3   5
ATOM      5  C   UNL     1      -1.088  -0.880   0.191  0.00  0.00    +0.129 A 
ATOM      6  C   UNL     1      -0.654  -2.167   0.167  0.00  0.00    +0.074 A 
ATOM      7  C   UNL     1       0.751  -2.146   0.088  0.00  0.00    +0.095 A 
ATOM      8  N   UNL     1       1.143  -0.890   0.059  0.00  0.00    -0.165 NA
ATOM      9  N   UNL     1       0.007  -0.073   0.119  0.00  0.00    -0.218 N 
BRANCH   9  10
ATOM     10  C   UNL     1      -0.002   1.328   0.113  0.00  0.00    +0.070 A 
ATOM     11  C   UNL     1      -0.832   2.015  -0.763  0.00  0.00    +0.028 A 
ATOM     12  C   UNL     1      -0.841   3.396  -0.763  0.00  0.00    +0.005 A 
ATOM     13  C   UNL     1      -0.017   4.095   0.101  0.00  0.00    -0.050 A 
ATOM     14  C   UNL     1       0.814   3.414   0.970  0.00  0.00    +0.008 A 
ATOM     15  C   UNL     1       0.824   2.032   0.979  0.00  0.00    -0.025 A 
ATOM     16  C   UNL     1       1.731   1.291   1.927  0.00  0.00    +0.046 C 
ATOM     17  C   UNL     1      -0.026   5.602   0.094  0.00  0.00    +0.044 C 
ENDBRANCH   9  10
BRANCH   7  18
ATOM     18  C   UNL     1       1.638  -3.336   0.043  0.00  0.00    +0.002 A 
ATOM     19  C   UNL     1       1.092  -4.617   0.086  0.00  0.00    +0.010 A 
ATOM     20  C   UNL     1       1.921  -5.719   0.039  0.00  0.00    +0.001 A 
ATOM     21  C   UNL     1       3.292  -5.554  -0.039  0.00  0.00    +0.000 A 
ATOM     22  C   UNL     1       3.840  -4.284  -0.076  0.00  0.00    +0.001 A 
ATOM     23  C   UNL     1       3.020  -3.175  -0.035  0.00  0.00    +0.010 A 
ENDBRANCH   7  18
ENDBRANCH   3   5
BRANCH   1  24
ATOM     24  C   UNL     1      -4.833  -0.911   0.535  0.00  0.00    +0.205 C 
BRANCH  24  25
ATOM     25  N   UNL     1      -5.702  -2.075   0.730  0.00  0.00    -0.277 N 
ATOM     26  C   UNL     1      -5.997  -2.495   1.976  0.00  0.00    +0.307 C 
ATOM     27  O   UNL     1      -5.541  -1.909   2.939  0.00  0.00    -0.252 OA
ATOM     28  N   UNL     1      -6.796  -3.565   2.154  0.00  0.00    -0.269 N 
ATOM     29  H   UNL     1      -7.109  -4.070   1.388  0.00  0.00    +0.156 HD
BRANCH  28  30
ATOM     30  C   UNL     1      -7.174  -3.948   3.446  0.00  0.00    +0.038 A 
ATOM     31  C   UNL     1      -6.291  -3.789   4.506  0.00  0.00    +0.023 A 
ATOM     32  C   UNL     1      -6.667  -4.167   5.779  0.00  0.00    +0.002 A 
ATOM     33  C   UNL     1      -7.923  -4.704   6.000  0.00  0.00    +0.004 A 
ATOM     34  C   UNL     1      -8.804  -4.864   4.947  0.00  0.00    -0.046 A 
ATOM     35  C   UNL     1      -8.436  -4.483   3.672  0.00  0.00    -0.026 A 
ATOM     36  C   UNL     1      -9.399  -4.652   2.526  0.00  0.00    +0.046 C 
ATOM     37  C   UNL     1     -10.171  -5.450   5.192  0.00  0.00    +0.044 C 
ENDBRANCH  28  30
BRANCH  25  38
ATOM     38  C   UNL     1      -6.251  -2.780  -0.431  0.00  0.00    +0.109 C 
BRANCH  38  40
ATOM     39  C   UNL     1      -5.862  -4.629  -2.066  0.00  0.00    +0.005 C 
ATOM     40  C   UNL     1      -5.289  -3.892  -0.854  0.00  0.00    +0.016 C 
ENDBRANCH  38  40
ENDBRANCH  25  38
ENDBRANCH  24  25
ENDBRANCH   1  24
TORSDOF 8
