REMARK  Name = ZINC08607244
REMARK  8 active torsions:
REMARK  status: ('A' for Active; 'I' for Inactive)
REMARK    1  A    between atoms: C_1  and  C_2
REMARK    2  A    between atoms: C_2  and  S_3
REMARK    3  A    between atoms: S_3  and  C_4
REMARK    4  A    between atoms: C_9  and  C_25
REMARK    5  A    between atoms: C_11  and  C_15
REMARK    6  A    between atoms: C_12  and  C_14
REMARK    7  A    between atoms: N_17  and  C_18
REMARK    8  A    between atoms: C_23  and  C_24
REMARK                            x       y       z     vdW  Elec       q    Type
REMARK                         _______ _______ _______ _____ _____    ______ ____
ROOT
ATOM      1  C   UNL     1       2.950  -2.391   1.384  0.00  0.00    +0.210 A 
ATOM      2  N   UNL     1       1.845  -2.830   0.764  0.00  0.00    -0.187 NA
ATOM      3  C   UNL     1       1.648  -4.085   1.062  0.00  0.00    +0.219 A 
ATOM      4  N   UNL     1       2.645  -4.484   1.890  0.00  0.00    -0.220 N 
ATOM      5  N   UNL     1       3.471  -3.377   2.081  0.00  0.00    -0.141 NA
ATOM      6  C   UNL     1       2.759  -5.838   2.425  0.00  0.00    +0.179 C 
ATOM      7  C   UNL     1       1.480  -6.589   2.164  0.00  0.00    +0.060 C 
ATOM      8  C   UNL     1       0.525  -6.143   1.335  0.00  0.00    +0.018 C 
ATOM      9  N   UNL     1       0.638  -4.950   0.663  0.00  0.00    -0.287 N 
ATOM     10  C   UNL     1      -0.713  -6.978   1.133  0.00  0.00    +0.061 C 
ATOM     11  H   UNL     1       0.035  -4.721  -0.061  0.00  0.00    +0.155 HD
ENDROOT
BRANCH   6  12
ATOM     12  C   UNL     1       3.905  -6.549   1.753  0.00  0.00    -0.000 A 
ATOM     13  C   UNL     1       3.876  -6.770   0.389  0.00  0.00    +0.009 A 
ATOM     14  C   UNL     1       4.927  -7.422  -0.228  0.00  0.00    +0.020 A 
ATOM     15  C   UNL     1       6.009  -7.853   0.519  0.00  0.00    +0.042 A 
ATOM     16  C   UNL     1       6.038  -7.631   1.884  0.00  0.00    +0.040 A 
ATOM     17  C   UNL     1       4.988  -6.974   2.500  0.00  0.00    +0.048 A 
ATOM     18 CL   UNL     1       5.027  -6.690   4.212  0.00  0.00    -0.083 Cl
ATOM     19 CL   UNL     1       7.329  -8.672  -0.256  0.00  0.00    -0.083 Cl
ENDBRANCH   6  12
BRANCH   7  20
ATOM     20  C   UNL     1       1.277  -7.823   2.825  0.00  0.00    +0.248 C 
ATOM     21  O   UNL     1       0.938  -7.840   3.994  0.00  0.00    -0.270 OA
ATOM     22  N   UNL     1       1.458  -8.981   2.159  0.00  0.00    -0.281 N 
ATOM     23  H   UNL     1       1.652  -8.970   1.209  0.00  0.00    +0.155 HD
BRANCH  22  24
ATOM     24  C   UNL     1       1.365 -10.200   2.839  0.00  0.00    +0.037 A 
ATOM     25  C   UNL     1       0.347 -10.407   3.762  0.00  0.00    +0.023 A 
ATOM     26  C   UNL     1       0.259 -11.611   4.431  0.00  0.00    +0.002 A 
ATOM     27  C   UNL     1       1.182 -12.611   4.184  0.00  0.00    +0.000 A 
ATOM     28  C   UNL     1       2.196 -12.409   3.266  0.00  0.00    +0.005 A 
ATOM     29  C   UNL     1       2.287 -11.208   2.589  0.00  0.00    -0.029 A 
ATOM     30  C   UNL     1       3.389 -10.991   1.584  0.00  0.00    +0.045 C 
ENDBRANCH  22  24
ENDBRANCH   7  20
BRANCH   1  31
ATOM     31  S   UNL     1       3.603  -0.758   1.276  0.00  0.00    -0.085 S 
BRANCH  31  33
ATOM     32  C   UNL     1       2.900   1.556  -0.002  0.00  0.00    +0.016 C 
ATOM     33  C   UNL     1       2.445   0.107   0.180  0.00  0.00    +0.074 C 
ENDBRANCH  31  33
ENDBRANCH   1  31
TORSDOF 5
