REMARK  Name = ZINC02247337
REMARK  2 active torsions:
REMARK  status: ('A' for Active; 'I' for Inactive)
REMARK    1  A    between atoms: C_3  and  C_8
REMARK    2  A    between atoms: N_14  and  C_15
REMARK                            x       y       z     vdW  Elec       q    Type
REMARK                         _______ _______ _______ _____ _____    ______ ____
ROOT
ATOM      1  C   UNL     1       3.665   2.097   1.067  0.00  0.00    +0.028 C 
ATOM      2  C   UNL     1       4.850   1.452   0.923  0.00  0.00    +0.078 C 
ATOM      3  C   UNL     1       5.147   0.007   1.010  0.00  0.00    +0.256 C 
ATOM      4  O   UNL     1       4.275  -0.809   1.240  0.00  0.00    -0.269 OA
ATOM      5  N   UNL     1       6.405  -0.357   0.826  0.00  0.00    -0.260 N 
ATOM      6  C   UNL     1       7.378   0.583   0.566  0.00  0.00    +0.166 C 
ATOM      7  N   UNL     1       8.662   0.394   0.361  0.00  0.00    -0.224 NA
ATOM      8  S   UNL     1       6.469   2.120   0.569  0.00  0.00    -0.049 S 
ATOM      9  H   UNL     1       6.645  -1.296   0.875  0.00  0.00    +0.157 HD
ENDROOT
BRANCH   7  10
ATOM     10  C   UNL     1       9.163  -0.877   0.283  0.00  0.00    +0.086 A 
ATOM     11  C   UNL     1       8.568  -1.815  -0.564  0.00  0.00    +0.029 A 
ATOM     12  C   UNL     1       9.077  -3.095  -0.637  0.00  0.00    +0.004 A 
ATOM     13  C   UNL     1      10.175  -3.452   0.125  0.00  0.00    +0.021 A 
ATOM     14  C   UNL     1      10.771  -2.528   0.967  0.00  0.00    +0.061 A 
ATOM     15  C   UNL     1      10.275  -1.241   1.046  0.00  0.00    +0.085 A 
ATOM     16 CL   UNL     1      11.028  -0.081   2.096  0.00  0.00    -0.080 Cl
ATOM     17 CL   UNL     1      12.148  -2.986   1.920  0.00  0.00    -0.082 Cl
ENDBRANCH   7  10
BRANCH   1  20
ATOM     18  C   UNL     1       1.489  -0.321   2.933  0.00  0.00    +0.003 A 
ATOM     19  C   UNL     1       2.606   0.365   2.503  0.00  0.00    +0.008 A 
ATOM     20  C   UNL     1       2.479   1.361   1.529  0.00  0.00    -0.021 A 
ATOM     21  C   UNL     1       1.219   1.655   0.998  0.00  0.00    +0.046 A 
ATOM     22  C   UNL     1       0.110   0.960   1.438  0.00  0.00    +0.124 A 
ATOM     23  C   UNL     1       0.245  -0.026   2.404  0.00  0.00    +0.038 A 
ATOM     24  F   UNL     1      -1.109   1.241   0.928  0.00  0.00    -0.205 F 
ENDBRANCH   1  20
TORSDOF 2
