REMARK  Name = ZINC20159749
REMARK  7 active torsions:
REMARK  status: ('A' for Active; 'I' for Inactive)
REMARK    1  A    between atoms: C_1  and  C_2
REMARK    2  A    between atoms: C_2  and  C_15
REMARK    3  A    between atoms: N_3  and  N_4
REMARK    4  A    between atoms: N_4  and  S_5
REMARK    5  A    between atoms: S_5  and  C_8
REMARK    6  A    between atoms: C_19  and  N_21
REMARK    7  A    between atoms: C_22  and  C_24
REMARK                            x       y       z     vdW  Elec       q    Type
REMARK                         _______ _______ _______ _____ _____    ______ ____
ROOT
ATOM      1  C   UNL     1       1.222  -0.679   0.177  0.00  0.00    -0.001 A 
ATOM      2  C   UNL     1       0.006  -0.011   0.015  0.00  0.00    +0.010 A 
ATOM      3  C   UNL     1      -0.010   1.358  -0.157  0.00  0.00    +0.002 A 
ATOM      4  C   UNL     1       1.173   2.073  -0.169  0.00  0.00    +0.023 A 
ATOM      5  C   UNL     1       2.388   1.417  -0.008  0.00  0.00    +0.034 A 
ATOM      6  C   UNL     1       2.417   0.042   0.165  0.00  0.00    +0.033 A 
ENDROOT
BRANCH   5   7
ATOM      7  N   UNL     1       3.583   2.145  -0.021  0.00  0.00    -0.281 N 
ATOM      8  C   UNL     1       4.703   1.593  -0.528  0.00  0.00    +0.249 C 
ATOM      9  O   UNL     1       4.655   0.501  -1.061  0.00  0.00    -0.270 OA
ATOM     10  H   UNL     1       3.607   3.168   0.383  0.00  0.00    +0.155 HD
BRANCH   8  11
ATOM     11  C   UNL     1       5.984   2.312  -0.436  0.00  0.00    +0.047 A 
ATOM     12  C   UNL     1       6.062   3.553   0.157  0.00  0.00    +0.058 A 
ATOM     13  S   UNL     1       7.742   3.955   0.015  0.00  0.00    -0.101 S 
ATOM     14  C   UNL     1       8.310   2.504  -0.824  0.00  0.00    -0.006 A 
ATOM     15  C   UNL     1       7.204   1.741  -0.974  0.00  0.00    -0.025 A 
ATOM     16  C   UNL     1       7.275   0.384  -1.664  0.00  0.00    +0.037 C 
ATOM     17  C   UNL     1       8.564   0.317  -2.484  0.00  0.00    +0.005 C 
ATOM     18  C   UNL     1       9.763   0.679  -1.603  0.00  0.00    +0.005 C 
ATOM     19  C   UNL     1       9.700   2.178  -1.274  0.00  0.00    +0.043 C 
ENDBRANCH   8  11
ENDBRANCH   5   7
BRANCH   1  21
ATOM     20  C   UNL     1      -0.048  -2.920   0.373  0.00  0.00    +0.068 C 
ATOM     21  C   UNL     1       1.244  -2.143   0.360  0.00  0.00    +0.065 C 
ATOM     22  N   UNL     1       2.374  -2.761   0.511  0.00  0.00    -0.171 NA
BRANCH  22  23
ATOM     23  N   UNL     1       2.394  -4.152   0.685  0.00  0.00    -0.136 N 
ATOM     24  H   UNL     1       1.563  -4.652   0.693  0.00  0.00    +0.197 HD
BRANCH  23  25
ATOM     25  S   UNL     1       3.837  -4.941   0.877  0.00  0.00    +0.086 S 
ATOM     26  O   UNL     1       3.523  -6.295   1.172  0.00  0.00    -0.149 OA
ATOM     27  O   UNL     1       4.653  -4.571  -0.226  0.00  0.00    -0.149 OA
BRANCH  25  28
ATOM     28  C   UNL     1       4.606  -4.278   2.317  0.00  0.00    +0.110 A 
ATOM     29  C   UNL     1       5.455  -3.192   2.208  0.00  0.00    +0.031 A 
ATOM     30  C   UNL     1       6.056  -2.668   3.338  0.00  0.00    +0.040 A 
ATOM     31  C   UNL     1       5.814  -3.237   4.577  0.00  0.00    +0.124 A 
ATOM     32  C   UNL     1       4.968  -4.327   4.683  0.00  0.00    +0.040 A 
ATOM     33  C   UNL     1       4.365  -4.847   3.554  0.00  0.00    +0.031 A 
ATOM     34  F   UNL     1       6.404  -2.728   5.681  0.00  0.00    -0.205 F 
ENDBRANCH  25  28
ENDBRANCH  23  25
ENDBRANCH  22  23
ENDBRANCH   1  21
TORSDOF 6
