REMARK  Name = ZINC12716247
REMARK  15 active torsions:
REMARK  status: ('A' for Active; 'I' for Inactive)
REMARK    1  A    between atoms: C_1  and  C_2
REMARK    2  A    between atoms: C_5  and  C_7
REMARK    3  A    between atoms: N_10  and  C_12
REMARK    4  A    between atoms: C_12  and  C_13
REMARK    5  A    between atoms: N_15  and  C_16
REMARK    6  A    between atoms: N_15  and  C_25
REMARK    7  A    between atoms: C_16  and  C_17
REMARK    8  A    between atoms: C_20  and  O_23
REMARK    9  A    between atoms: O_23  and  C_24
REMARK   10  A    between atoms: C_25  and  C_27
REMARK   11  A    between atoms: C_25  and  C_32
REMARK   12  A    between atoms: N_34  and  C_35
REMARK   13  A    between atoms: C_35  and  C_36
REMARK   14  A    between atoms: C_35  and  C_37
REMARK   15  A    between atoms: C_35  and  C_38
REMARK                            x       y       z     vdW  Elec       q    Type
REMARK                         _______ _______ _______ _____ _____    ______ ____
ROOT
ATOM      1  C   UNL     1      -2.665   0.714   5.197  0.00  0.00    +0.240 C 
ATOM      2  O   UNL     1      -2.811   0.042   6.196  0.00  0.00    -0.273 OA
ATOM      3  N   UNL     1      -1.667   1.617   5.132  0.00  0.00    -0.278 N 
ENDROOT
BRANCH   1   4
ATOM      4  C   UNL     1      -3.600   0.539   4.028  0.00  0.00    +0.264 C 
BRANCH   4   8
ATOM      5  C   UNL     1      -5.547  -2.363   4.528  0.00  0.00    +0.239 A 
ATOM      6  N   UNL     1      -6.346  -1.411   5.034  0.00  0.00    -0.105 NA
ATOM      7  N   UNL     1      -5.730  -0.286   4.905  0.00  0.00    -0.045 NA
ATOM      8  N   UNL     1      -4.590  -0.494   4.345  0.00  0.00    -0.154 N 
ATOM      9  N   UNL     1      -4.457  -1.753   4.101  0.00  0.00    -0.127 NA
BRANCH   5  14
ATOM     10  C   UNL     1      -5.015  -7.267   3.595  0.00  0.00    +0.086 C 
ATOM     11  C   UNL     1      -5.605  -5.958   4.052  0.00  0.00    +0.103 A 
ATOM     12  C   UNL     1      -6.810  -5.800   4.635  0.00  0.00    +0.045 A 
ATOM     13  C   UNL     1      -6.961  -4.425   4.904  0.00  0.00    +0.053 A 
ATOM     14  C   UNL     1      -5.833  -3.813   4.458  0.00  0.00    +0.175 A 
ATOM     15  O   UNL     1      -5.018  -4.755   3.946  0.00  0.00    -0.457 OA
ENDBRANCH   5  14
ENDBRANCH   4   8
ENDBRANCH   1   4
BRANCH   3  16
ATOM     16  C   UNL     1      -0.758   1.787   6.269  0.00  0.00    +0.144 C 
BRANCH  16  17
ATOM     17  C   UNL     1      -1.387   2.708   7.282  0.00  0.00    -0.030 A 
ATOM     18  C   UNL     1      -0.932   4.008   7.408  0.00  0.00    +0.009 A 
ATOM     19  C   UNL     1      -1.511   4.856   8.332  0.00  0.00    +0.046 A 
ATOM     20  C   UNL     1      -2.542   4.400   9.141  0.00  0.00    +0.120 A 
ATOM     21  C   UNL     1      -2.992   3.094   9.016  0.00  0.00    +0.046 A 
ATOM     22  C   UNL     1      -2.414   2.251   8.086  0.00  0.00    +0.009 A 
BRANCH  20  23
ATOM     23  O   UNL     1      -3.109   5.231  10.054  0.00  0.00    -0.495 OA
ATOM     24  C   UNL     1      -2.594   6.562  10.128  0.00  0.00    +0.277 C 
ENDBRANCH  20  23
ENDBRANCH  16  17
ENDBRANCH   3  16
BRANCH   3  25
ATOM     25  C   UNL     1      -1.491   2.428   3.925  0.00  0.00    +0.228 C 
BRANCH  25  26
ATOM     26  C   UNL     1      -1.476   3.888   4.300  0.00  0.00    +0.134 A 
ATOM     27  C   UNL     1      -2.547   4.702   4.337  0.00  0.00    +0.047 A 
ATOM     28  C   UNL     1      -2.080   5.974   4.738  0.00  0.00    +0.041 A 
ATOM     29  C   UNL     1      -0.751   5.865   4.914  0.00  0.00    +0.195 A 
ATOM     30  O   UNL     1      -0.391   4.599   4.647  0.00  0.00    -0.465 OA
ENDBRANCH  25  26
BRANCH  25  31
ATOM     31  C   UNL     1      -0.186   2.067   3.263  0.00  0.00    +0.242 C 
ATOM     32  O   UNL     1       0.683   1.509   3.898  0.00  0.00    -0.273 OA
ATOM     33  N   UNL     1       0.014   2.363   1.963  0.00  0.00    -0.309 N 
ATOM     34  H   UNL     1      -0.681   2.809   1.455  0.00  0.00    +0.149 HD
BRANCH  33  35
ATOM     35  C   UNL     1       1.282   2.011   1.319  0.00  0.00    +0.026 C 
ATOM     36  C   UNL     1       1.486   0.497   1.388  0.00  0.00    +0.031 C 
ATOM     37  C   UNL     1       2.433   2.715   2.041  0.00  0.00    +0.031 C 
ATOM     38  C   UNL     1       1.250   2.455  -0.145  0.00  0.00    +0.031 C 
ENDBRANCH  33  35
ENDBRANCH  25  31
ENDBRANCH   3  25
TORSDOF 10
