REMARK  Name = ZINC61174842
REMARK  4 active torsions:
REMARK  status: ('A' for Active; 'I' for Inactive)
REMARK    1  A    between atoms: C_4  and  N_7
REMARK    2  A    between atoms: C_9  and  C_12
REMARK    3  A    between atoms: C_13  and  C_14
REMARK    4  A    between atoms: C_20  and  N_24
REMARK                            x       y       z     vdW  Elec       q    Type
REMARK                         _______ _______ _______ _____ _____    ______ ____
ROOT
ATOM      1  C   UNL     1       5.774  -3.574  -0.081  0.00  0.00    +0.014 C 
ATOM      2  C   UNL     1       7.118  -3.675  -0.093  0.00  0.00    +0.047 C 
ENDROOT
BRANCH   2   3
ATOM      3  C   UNL     1       7.753  -4.995  -0.110  0.00  0.00    +0.132 A 
ATOM      4  N   UNL     1       9.107  -5.221  -0.118  0.00  0.00    -0.338 N 
ATOM      5  H   UNL     1       9.803  -4.546  -0.113  0.00  0.00    +0.167 HD
ATOM      6  C   UNL     1       9.291  -6.591  -0.134  0.00  0.00    +0.067 A 
ATOM      7  C   UNL     1      10.411  -7.410  -0.148  0.00  0.00    +0.030 A 
ATOM      8  C   UNL     1      10.256  -8.781  -0.164  0.00  0.00    +0.035 A 
ATOM      9  C   UNL     1       8.988  -9.345  -0.166  0.00  0.00    +0.128 A 
ATOM     10  C   UNL     1       7.873  -8.555  -0.153  0.00  0.00    +0.062 A 
ATOM     11  C   UNL     1       8.006  -7.163  -0.136  0.00  0.00    +0.092 A 
ATOM     12  N   UNL     1       7.113  -6.144  -0.116  0.00  0.00    -0.228 NA
BRANCH   9  13
ATOM     13  N   UNL     1       8.842 -10.818  -0.184  0.00  0.00    +0.056 N 
ATOM     14  O   UNL     1       9.824 -11.523  -0.197  0.00  0.00    -0.126 OA
ATOM     15  O   UNL     1       7.740 -11.316  -0.187  0.00  0.00    -0.126 OA
ENDBRANCH   9  13
ENDBRANCH   2   3
BRANCH   1  18
ATOM     16  N   UNL     1       3.623  -0.652  -0.037  0.00  0.00    -0.239 N 
ATOM     17  C   UNL     1       3.779  -1.992  -0.051  0.00  0.00    +0.122 A 
ATOM     18  C   UNL     1       5.136  -2.248  -0.064  0.00  0.00    +0.013 A 
ATOM     19  C   UNL     1       5.797  -0.999  -0.057  0.00  0.00    +0.142 A 
ATOM     20  N   UNL     1       4.891  -0.059  -0.046  0.00  0.00    -0.174 NA
BRANCH  16  24
ATOM     21  C   UNL     1      -0.017   1.379   0.010  0.00  0.00    +0.000 A 
ATOM     22  C   UNL     1       1.170   2.089   0.002  0.00  0.00    +0.002 A 
ATOM     23  C   UNL     1       2.377   1.419  -0.013  0.00  0.00    +0.028 A 
ATOM     24  C   UNL     1       2.400   0.031  -0.021  0.00  0.00    +0.065 A 
ATOM     25  C   UNL     1       1.207  -0.680  -0.013  0.00  0.00    +0.028 A 
ATOM     26  C   UNL     1       0.002  -0.004   0.002  0.00  0.00    +0.002 A 
ENDBRANCH  16  24
ENDBRANCH   1  18
TORSDOF 4
