REMARK  Name = ZINC24767414
REMARK  8 active torsions:
REMARK  status: ('A' for Active; 'I' for Inactive)
REMARK    1  A    between atoms: C_1  and  C_2
REMARK    2  A    between atoms: C_2  and  C_26
REMARK    3  A    between atoms: N_5  and  N_9
REMARK    4  A    between atoms: C_10  and  C_12
REMARK    5  A    between atoms: C_12  and  N_13
REMARK    6  A    between atoms: C_21  and  C_23
REMARK    7  A    between atoms: C_26  and  C_27
REMARK    8  A    between atoms: C_27  and  C_28
REMARK                            x       y       z     vdW  Elec       q    Type
REMARK                         _______ _______ _______ _____ _____    ______ ____
ROOT
ATOM      1  N   UNL     1      -3.479  -2.452   1.762  0.00  0.00    -0.225 N 
ATOM      2  C   UNL     1      -3.423  -1.224   1.210  0.00  0.00    +0.213 C 
ATOM      3  O   UNL     1      -4.410  -0.745   0.694  0.00  0.00    -0.276 OA
ATOM      4  H   UNL     1      -2.584  -2.887   2.230  0.00  0.00    +0.173 HD
ENDROOT
BRANCH   1   9
ATOM      5  C   UNL     1      -7.960  -3.421   2.469  0.00  0.00    +0.041 C 
ATOM      6  C   UNL     1      -6.644  -4.187   2.318  0.00  0.00    +0.112 C 
ATOM      7  C   UNL     1      -5.477  -3.353   2.809  0.00  0.00    +0.263 C 
ATOM      8  O   UNL     1      -5.300  -2.932   3.932  0.00  0.00    -0.271 OA
ATOM      9  N   UNL     1      -4.679  -3.176   1.738  0.00  0.00    -0.137 N 
ATOM     10  C   UNL     1      -5.170  -3.782   0.651  0.00  0.00    +0.326 C 
ATOM     11  O   UNL     1      -4.625  -3.767  -0.435  0.00  0.00    -0.251 OA
ATOM     12  N   UNL     1      -6.335  -4.410   0.895  0.00  0.00    -0.284 N 
ATOM     13  H   UNL     1      -7.020  -5.000   0.269  0.00  0.00    +0.151 HD
BRANCH   6  14
ATOM     14  C   UNL     1      -6.708  -5.518   3.070  0.00  0.00    +0.040 C 
BRANCH  14  15
ATOM     15  C   UNL     1      -7.738  -6.431   2.402  0.00  0.00    +0.038 C 
BRANCH  15  16
ATOM     16  C   UNL     1      -7.801  -7.742   3.143  0.00  0.00    -0.047 A 
ATOM     17  C   UNL     1      -6.980  -8.789   2.767  0.00  0.00    +0.003 A 
ATOM     18  C   UNL     1      -7.034  -9.989   3.450  0.00  0.00    +0.000 A 
ATOM     19  C   UNL     1      -7.918 -10.148   4.501  0.00  0.00    +0.000 A 
ATOM     20  C   UNL     1      -8.743  -9.103   4.873  0.00  0.00    +0.000 A 
ATOM     21  C   UNL     1      -8.684  -7.900   4.194  0.00  0.00    +0.003 A 
ENDBRANCH  15  16
ENDBRANCH  14  15
ENDBRANCH   6  14
ENDBRANCH   1   9
BRANCH   2  22
ATOM     22  C   UNL     1      -2.133  -0.445   1.235  0.00  0.00    +0.021 C 
BRANCH  22  23
ATOM     23  N   UNL     1      -2.374   0.918   0.744  0.00  0.00    +0.390 N 
ATOM     24  C   UNL     1      -3.468   1.560   1.488  0.00  0.00    -0.072 C 
ATOM     25  C   UNL     1      -3.955   2.784   0.695  0.00  0.00    +0.024 C 
ATOM     26  C   UNL     1      -2.750   3.556   0.264  0.00  0.00    -0.010 A 
ATOM     27  C   UNL     1      -1.455   3.125   0.284  0.00  0.00    -0.051 A 
ATOM     28  C   UNL     1      -0.495   4.023  -0.169  0.00  0.00    +0.010 A 
ATOM     29  C   UNL     1      -0.865   5.253  -0.595  0.00  0.00    +0.045 A 
ATOM     30  S   UNL     1      -2.638   5.202  -0.376  0.00  0.00    -0.101 S 
ATOM     31  C   UNL     1      -1.142   1.716   0.779  0.00  0.00    -0.033 C 
ATOM     32  H   UNL     1      -2.690   0.856  -0.308  0.00  0.00    -0.080 HD
BRANCH  31  33
ATOM     33  C   UNL     1      -0.090   1.075  -0.129  0.00  0.00    -0.020 C 
ATOM     34  C   UNL     1       1.342   0.985   0.402  0.00  0.00    +0.002 C 
ATOM     35  C   UNL     1       0.483  -0.277   0.299  0.00  0.00    +0.002 C 
ENDBRANCH  31  33
ENDBRANCH  22  23
ENDBRANCH   2  22
TORSDOF 7
