REMARK  Name = ZINC39686970
REMARK  9 active torsions:
REMARK  status: ('A' for Active; 'I' for Inactive)
REMARK    1  A    between atoms: C_1  and  C_2
REMARK    2  A    between atoms: C_2  and  C_4
REMARK    3  A    between atoms: C_2  and  N_12
REMARK    4  A    between atoms: C_4  and  C_5
REMARK    5  A    between atoms: C_13  and  C_15
REMARK    6  A    between atoms: C_26  and  C_28
REMARK    7  A    between atoms: C_28  and  C_30
REMARK    8  A    between atoms: C_28  and  O_31
REMARK    9  A    between atoms: O_31  and  C_32
REMARK                            x       y       z     vdW  Elec       q    Type
REMARK                         _______ _______ _______ _____ _____    ______ ____
ROOT
ATOM      1  C   UNL     1      -3.439  -1.181  -1.103  0.00  0.00    +0.100 C 
ATOM      2  C   UNL     1      -3.481  -2.669  -0.687  0.00  0.00    +0.121 C 
ATOM      3  N   UNL     1      -4.542  -3.264  -1.534  0.00  0.00    -0.297 N 
ATOM      4  C   UNL     1      -4.364  -2.618  -2.856  0.00  0.00    +0.115 C 
ATOM      5  C   UNL     1      -4.019  -1.152  -2.527  0.00  0.00    -0.004 C 
ATOM      6  C   UNL     1      -2.980  -0.622  -3.510  0.00  0.00    -0.010 C 
ATOM      7  C   UNL     1      -3.598  -0.547  -4.909  0.00  0.00    -0.082 C 
ATOM      8  N   UNL     1      -4.770   0.336  -4.881  0.00  0.00    +0.379 N 
ATOM      9  C   UNL     1      -5.803  -0.230  -4.005  0.00  0.00    -0.082 C 
ATOM     10  C   UNL     1      -5.278  -0.291  -2.567  0.00  0.00    -0.010 C 
ATOM     11  C   UNL     1      -5.461  -4.184  -1.180  0.00  0.00    +0.256 C 
ATOM     12  O   UNL     1      -5.541  -4.550  -0.027  0.00  0.00    -0.272 OA
ATOM     13  H   UNL     1      -4.498   1.244  -4.535  0.00  0.00    -0.086 HD
ATOM     14  H   UNL     1      -5.139   0.432  -5.815  0.00  0.00    -0.086 HD
ENDROOT
BRANCH   1  16
ATOM     15  N   UNL     1      -1.774   0.646  -1.011  0.00  0.00    -0.312 N 
ATOM     16  C   UNL     1      -2.019  -0.676  -1.104  0.00  0.00    +0.218 C 
ATOM     17  O   UNL     1      -1.097  -1.459  -1.188  0.00  0.00    -0.275 OA
ATOM     18  H   UNL     1      -2.511   1.272  -0.944  0.00  0.00    +0.149 HD
BRANCH  15  20
ATOM     19  C   UNL     1       0.089   1.297  -2.455  0.00  0.00    +0.028 C 
ATOM     20  C   UNL     1      -0.394   1.137  -1.012  0.00  0.00    +0.074 C 
BRANCH  20  21
ATOM     21  C   UNL     1      -0.333   2.490  -0.301  0.00  0.00    +0.060 C 
BRANCH  21  22
ATOM     22  C   UNL     1      -0.691   2.310   1.152  0.00  0.00    -0.010 A 
ATOM     23  C   UNL     1      -1.992   2.512   1.574  0.00  0.00    +0.006 A 
ATOM     24  C   UNL     1      -2.320   2.347   2.906  0.00  0.00    +0.000 A 
ATOM     25  C   UNL     1      -1.348   1.980   3.819  0.00  0.00    +0.003 A 
ATOM     26  C   UNL     1      -0.048   1.776   3.399  0.00  0.00    +0.038 A 
ATOM     27  C   UNL     1       0.282   1.936   2.064  0.00  0.00    +0.127 A 
ATOM     28  F   UNL     1       1.552   1.733   1.652  0.00  0.00    -0.205 F 
ENDBRANCH  21  22
ENDBRANCH  20  21
ENDBRANCH  15  20
ENDBRANCH   1  16
BRANCH  11  29
ATOM     29  C   UNL     1      -6.388  -4.760  -2.219  0.00  0.00    +0.256 C 
ATOM     30  C   UNL     1      -5.590  -5.633  -3.188  0.00  0.00    +0.062 C 
BRANCH  29  31
ATOM     31  O   UNL     1      -7.389  -5.553  -1.577  0.00  0.00    -0.480 OA
BRANCH  31  32
ATOM     32  C   UNL     1      -8.566  -5.714  -2.237  0.00  0.00    +0.122 A 
ATOM     33  C   UNL     1      -9.625  -6.365  -1.621  0.00  0.00    +0.045 A 
ATOM     34  C   UNL     1     -10.820  -6.527  -2.294  0.00  0.00    +0.004 A 
ATOM     35  C   UNL     1     -10.962  -6.042  -3.581  0.00  0.00    +0.000 A 
ATOM     36  C   UNL     1      -9.908  -5.393  -4.198  0.00  0.00    +0.004 A 
ATOM     37  C   UNL     1      -8.713  -5.223  -3.527  0.00  0.00    +0.045 A 
ENDBRANCH  31  32
ENDBRANCH  29  31
ENDBRANCH  11  29
TORSDOF 7
