REMARK  Name = ZINC22053364
REMARK  9 active torsions:
REMARK  status: ('A' for Active; 'I' for Inactive)
REMARK    1  A    between atoms: C_1  and  C_2
REMARK    2  A    between atoms: C_2  and  C_3
REMARK    3  A    between atoms: C_3  and  C_4
REMARK    4  A    between atoms: C_7  and  S_10
REMARK    5  A    between atoms: S_10  and  N_13
REMARK    6  A    between atoms: N_16  and  C_19
REMARK    7  A    between atoms: C_19  and  C_21
REMARK    8  A    between atoms: C_19  and  C_22
REMARK    9  A    between atoms: C_30  and  N_32
REMARK                            x       y       z     vdW  Elec       q    Type
REMARK                         _______ _______ _______ _____ _____    ______ ____
ROOT
ATOM      1  C   UNL     1       3.427  -9.952  -0.185  0.00  0.00    +0.120 C 
ATOM      2  C   UNL     1       4.430 -10.017  -1.339  0.00  0.00    +0.032 C 
ENDROOT
BRANCH   1   3
ATOM      3  C   UNL     1       4.164 -10.035   1.127  0.00  0.00    +0.127 A 
ATOM      4  N   UNL     1       4.466 -11.221   1.601  0.00  0.00    -0.342 N 
ATOM      5  C   UNL     1       5.121 -11.341   2.765  0.00  0.00    +0.051 A 
ATOM      6  C   UNL     1       5.460 -12.590   3.301  0.00  0.00    +0.026 A 
ATOM      7  C   UNL     1       6.127 -12.655   4.488  0.00  0.00    +0.002 A 
ATOM      8  C   UNL     1       6.477 -11.497   5.178  0.00  0.00    +0.001 A 
ATOM      9  C   UNL     1       6.163 -10.265   4.685  0.00  0.00    +0.013 A 
ATOM     10  C   UNL     1       5.479 -10.165   3.468  0.00  0.00    +0.038 A 
ATOM     11  C   UNL     1       5.126  -8.914   2.905  0.00  0.00    +0.133 A 
ATOM     12  N   UNL     1       4.482  -8.910   1.745  0.00  0.00    -0.217 NA
ATOM     13  H   UNL     1       4.213 -12.016   1.106  0.00  0.00    +0.167 HD
BRANCH  11  14
ATOM     14  N   UNL     1       5.446  -7.734   3.542  0.00  0.00    -0.310 N 
ATOM     15  C   UNL     1       6.721  -7.050   3.272  0.00  0.00    +0.134 C 
ATOM     16  C   UNL     1       6.422  -5.580   2.954  0.00  0.00    +0.178 C 
ATOM     17  O   UNL     1       5.613  -5.028   3.995  0.00  0.00    -0.377 OA
ATOM     18  C   UNL     1       4.332  -5.649   4.132  0.00  0.00    +0.178 C 
ATOM     19  C   UNL     1       4.521  -7.119   4.506  0.00  0.00    +0.134 C 
ENDBRANCH  11  14
ENDBRANCH   1   3
BRANCH   1  23
ATOM     20  N   UNL     1       0.545  -6.910  -0.421  0.00  0.00    -0.174 NA
ATOM     21  C   UNL     1       1.347  -7.166  -1.628  0.00  0.00    +0.125 C 
ATOM     22  C   UNL     1       1.954  -8.568  -1.520  0.00  0.00    +0.102 C 
ATOM     23  N   UNL     1       2.687  -8.685  -0.252  0.00  0.00    -0.290 NA
ATOM     24  C   UNL     1       1.785  -8.541   0.899  0.00  0.00    +0.102 C 
ATOM     25  C   UNL     1       1.172  -7.131   0.890  0.00  0.00    +0.125 C 
BRANCH  20  26
ATOM     26  S   UNL     1      -1.019  -6.378  -0.537  0.00  0.00    +0.061 S 
ATOM     27  O   UNL     1      -1.664  -6.750   0.673  0.00  0.00    -0.153 OA
ATOM     28  O   UNL     1      -1.494  -6.790  -1.811  0.00  0.00    -0.153 OA
BRANCH  26  32
ATOM     29  C   UNL     1      -0.897  -1.854  -0.601  0.00  0.00    -0.047 A 
ATOM     30  C   UNL     1      -0.833  -2.564  -1.785  0.00  0.00    +0.005 A 
ATOM     31  C   UNL     1      -0.870  -3.945  -1.765  0.00  0.00    +0.029 A 
ATOM     32  C   UNL     1      -0.971  -4.617  -0.561  0.00  0.00    +0.105 A 
ATOM     33  C   UNL     1      -1.034  -3.907   0.623  0.00  0.00    +0.029 A 
ATOM     34  C   UNL     1      -0.993  -2.526   0.604  0.00  0.00    +0.005 A 
BRANCH  29  35
ATOM     35  C   UNL     1      -0.857  -0.347  -0.622  0.00  0.00    +0.035 C 
BRANCH  35  37
ATOM     36  C   UNL     1       0.636   1.654  -0.557  0.00  0.00    +0.004 C 
ATOM     37  C   UNL     1       0.596   0.125  -0.536  0.00  0.00    +0.001 C 
ENDBRANCH  35  37
ENDBRANCH  29  35
ENDBRANCH  26  32
ENDBRANCH  20  26
ENDBRANCH   1  23
TORSDOF 7
