REMARK  Name = ZINC15006839
REMARK  8 active torsions:
REMARK  status: ('A' for Active; 'I' for Inactive)
REMARK    1  A    between atoms: C_1  and  C_2
REMARK    2  A    between atoms: C_7  and  C_9
REMARK    3  A    between atoms: C_7  and  C_10
REMARK    4  A    between atoms: N_11  and  C_13
REMARK    5  A    between atoms: C_13  and  C_14
REMARK    6  A    between atoms: C_18  and  C_21
REMARK    7  A    between atoms: N_23  and  C_24
REMARK    8  A    between atoms: C_24  and  C_25
REMARK                            x       y       z     vdW  Elec       q    Type
REMARK                         _______ _______ _______ _____ _____    ______ ____
ROOT
ATOM      1  C   UNL     1       1.357  -2.435  -3.410  0.00  0.00    +0.003 A 
ATOM      2  N   UNL     1       0.690  -2.092  -4.538  0.00  0.00    -0.327 N 
ATOM      3  C   UNL     1       1.351  -1.730  -5.653  0.00  0.00    +0.261 A 
ATOM      4  O   UNL     1       0.733  -1.425  -6.658  0.00  0.00    -0.267 OA
ATOM      5  C   UNL     1       2.770  -1.704  -5.654  0.00  0.00    +0.101 A 
ATOM      6  C   UNL     1       3.449  -2.058  -4.490  0.00  0.00    +0.020 A 
ATOM      7  C   UNL     1       2.713  -2.420  -3.362  0.00  0.00    +0.020 A 
ATOM      8  H   UNL     1      -0.280  -2.108  -4.542  0.00  0.00    +0.169 HD
ENDROOT
BRANCH   5   9
ATOM      9  C   UNL     1       3.510  -1.312  -6.863  0.00  0.00    +0.249 C 
ATOM     10  O   UNL     1       4.720  -1.190  -6.823  0.00  0.00    -0.270 OA
ATOM     11  N   UNL     1       2.848  -1.086  -8.015  0.00  0.00    -0.311 N 
ATOM     12  H   UNL     1       1.879  -1.111  -8.030  0.00  0.00    +0.149 HD
BRANCH  11  13
ATOM     13  C   UNL     1       3.593  -0.805  -9.245  0.00  0.00    +0.108 C 
BRANCH  13  14
ATOM     14  C   UNL     1       2.611  -0.589 -10.398  0.00  0.00    +0.012 C 
ATOM     15  C   UNL     1       1.852  -1.889 -10.673  0.00  0.00    -0.006 C 
ATOM     16  C   UNL     1       0.870  -1.672 -11.826  0.00  0.00    +0.007 C 
ATOM     17  C   UNL     1       1.641  -1.256 -13.081  0.00  0.00    -0.010 C 
ATOM     18  C   UNL     1       2.634  -2.357 -13.457  0.00  0.00    +0.007 C 
ATOM     19  C   UNL     1       3.617  -2.573 -12.304  0.00  0.00    -0.010 C 
ATOM     20  C   UNL     1       2.846  -2.989 -11.049  0.00  0.00    +0.007 C 
ATOM     21  C   UNL     1       4.375  -1.273 -12.029  0.00  0.00    +0.007 C 
ATOM     22  C   UNL     1       3.381  -0.173 -11.653  0.00  0.00    -0.006 C 
ATOM     23  C   UNL     1       2.399   0.044 -12.806  0.00  0.00    +0.007 C 
ENDBRANCH  13  14
ENDBRANCH  11  13
ENDBRANCH   5   9
BRANCH   1  24
ATOM     24  C   UNL     1       0.578  -2.835  -2.183  0.00  0.00    -0.024 C 
BRANCH  24  34
ATOM     25  C   UNL     1       0.037   1.512   0.047  0.00  0.00    +0.009 C 
ATOM     26  C   UNL     1       0.041  -0.024   0.026  0.00  0.00    -0.048 C 
ATOM     27  C   UNL     1      -1.393  -0.620   0.027  0.00  0.00    -0.011 C 
ATOM     28  C   UNL     1      -1.085  -2.021  -0.573  0.00  0.00    -0.067 C 
ATOM     29  C   UNL     1      -0.385  -2.837   0.495  0.00  0.00    -0.009 C 
ATOM     30  C   UNL     1       0.676  -2.139   1.317  0.00  0.00    -0.036 C 
ATOM     31  C   UNL     1       0.764  -0.629   1.230  0.00  0.00    +0.011 C 
ATOM     32  C   UNL     1       2.054  -2.742   0.984  0.00  0.00    +0.011 C 
ATOM     33  C   UNL     1       0.406  -2.491   2.803  0.00  0.00    +0.011 C 
ATOM     34  N   UNL     1      -0.196  -1.695  -1.706  0.00  0.00    +0.386 N 
ATOM     35  C   UNL     1       0.678  -0.592  -1.263  0.00  0.00    -0.071 C 
ATOM     36  H   UNL     1      -0.773  -1.349  -2.476  0.00  0.00    -0.081 HD
ENDBRANCH  24  34
ENDBRANCH   1  24
TORSDOF 5
