REMARK  Name = ZINC01213132
REMARK  6 active torsions:
REMARK  status: ('A' for Active; 'I' for Inactive)
REMARK    1  A    between atoms: C_1  and  C_2
REMARK    2  A    between atoms: C_3  and  C_24
REMARK    3  A    between atoms: C_4  and  C_14
REMARK    4  A    between atoms: C_16  and  N_21
REMARK    5  A    between atoms: C_24  and  O_26
REMARK    6  A    between atoms: O_26  and  C_27
REMARK                            x       y       z     vdW  Elec       q    Type
REMARK                         _______ _______ _______ _____ _____    ______ ____
ROOT
ATOM      1  C   UNL     1       4.589   2.882   3.770  0.00  0.00    +0.061 C 
ATOM      2  C   UNL     1       3.707   1.914   3.024  0.00  0.00    +0.016 C 
ATOM      3  C   UNL     1       3.446   0.706   3.553  0.00  0.00    +0.065 C 
ATOM      4  C   UNL     1       2.577  -0.285   2.836  0.00  0.00    +0.094 C 
ATOM      5  C   UNL     1       1.752   0.391   1.769  0.00  0.00    +0.024 C 
ATOM      6  C   UNL     1       2.090   1.614   1.308  0.00  0.00    +0.015 C 
ATOM      7  N   UNL     1       3.178   2.271   1.815  0.00  0.00    -0.321 N 
ATOM      8  C   UNL     1       1.283   2.285   0.224  0.00  0.00    +0.051 C 
ATOM      9  C   UNL     1      -0.181   1.852   0.331  0.00  0.00    +0.014 C 
ATOM     10  C   UNL     1      -0.246   0.326   0.209  0.00  0.00    +0.080 C 
ATOM     11  C   UNL     1       0.628  -0.289   1.268  0.00  0.00    +0.162 C 
ATOM     12  O   UNL     1       0.357  -1.393   1.698  0.00  0.00    -0.292 OA
ATOM     13  H   UNL     1       3.627   3.094   1.240  0.00  0.00    +0.152 HD
ENDROOT
BRANCH   4  14
ATOM     14  C   UNL     1       3.448  -1.335   2.196  0.00  0.00    -0.015 A 
ATOM     15  C   UNL     1       4.371  -0.974   1.232  0.00  0.00    +0.038 A 
ATOM     16  C   UNL     1       5.171  -1.937   0.646  0.00  0.00    +0.127 A 
ATOM     17  C   UNL     1       5.048  -3.262   1.023  0.00  0.00    +0.034 A 
ATOM     18  C   UNL     1       4.126  -3.624   1.986  0.00  0.00    +0.022 A 
ATOM     19  C   UNL     1       3.329  -2.659   2.577  0.00  0.00    +0.045 A 
ATOM     20 CL   UNL     1       2.175  -3.112   3.792  0.00  0.00    -0.083 Cl
BRANCH  16  21
ATOM     21  N   UNL     1       6.159  -1.550  -0.386  0.00  0.00    +0.056 N 
ATOM     22  O   UNL     1       6.267  -0.383  -0.719  0.00  0.00    -0.126 OA
ATOM     23  O   UNL     1       6.864  -2.398  -0.903  0.00  0.00    -0.126 OA
ENDBRANCH  16  21
ENDBRANCH   4  14
BRANCH   3  24
ATOM     24  C   UNL     1       4.000   0.363   4.808  0.00  0.00    +0.338 C 
ATOM     25  O   UNL     1       3.294   0.340   5.799  0.00  0.00    -0.245 OA
BRANCH  24  26
ATOM     26  O   UNL     1       5.312   0.061   4.906  0.00  0.00    -0.458 OA
BRANCH  26  27
ATOM     27  C   UNL     1       5.804  -0.276   6.204  0.00  0.00    +0.177 C 
ATOM     28  C   UNL     1       6.281   0.992   6.915  0.00  0.00    +0.044 C 
ATOM     29  C   UNL     1       6.808   0.631   8.305  0.00  0.00    +0.004 C 
ATOM     30  C   UNL     1       7.977  -0.347   8.169  0.00  0.00    +0.000 C 
ATOM     31  C   UNL     1       7.500  -1.616   7.458  0.00  0.00    +0.004 C 
ATOM     32  C   UNL     1       6.973  -1.254   6.068  0.00  0.00    +0.044 C 
ENDBRANCH  26  27
ENDBRANCH  24  26
ENDBRANCH   3  24
TORSDOF 5
