REMARK  Name = ZINC27708440
REMARK  8 active torsions:
REMARK  status: ('A' for Active; 'I' for Inactive)
REMARK    1  A    between atoms: C_5  and  C_7
REMARK    2  A    between atoms: N_11  and  C_15
REMARK    3  A    between atoms: C_15  and  C_16
REMARK    4  A    between atoms: C_16  and  N_17
REMARK    5  A    between atoms: C_18  and  C_20
REMARK    6  A    between atoms: C_25  and  O_26
REMARK    7  A    between atoms: O_26  and  C_27
REMARK    8  A    between atoms: C_27  and  C_28
REMARK                            x       y       z     vdW  Elec       q    Type
REMARK                         _______ _______ _______ _____ _____    ______ ____
ROOT
ATOM      1  C   UNL     1      -4.770   0.426   0.253  0.00  0.00    +0.124 C 
ENDROOT
BRANCH   1   2
ATOM      2  N   UNL     1      -3.451  -0.211   0.256  0.00  0.00    -0.310 N 
ATOM      3  C   UNL     1      -2.339   0.544   0.361  0.00  0.00    +0.248 C 
ATOM      4  O   UNL     1      -2.431   1.753   0.452  0.00  0.00    -0.270 OA
ATOM      5  H   UNL     1      -3.368  -1.304   0.173  0.00  0.00    +0.149 HD
BRANCH   3   6
ATOM      6  C   UNL     1      -1.010  -0.097   0.364  0.00  0.00    +0.078 A 
ATOM      7  C   UNL     1      -0.900  -1.486   0.259  0.00  0.00    +0.017 A 
ATOM      8  C   UNL     1       0.344  -2.078   0.264  0.00  0.00    +0.001 A 
ATOM      9  C   UNL     1       1.487  -1.303   0.371  0.00  0.00    +0.004 A 
ATOM     10  C   UNL     1       1.393   0.071   0.469  0.00  0.00    +0.046 A 
ATOM     11  C   UNL     1       0.148   0.684   0.473  0.00  0.00    +0.133 A 
BRANCH  11  12
ATOM     12  O   UNL     1       0.054   2.033   0.575  0.00  0.00    -0.489 OA
BRANCH  12  13
ATOM     13  C   UNL     1       1.278   2.763   0.682  0.00  0.00    +0.260 C 
BRANCH  13  14
ATOM     14  C   UNL     1       0.972   4.258   0.787  0.00  0.00    +0.156 C 
ATOM     15  C   UNL     1       2.276   5.045   1.021  0.00  0.00    +0.037 C 
ATOM     16  C   UNL     1       2.346   6.029  -0.172  0.00  0.00    +0.031 C 
ATOM     17  C   UNL     1       0.867   6.084  -0.633  0.00  0.00    +0.160 C 
ATOM     18  O   UNL     1       0.401   4.729  -0.446  0.00  0.00    -0.373 OA
ENDBRANCH  13  14
ENDBRANCH  12  13
ENDBRANCH  11  12
ENDBRANCH   3   6
ENDBRANCH   1   2
BRANCH   1  19
ATOM     19  C   UNL     1      -5.854  -0.647   0.124  0.00  0.00    +0.136 C 
BRANCH  19  24
ATOM     20  C   UNL     1      -9.991   1.143   2.196  0.00  0.00    +0.031 C 
ATOM     21  C   UNL     1      -9.129   0.826   1.197  0.00  0.00    +0.080 C 
ATOM     22  C   UNL     1      -7.804   0.175   1.268  0.00  0.00    +0.260 C 
ATOM     23  O   UNL     1      -7.316  -0.169   2.329  0.00  0.00    -0.269 OA
ATOM     24  N   UNL     1      -7.173  -0.011   0.121  0.00  0.00    -0.227 N 
ATOM     25  C   UNL     1      -7.719   0.368  -1.053  0.00  0.00    +0.286 C 
ATOM     26  O   UNL     1      -7.257   0.255  -2.172  0.00  0.00    -0.262 OA
ATOM     27  S   UNL     1      -9.285   1.074  -0.566  0.00  0.00    -0.026 S 
BRANCH  20  32
ATOM     28  C   UNL     1     -12.412   3.411   0.451  0.00  0.00    +0.001 A 
ATOM     29  C   UNL     1     -13.465   3.425   1.351  0.00  0.00    +0.003 A 
ATOM     30  C   UNL     1     -13.390   2.698   2.526  0.00  0.00    +0.039 A 
ATOM     31  C   UNL     1     -12.263   1.952   2.810  0.00  0.00    +0.131 A 
ATOM     32  C   UNL     1     -11.194   1.933   1.903  0.00  0.00    +0.011 A 
ATOM     33  C   UNL     1     -11.278   2.677   0.720  0.00  0.00    +0.011 A 
ATOM     34  F   UNL     1     -12.191   1.243   3.958  0.00  0.00    -0.205 F 
ENDBRANCH  20  32
ENDBRANCH  19  24
ENDBRANCH   1  19
TORSDOF 8
