REMARK  Name = ZINC00709748
REMARK  6 active torsions:
REMARK  status: ('A' for Active; 'I' for Inactive)
REMARK    1  A    between atoms: C_1  and  O_2
REMARK    2  A    between atoms: O_2  and  C_3
REMARK    3  A    between atoms: C_6  and  C_11
REMARK    4  A    between atoms: C_8  and  O_9
REMARK    5  A    between atoms: O_9  and  C_10
REMARK    6  A    between atoms: C_16  and  C_26
REMARK                            x       y       z     vdW  Elec       q    Type
REMARK                         _______ _______ _______ _____ _____    ______ ____
ROOT
ATOM      1  C   UNL     1      -2.379   0.775   0.618  0.00  0.00    +0.032 C 
ATOM      2  C   UNL     1      -2.371   0.006  -0.702  0.00  0.00    +0.059 C 
ATOM      3  C   UNL     1      -3.696  -0.712  -0.894  0.00  0.00    +0.017 C 
ATOM      4  C   UNL     1      -4.385  -1.169   0.166  0.00  0.00    +0.036 C 
ATOM      5  C   UNL     1      -5.700  -1.907   0.116  0.00  0.00    +0.136 C 
ATOM      6  N   UNL     1      -6.095  -2.346  -1.205  0.00  0.00    -0.331 N 
ATOM      7  C   UNL     1      -6.384  -1.425  -2.210  0.00  0.00    +0.049 A 
ATOM      8  C   UNL     1      -7.657  -1.314  -2.746  0.00  0.00    +0.025 A 
ATOM      9  C   UNL     1      -7.908  -0.351  -3.709  0.00  0.00    +0.002 A 
ATOM     10  C   UNL     1      -6.899   0.495  -4.132  0.00  0.00    +0.002 A 
ATOM     11  C   UNL     1      -5.622   0.374  -3.611  0.00  0.00    +0.025 A 
ATOM     12  C   UNL     1      -5.365  -0.602  -2.665  0.00  0.00    +0.052 A 
ATOM     13  N   UNL     1      -4.085  -0.854  -2.186  0.00  0.00    -0.316 N 
ATOM     14  C   UNL     1      -3.889  -0.970   1.477  0.00  0.00    +0.163 C 
ATOM     15  O   UNL     1      -4.523  -1.409   2.416  0.00  0.00    -0.292 OA
ATOM     16  C   UNL     1      -2.608  -0.238   1.746  0.00  0.00    +0.088 C 
ATOM     17  H   UNL     1      -6.158  -3.296  -1.394  0.00  0.00    +0.147 HD
ATOM     18  H   UNL     1      -3.418  -1.154  -2.825  0.00  0.00    +0.152 HD
ENDROOT
BRANCH   5  19
ATOM     19  C   UNL     1      -6.776  -1.001   0.658  0.00  0.00    -0.020 A 
ATOM     20  C   UNL     1      -7.080   0.178   0.004  0.00  0.00    +0.009 A 
ATOM     21  C   UNL     1      -8.070   1.008   0.496  0.00  0.00    +0.041 A 
ATOM     22  C   UNL     1      -8.751   0.663   1.651  0.00  0.00    +0.158 A 
ATOM     23  C   UNL     1      -8.442  -0.517   2.310  0.00  0.00    +0.159 A 
ATOM     24  C   UNL     1      -7.454  -1.348   1.812  0.00  0.00    +0.047 A 
ATOM     25  F   UNL     1      -9.105  -0.856   3.438  0.00  0.00    -0.202 F 
ATOM     26  F   UNL     1      -9.716   1.476   2.136  0.00  0.00    -0.202 F 
ENDBRANCH   5  19
BRANCH   1  30
ATOM     27  C   UNL     1       1.381   2.735   1.170  0.00  0.00    +0.161 A 
ATOM     28  C   UNL     1       1.330   1.360   1.012  0.00  0.00    +0.049 A 
ATOM     29  C   UNL     1       0.113   0.729   0.837  0.00  0.00    +0.008 A 
ATOM     30  C   UNL     1      -1.055   1.468   0.815  0.00  0.00    -0.040 A 
ATOM     31  C   UNL     1      -1.012   2.840   0.977  0.00  0.00    +0.053 A 
ATOM     32  C   UNL     1       0.205   3.478   1.153  0.00  0.00    +0.162 A 
BRANCH  27  34
ATOM     33  C   UNL     1       3.744   2.531   1.348  0.00  0.00    +0.277 C 
ATOM     34  O   UNL     1       2.578   3.358   1.342  0.00  0.00    -0.491 OA
ENDBRANCH  27  34
BRANCH  32  35
ATOM     35  O   UNL     1       0.249   4.829   1.308  0.00  0.00    -0.491 OA
ATOM     36  C   UNL     1      -0.997   5.527   1.280  0.00  0.00    +0.277 C 
ENDBRANCH  32  35
ENDBRANCH   1  30
TORSDOF 4
