REMARK  Name = ZINC32073963
REMARK  5 active torsions:
REMARK  status: ('A' for Active; 'I' for Inactive)
REMARK    1  A    between atoms: C_10  and  C_15
REMARK    2  A    between atoms: C_15  and  C_16
REMARK    3  A    between atoms: N_18  and  C_19
REMARK    4  A    between atoms: C_19  and  C_20
REMARK    5  A    between atoms: C_20  and  C_21
REMARK                            x       y       z     vdW  Elec       q    Type
REMARK                         _______ _______ _______ _____ _____    ______ ____
ROOT
ATOM      1  C   UNL     1      -0.017   1.370   0.010  0.00  0.00    +0.001 A 
ATOM      2  C   UNL     1       1.173   2.080   0.002  0.00  0.00    +0.002 A 
ATOM      3  C   UNL     1       2.377   1.413  -0.010  0.00  0.00    +0.024 A 
ATOM      4  C   UNL     1       2.418   0.016  -0.017  0.00  0.00    +0.046 A 
ATOM      5  C   UNL     1       1.222  -0.701  -0.013  0.00  0.00    +0.058 A 
ATOM      6  C   UNL     1       0.002  -0.004   0.002  0.00  0.00    +0.015 A 
ATOM      7  C   UNL     1       1.166  -2.168  -0.030  0.00  0.00    +0.246 C 
ATOM      8  O   UNL     1       0.328  -2.710   0.664  0.00  0.00    -0.270 OA
ATOM      9  N   UNL     1       1.970  -2.945  -0.753  0.00  0.00    -0.300 N 
ATOM     10  C   UNL     1       3.019  -2.380  -1.602  0.00  0.00    +0.168 C 
ATOM     11  C   UNL     1       4.008  -1.651  -0.734  0.00  0.00    +0.238 C 
ATOM     12  O   UNL     1       5.152  -2.051  -0.683  0.00  0.00    -0.273 OA
ATOM     13  N   UNL     1       3.665  -0.582  -0.023  0.00  0.00    -0.283 N 
ATOM     14  H   UNL     1       1.859  -3.908  -0.715  0.00  0.00    +0.150 HD
ATOM     15  H   UNL     1       4.349  -0.188   0.541  0.00  0.00    +0.155 HD
ENDROOT
BRANCH  10  16
ATOM     16  C   UNL     1       2.397  -1.405  -2.604  0.00  0.00    +0.127 C 
BRANCH  16  17
ATOM     17  C   UNL     1       1.489  -2.159  -3.541  0.00  0.00    +0.215 C 
ATOM     18  O   UNL     1       1.353  -3.358  -3.420  0.00  0.00    -0.276 OA
ATOM     19  N   UNL     1       0.828  -1.501  -4.514  0.00  0.00    -0.315 N 
ATOM     20  H   UNL     1       0.937  -0.542  -4.612  0.00  0.00    +0.149 HD
BRANCH  19  21
ATOM     21  C   UNL     1      -0.054  -2.235  -5.426  0.00  0.00    +0.108 C 
BRANCH  21  22
ATOM     22  C   UNL     1      -0.676  -1.260  -6.428  0.00  0.00    +0.049 C 
BRANCH  22  23
ATOM     23  C   UNL     1      -1.584  -2.014  -7.365  0.00  0.00    -0.072 C 
ATOM     24  C   UNL     1      -2.846  -2.058  -7.083  0.00  0.00    -0.028 C 
ATOM     25  C   UNL     1      -3.869  -2.777  -7.913  0.00  0.00    +0.027 C 
ATOM     26  C   UNL     1      -3.307  -3.067  -9.307  0.00  0.00    +0.004 C 
ATOM     27  C   UNL     1      -1.924  -3.711  -9.148  0.00  0.00    +0.005 C 
ATOM     28  C   UNL     1      -0.968  -2.663  -8.570  0.00  0.00    +0.030 C 
ENDBRANCH  22  23
ENDBRANCH  21  22
ENDBRANCH  19  21
ENDBRANCH  16  17
ENDBRANCH  10  16
TORSDOF 5
