REMARK  Name = ZINC12476837
REMARK  13 active torsions:
REMARK  status: ('A' for Active; 'I' for Inactive)
REMARK    1  A    between atoms: C_1  and  C_2
REMARK    2  A    between atoms: C_5  and  C_8
REMARK    3  A    between atoms: C_8  and  C_10
REMARK    4  A    between atoms: C_8  and  N_17
REMARK    5  A    between atoms: N_12  and  C_13
REMARK    6  A    between atoms: C_13  and  C_14
REMARK    7  A    between atoms: C_13  and  C_15
REMARK    8  A    between atoms: C_13  and  C_16
REMARK    9  A    between atoms: N_17  and  C_18
REMARK   10  A    between atoms: C_18  and  C_19
REMARK   11  A    between atoms: C_25  and  C_27
REMARK   12  A    between atoms: C_30  and  C_32
REMARK   13  A    between atoms: C_32  and  N_75
REMARK                            x       y       z     vdW  Elec       q    Type
REMARK                         _______ _______ _______ _____ _____    ______ ____
ROOT
ATOM      1  N   UNL     1      -0.570  -4.610  -1.476  0.00  0.00    -0.277 N 
ATOM      2  C   UNL     1      -1.366  -5.674  -1.250  0.00  0.00    +0.283 C 
ATOM      3  O   UNL     1      -1.685  -5.964  -0.112  0.00  0.00    -0.267 OA
ENDROOT
BRANCH   2   4
ATOM      4  C   UNL     1      -1.846  -6.483  -2.375  0.00  0.00    +0.190 A 
ATOM      5  C   UNL     1      -2.529  -7.662  -2.282  0.00  0.00    +0.055 A 
ATOM      6  C   UNL     1      -2.788  -8.083  -3.596  0.00  0.00    +0.043 A 
ATOM      7  C   UNL     1      -2.252  -7.158  -4.423  0.00  0.00    +0.090 A 
ATOM      8  O   UNL     1      -1.686  -6.196  -3.683  0.00  0.00    -0.457 OA
BRANCH   7   9
ATOM      9  C   UNL     1      -2.287  -7.202  -5.929  0.00  0.00    -0.003 C 
BRANCH   9  15
ATOM     10  C   UNL     1      -4.707  -7.250  -6.018  0.00  0.00    -0.050 C 
ATOM     11  C   UNL     1      -5.940  -6.473  -6.488  0.00  0.00    +0.141 C 
ATOM     12  O   UNL     1      -5.862  -6.275  -7.902  0.00  0.00    -0.383 OA
ATOM     13  C   UNL     1      -4.693  -5.564  -8.320  0.00  0.00    +0.141 C 
ATOM     14  C   UNL     1      -3.447  -6.332  -7.868  0.00  0.00    -0.050 C 
ATOM     15  N   UNL     1      -3.497  -6.493  -6.400  0.00  0.00    +0.387 N 
ATOM     16  H   UNL     1      -3.531  -5.565  -5.962  0.00  0.00    -0.081 HD
ENDBRANCH   9  15
ENDBRANCH   7   9
ENDBRANCH   2   4
BRANCH   1  17
ATOM     17  C   UNL     1      -0.169  -3.745  -0.364  0.00  0.00    +0.193 C 
BRANCH  17  22
ATOM     18  C   UNL     1      -3.356   1.075  -0.425  0.00  0.00    +0.044 C 
ATOM     19  C   UNL     1      -2.525  -0.182  -0.409  0.00  0.00    -0.050 A 
ATOM     20  C   UNL     1      -1.965  -0.655  -1.581  0.00  0.00    +0.004 A 
ATOM     21  C   UNL     1      -1.198  -1.806  -1.565  0.00  0.00    +0.006 A 
ATOM     22  C   UNL     1      -1.000  -2.488  -0.380  0.00  0.00    -0.018 A 
ATOM     23  C   UNL     1      -1.565  -2.018   0.791  0.00  0.00    +0.006 A 
ATOM     24  C   UNL     1      -2.327  -0.865   0.776  0.00  0.00    +0.004 A 
ENDBRANCH  17  22
BRANCH  17  25
ATOM     25  C   UNL     1       1.287  -3.386  -0.506  0.00  0.00    +0.238 C 
ATOM     26  O   UNL     1       1.870  -3.617  -1.544  0.00  0.00    -0.273 OA
ATOM     27  N   UNL     1       1.942  -2.809   0.521  0.00  0.00    -0.309 N 
ATOM     28  H   UNL     1       1.498  -2.691   1.375  0.00  0.00    +0.149 HD
BRANCH  27  29
ATOM     29  C   UNL     1       3.326  -2.359   0.346  0.00  0.00    +0.026 C 
ATOM     30  C   UNL     1       3.406  -1.410  -0.851  0.00  0.00    +0.031 C 
ATOM     31  C   UNL     1       3.787  -1.627   1.609  0.00  0.00    +0.031 C 
ATOM     32  C   UNL     1       4.229  -3.569   0.100  0.00  0.00    +0.031 C 
ENDBRANCH  27  29
ENDBRANCH  17  25
ENDBRANCH   1  17
BRANCH   1  33
ATOM     33  C   UNL     1      -0.106  -4.318  -2.835  0.00  0.00    +0.140 C 
BRANCH  33  34
ATOM     34  C   UNL     1       0.846  -5.423  -3.297  0.00  0.00    +0.136 C 
ATOM     35  C   UNL     1       1.539  -5.004  -4.608  0.00  0.00    +0.035 C 
ATOM     36  C   UNL     1       3.049  -5.043  -4.269  0.00  0.00    +0.031 C 
ATOM     37  C   UNL     1       3.079  -5.976  -3.031  0.00  0.00    +0.160 C 
ATOM     38  O   UNL     1       1.876  -5.624  -2.315  0.00  0.00    -0.375 OA
ENDBRANCH  33  34
ENDBRANCH   1  33
TORSDOF 9
