REMARK  Name = ZINC41761663
REMARK  6 active torsions:
REMARK  status: ('A' for Active; 'I' for Inactive)
REMARK    1  A    between atoms: C_1  and  C_2
REMARK    2  A    between atoms: C_8  and  N_10
REMARK    3  A    between atoms: N_10  and  C_11
REMARK    4  A    between atoms: C_11  and  C_12
REMARK    5  A    between atoms: C_11  and  C_13
REMARK    6  A    between atoms: C_11  and  C_21
REMARK                            x       y       z     vdW  Elec       q    Type
REMARK                         _______ _______ _______ _____ _____    ______ ____
ROOT
ATOM      1  C   UNL     1       2.831  -0.489   2.421  0.00  0.00    +0.060 C 
ATOM      2  C   UNL     1       2.760  -1.999   2.184  0.00  0.00    +0.007 C 
ENDROOT
BRANCH   1   3
ATOM      3  C   UNL     1       4.267  -0.037   2.353  0.00  0.00    -0.028 A 
ATOM      4  C   UNL     1       4.663   0.861   1.380  0.00  0.00    +0.024 A 
ATOM      5  C   UNL     1       5.981   1.276   1.317  0.00  0.00    +0.041 A 
ATOM      6  C   UNL     1       6.903   0.793   2.229  0.00  0.00    +0.021 A 
ATOM      7  C   UNL     1       6.506  -0.104   3.202  0.00  0.00    +0.021 A 
ATOM      8  C   UNL     1       5.187  -0.515   3.268  0.00  0.00    +0.043 A 
ATOM      9 CL   UNL     1       4.688  -1.638   4.495  0.00  0.00    -0.083 Cl
ATOM     10 CL   UNL     1       6.479   2.404   0.094  0.00  0.00    -0.084 Cl
ENDBRANCH   1   3
BRANCH   1  11
ATOM     11  N   UNL     1       2.049   0.206   1.390  0.00  0.00    +0.395 N 
ATOM     12  H   UNL     1       2.504   0.102   0.496  0.00  0.00    -0.083 HD
ATOM     13  H   UNL     1       1.982   1.186   1.622  0.00  0.00    -0.083 HD
BRANCH  11  20
ATOM     14  C   UNL     1      -0.139   1.703   0.218  0.00  0.00    +0.006 C 
ATOM     15  C   UNL     1      -0.034   0.181   0.102  0.00  0.00    -0.028 C 
ATOM     16  C   UNL     1      -1.438  -0.423   0.033  0.00  0.00    +0.002 C 
ATOM     17  C   UNL     1      -2.212  -0.060   1.302  0.00  0.00    +0.000 C 
ATOM     18  C   UNL     1      -1.477  -0.616   2.523  0.00  0.00    -0.002 C 
ATOM     19  C   UNL     1      -0.073  -0.012   2.592  0.00  0.00    -0.015 C 
ATOM     20  C   UNL     1       0.701  -0.374   1.324  0.00  0.00    -0.067 C 
ENDBRANCH  11  20
ENDBRANCH   1  11
BRANCH   1  21
ATOM     21  C   UNL     1       2.267  -0.167   3.781  0.00  0.00    +0.349 C 
ATOM     22  O   UNL     1       2.074  -1.061   4.588  0.00  0.00    -0.248 OA
ATOM     23  O   UNL     1       2.003   0.986   4.074  0.00  0.00    -0.248 OA
ENDBRANCH   1  21
TORSDOF 4
