REMARK  Name = ZINC21686825
REMARK  7 active torsions:
REMARK  status: ('A' for Active; 'I' for Inactive)
REMARK    1  A    between atoms: C_1  and  C_2
REMARK    2  A    between atoms: C_4  and  C_29
REMARK    3  A    between atoms: C_12  and  N_17
REMARK    4  A    between atoms: C_14  and  C_16
REMARK    5  A    between atoms: C_18  and  C_20
REMARK    6  A    between atoms: C_20  and  S_21
REMARK    7  A    between atoms: S_21  and  C_22
REMARK                            x       y       z     vdW  Elec       q    Type
REMARK                         _______ _______ _______ _____ _____    ______ ____
ROOT
ATOM      1  C   UNL     1       1.512  -9.729  -0.112  0.00  0.00    +0.044 C 
ATOM      2  C   UNL     1       0.352  -8.767  -0.087  0.00  0.00    -0.049 A 
ATOM      3  C   UNL     1      -0.952  -9.243  -0.076  0.00  0.00    +0.009 A 
ATOM      4  C   UNL     1      -2.025  -8.391  -0.055  0.00  0.00    -0.024 A 
ATOM      5  C   UNL     1      -1.835  -6.989  -0.042  0.00  0.00    +0.083 A 
ATOM      6  C   UNL     1      -0.493  -6.542  -0.053  0.00  0.00    +0.042 A 
ATOM      7  C   UNL     1       0.575  -7.403  -0.075  0.00  0.00    +0.020 A 
ATOM      8  S   UNL     1      -0.685  -4.775  -0.040  0.00  0.00    -0.048 S 
ATOM      9  C   UNL     1      -2.472  -4.744  -0.012  0.00  0.00    +0.196 A 
ATOM     10  N   UNL     1      -2.774  -6.021  -0.021  0.00  0.00    -0.221 NA
ATOM     11  N   UNL     1      -3.324  -3.646   0.009  0.00  0.00    -0.194 N 
ATOM     12  C   UNL     1      -2.947  -2.336   0.018  0.00  0.00    +0.131 A 
ATOM     13  C   UNL     1      -4.083  -1.586   0.032  0.00  0.00    +0.068 A 
ATOM     14  C   UNL     1      -5.175  -2.460   0.038  0.00  0.00    +0.062 A 
ATOM     15  N   UNL     1      -4.724  -3.688   0.028  0.00  0.00    -0.168 NA
ATOM     16  C   UNL     1      -6.626  -2.054   0.053  0.00  0.00    +0.067 C 
ATOM     17  C   UNL     1      -3.423  -8.954  -0.043  0.00  0.00    +0.046 C 
ENDROOT
BRANCH  12  18
ATOM     18  N   UNL     1      -1.640  -1.854   0.008  0.00  0.00    -0.270 N 
ATOM     19  C   UNL     1      -1.412  -0.526   0.013  0.00  0.00    +0.228 C 
ATOM     20  O   UNL     1      -2.344   0.250   0.026  0.00  0.00    -0.275 OA
ATOM     21  H   UNL     1      -0.794  -2.557  -0.004  0.00  0.00    +0.156 HD
BRANCH  19  22
ATOM     22  C   UNL     1       0.002  -0.004   0.002  0.00  0.00    +0.170 C 
BRANCH  22  23
ATOM     23  S   UNL     1      -0.022   1.810   0.012  0.00  0.00    -0.116 S 
BRANCH  23  24
ATOM     24  C   UNL     1       1.681   2.259  -0.002  0.00  0.00    +0.008 A 
ATOM     25  C   UNL     1       2.661   1.274  -0.011  0.00  0.00    +0.016 A 
ATOM     26  C   UNL     1       3.995   1.629  -0.027  0.00  0.00    +0.021 A 
ATOM     27  C   UNL     1       4.357   2.965  -0.023  0.00  0.00    +0.041 A 
ATOM     28  C   UNL     1       3.384   3.949  -0.009  0.00  0.00    +0.021 A 
ATOM     29  C   UNL     1       2.047   3.600   0.002  0.00  0.00    +0.016 A 
ATOM     30 CL   UNL     1       6.036   3.408  -0.037  0.00  0.00    -0.084 Cl
ENDBRANCH  23  24
ENDBRANCH  22  23
ENDBRANCH  19  22
ENDBRANCH  12  18
TORSDOF 4
