REMARK  Name = ZINC54642938
REMARK  11 active torsions:
REMARK  status: ('A' for Active; 'I' for Inactive)
REMARK    1  A    between atoms: C_1  and  C_2
REMARK    2  A    between atoms: C_6  and  N_9
REMARK    3  A    between atoms: C_7  and  C_8
REMARK    4  A    between atoms: C_10  and  C_12
REMARK    5  A    between atoms: C_13  and  C_38
REMARK    6  A    between atoms: C_17  and  S_30
REMARK    7  A    between atoms: C_20  and  C_22
REMARK    8  A    between atoms: C_25  and  O_28
REMARK    9  A    between atoms: O_28  and  C_29
REMARK   10  A    between atoms: S_30  and  C_31
REMARK   11  A    between atoms: C_31  and  C_32
REMARK                            x       y       z     vdW  Elec       q    Type
REMARK                         _______ _______ _______ _____ _____    ______ ____
ROOT
ATOM      1  C   UNL     1       0.112  -5.037   3.493  0.00  0.00    +0.060 C 
ATOM      2  C   UNL     1       0.190  -6.368   3.347  0.00  0.00    +0.018 C 
ATOM      3  N   UNL     1       0.232  -7.221   4.422  0.00  0.00    -0.287 N 
ATOM      4  C   UNL     1       0.458  -6.662   5.673  0.00  0.00    +0.219 A 
ATOM      5  N   UNL     1       0.760  -7.234   6.806  0.00  0.00    -0.187 NA
ATOM      6  C   UNL     1       0.892  -6.300   7.759  0.00  0.00    +0.211 A 
ATOM      7  N   UNL     1       0.669  -5.115   7.231  0.00  0.00    -0.141 NA
ATOM      8  N   UNL     1       0.383  -5.325   5.883  0.00  0.00    -0.220 N 
ATOM      9  C   UNL     1       0.059  -4.360   4.837  0.00  0.00    +0.177 C 
ATOM     10  C   UNL     1       0.230  -6.946   1.956  0.00  0.00    +0.061 C 
ATOM     11  H   UNL     1       0.109  -8.177   4.312  0.00  0.00    +0.155 HD
ENDROOT
BRANCH   9  12
ATOM     12  C   UNL     1      -1.328  -3.818   5.071  0.00  0.00    -0.018 A 
ATOM     13  C   UNL     1      -2.410  -4.678   5.092  0.00  0.00    +0.009 A 
ATOM     14  C   UNL     1      -3.682  -4.184   5.306  0.00  0.00    +0.046 A 
ATOM     15  C   UNL     1      -3.873  -2.824   5.502  0.00  0.00    +0.120 A 
ATOM     16  C   UNL     1      -2.785  -1.963   5.481  0.00  0.00    +0.046 A 
ATOM     17  C   UNL     1      -1.514  -2.463   5.271  0.00  0.00    +0.009 A 
BRANCH  15  18
ATOM     18  O   UNL     1      -5.124  -2.335   5.713  0.00  0.00    -0.495 OA
ATOM     19  C   UNL     1      -5.245  -0.924   5.906  0.00  0.00    +0.277 C 
ENDBRANCH  15  18
ENDBRANCH   9  12
BRANCH   1  21
ATOM     20  N   UNL     1      -1.081  -4.002   1.697  0.00  0.00    -0.281 N 
ATOM     21  C   UNL     1       0.086  -4.231   2.331  0.00  0.00    +0.248 C 
ATOM     22  O   UNL     1       1.117  -3.745   1.903  0.00  0.00    -0.270 OA
ATOM     23  H   UNL     1      -1.913  -4.320   2.081  0.00  0.00    +0.155 HD
BRANCH  20  29
ATOM     24  C   UNL     1      -3.482  -1.196  -1.548  0.00  0.00    +0.044 C 
ATOM     25  C   UNL     1      -2.244  -1.936  -1.113  0.00  0.00    -0.046 A 
ATOM     26  C   UNL     1      -1.116  -1.926  -1.915  0.00  0.00    +0.004 A 
ATOM     27  C   UNL     1       0.022  -2.604  -1.520  0.00  0.00    +0.002 A 
ATOM     28  C   UNL     1       0.037  -3.294  -0.323  0.00  0.00    +0.023 A 
ATOM     29  C   UNL     1      -1.093  -3.305   0.484  0.00  0.00    +0.037 A 
ATOM     30  C   UNL     1      -2.233  -2.618   0.087  0.00  0.00    -0.026 A 
ATOM     31  C   UNL     1      -3.460  -2.623   0.963  0.00  0.00    +0.046 C 
ENDBRANCH  20  29
ENDBRANCH   1  21
BRANCH   6  32
ATOM     32  S   UNL     1       1.297  -6.607   9.446  0.00  0.00    -0.080 S 
BRANCH  32  33
ATOM     33  C   UNL     1       1.475  -8.411   9.532  0.00  0.00    +0.112 C 
BRANCH  33  34
ATOM     34  C   UNL     1       1.826  -8.814  10.941  0.00  0.00    -0.037 A 
ATOM     35  C   UNL     1       3.151  -8.890  11.328  0.00  0.00    +0.004 A 
ATOM     36  C   UNL     1       3.473  -9.260  12.621  0.00  0.00    +0.000 A 
ATOM     37  C   UNL     1       2.470  -9.553  13.526  0.00  0.00    +0.000 A 
ATOM     38  C   UNL     1       1.146  -9.475  13.139  0.00  0.00    +0.000 A 
ATOM     39  C   UNL     1       0.823  -9.101  11.848  0.00  0.00    +0.004 A 
ENDBRANCH  33  34
ENDBRANCH  32  33
ENDBRANCH   6  32
TORSDOF 7
