REMARK  Name = ZINC40091264
REMARK  4 active torsions:
REMARK  status: ('A' for Active; 'I' for Inactive)
REMARK    1  A    between atoms: C_1  and  S_2
REMARK    2  A    between atoms: S_2  and  N_5
REMARK    3  A    between atoms: N_5  and  C_6
REMARK    4  A    between atoms: C_21  and  C_23
REMARK                            x       y       z     vdW  Elec       q    Type
REMARK                         _______ _______ _______ _____ _____    ______ ____
ROOT
ATOM      1  C   UNL     1       2.097  -1.085  -3.636  0.00  0.00    +0.093 C 
ATOM      2  C   UNL     1       1.600   0.107  -2.815  0.00  0.00    +0.023 C 
ATOM      3  C   UNL     1       2.337   0.148  -1.474  0.00  0.00    +0.020 C 
ATOM      4  C   UNL     1       3.837   0.326  -1.725  0.00  0.00    +0.106 C 
ATOM      5  N   UNL     1       4.294  -0.735  -2.633  0.00  0.00    -0.313 N 
ATOM      6  C   UNL     1       3.595  -0.921  -3.912  0.00  0.00    +0.126 C 
ATOM      7  C   UNL     1       5.359  -1.542  -2.291  0.00  0.00    +0.133 A 
ATOM      8  C   UNL     1       6.685  -1.182  -2.640  0.00  0.00    +0.040 A 
ATOM      9  C   UNL     1       6.974  -0.006  -3.340  0.00  0.00    +0.013 A 
ATOM     10  C   UNL     1       8.269   0.291  -3.650  0.00  0.00    +0.001 A 
ATOM     11  C   UNL     1       9.306  -0.561  -3.279  0.00  0.00    +0.002 A 
ATOM     12  C   UNL     1       9.058  -1.714  -2.596  0.00  0.00    +0.028 A 
ATOM     13  C   UNL     1       7.739  -2.050  -2.261  0.00  0.00    +0.077 A 
ATOM     14  N   UNL     1       7.442  -3.172  -1.591  0.00  0.00    -0.227 NA
ATOM     15  C   UNL     1       6.189  -3.459  -1.290  0.00  0.00    +0.162 A 
ATOM     16  N   UNL     1       5.170  -2.669  -1.623  0.00  0.00    -0.212 NA
ENDROOT
BRANCH  15  17
ATOM     17  C   UNL     1       5.906  -4.711  -0.547  0.00  0.00    +0.019 A 
ATOM     18  C   UNL     1       4.594  -5.048  -0.219  0.00  0.00    +0.011 A 
ATOM     19  C   UNL     1       4.336  -6.214   0.473  0.00  0.00    +0.001 A 
ATOM     20  C   UNL     1       5.377  -7.048   0.840  0.00  0.00    +0.000 A 
ATOM     21  C   UNL     1       6.681  -6.718   0.517  0.00  0.00    +0.001 A 
ATOM     22  C   UNL     1       6.950  -5.558  -0.180  0.00  0.00    +0.011 A 
ENDBRANCH  15  17
BRANCH   1  23
ATOM     23  N   UNL     1       1.369  -1.142  -4.906  0.00  0.00    -0.190 NA
ATOM     24  H   UNL     1       1.671  -0.614  -5.661  0.00  0.00    +0.148 HD
BRANCH  23  26
ATOM     25  C   UNL     1      -1.186  -1.391  -3.914  0.00  0.00    +0.214 C 
ATOM     26  S   UNL     1       0.032  -2.107  -5.051  0.00  0.00    +0.027 S 
ATOM     27  O   UNL     1       0.452  -3.381  -4.581  0.00  0.00    -0.158 OA
ATOM     28  O   UNL     1      -0.394  -1.936  -6.396  0.00  0.00    -0.158 OA
ENDBRANCH  23  26
ENDBRANCH   1  23
TORSDOF 3
