REMARK  Name = ZINC03591088
REMARK  5 active torsions:
REMARK  status: ('A' for Active; 'I' for Inactive)
REMARK    1  A    between atoms: C_4  and  O_7
REMARK    2  A    between atoms: O_7  and  C_8
REMARK    3  A    between atoms: C_13  and  N_14
REMARK    4  A    between atoms: C_15  and  C_17
REMARK    5  A    between atoms: C_17  and  N_18
REMARK                            x       y       z     vdW  Elec       q    Type
REMARK                         _______ _______ _______ _____ _____    ______ ____
ROOT
ATOM      1  N   UNL     1      -0.387   7.958  -0.062  0.00  0.00    -0.281 N 
ATOM      2  C   UNL     1      -0.555   9.294  -0.003  0.00  0.00    +0.235 C 
ATOM      3  O   UNL     1      -1.673   9.765   0.016  0.00  0.00    -0.274 OA
ATOM      4  H   UNL     1       0.507   7.583  -0.091  0.00  0.00    +0.155 HD
ENDROOT
BRANCH   1  10
ATOM      5  C   UNL     1      -1.368   5.770   0.267  0.00  0.00    +0.150 A 
ATOM      6  C   UNL     1      -2.475   4.936   0.240  0.00  0.00    +0.048 A 
ATOM      7  C   UNL     1      -3.711   5.439  -0.119  0.00  0.00    +0.004 A 
ATOM      8  C   UNL     1      -3.846   6.772  -0.464  0.00  0.00    +0.002 A 
ATOM      9  C   UNL     1      -2.746   7.609  -0.446  0.00  0.00    +0.027 A 
ATOM     10  C   UNL     1      -1.503   7.112  -0.081  0.00  0.00    +0.076 A 
BRANCH   5  11
ATOM     11  O   UNL     1      -0.153   5.277   0.625  0.00  0.00    -0.454 OA
BRANCH  11  15
ATOM     12  C   UNL     1       1.094   5.837   4.517  0.00  0.00    +0.000 A 
ATOM     13  C   UNL     1      -0.090   6.405   4.083  0.00  0.00    +0.004 A 
ATOM     14  C   UNL     1      -0.507   6.224   2.778  0.00  0.00    +0.046 A 
ATOM     15  C   UNL     1       0.258   5.462   1.906  0.00  0.00    +0.129 A 
ATOM     16  C   UNL     1       1.443   4.889   2.346  0.00  0.00    +0.046 A 
ATOM     17  C   UNL     1       1.858   5.078   3.650  0.00  0.00    +0.004 A 
ENDBRANCH  11  15
ENDBRANCH   5  11
ENDBRANCH   1  10
BRANCH   2  18
ATOM     18  C   UNL     1       0.646  10.204   0.039  0.00  0.00    +0.214 C 
BRANCH  18  19
ATOM     19  N   UNL     1       0.201  11.598   0.100  0.00  0.00    -0.215 N 
ATOM     20  C   UNL     1      -0.031  12.270   1.246  0.00  0.00    +0.247 C 
ATOM     21  O   UNL     1       0.085  11.853   2.378  0.00  0.00    -0.273 OA
ATOM     22  C   UNL     1      -0.465  13.655   0.821  0.00  0.00    +0.113 C 
ATOM     23  C   UNL     1       0.510  14.702   1.348  0.00  0.00    +0.035 C 
ATOM     24  C   UNL     1       0.069  16.093   0.884  0.00  0.00    +0.003 C 
ATOM     25  C   UNL     1      -1.342  16.378   1.403  0.00  0.00    +0.000 C 
ATOM     26  C   UNL     1      -2.312  15.334   0.846  0.00  0.00    +0.003 C 
ATOM     27  C   UNL     1      -1.881  13.941   1.310  0.00  0.00    +0.035 C 
ATOM     28  N   UNL     1      -0.426  13.606  -0.646  0.00  0.00    -0.285 N 
ATOM     29  C   UNL     1      -0.020  12.365  -0.975  0.00  0.00    +0.310 C 
ATOM     30  O   UNL     1       0.127  11.983  -2.119  0.00  0.00    -0.252 OA
ATOM     31  H   UNL     1      -0.646  14.326  -1.257  0.00  0.00    +0.151 HD
ENDBRANCH  18  19
ENDBRANCH   2  18
TORSDOF 5
