REMARK  Name = ZINC15543966
REMARK  6 active torsions:
REMARK  status: ('A' for Active; 'I' for Inactive)
REMARK    1  A    between atoms: C_1  and  C_2
REMARK    2  A    between atoms: N_11  and  C_15
REMARK    3  A    between atoms: C_15  and  C_16
REMARK    4  A    between atoms: N_18  and  C_19
REMARK    5  A    between atoms: C_19  and  C_20
REMARK    6  A    between atoms: C_23  and  C_25
REMARK                            x       y       z     vdW  Elec       q    Type
REMARK                         _______ _______ _______ _____ _____    ______ ____
ROOT
ATOM      1  C   UNL     1      -2.970   0.347   5.573  0.00  0.00    +0.231 C 
ATOM      2  O   UNL     1      -1.780   0.379   5.344  0.00  0.00    -0.274 OA
ATOM      3  N   UNL     1      -3.411   0.316   6.846  0.00  0.00    -0.307 N 
ATOM      4  H   UNL     1      -4.363   0.290   7.030  0.00  0.00    +0.149 HD
ENDROOT
BRANCH   1   5
ATOM      5  C   UNL     1      -3.957   0.343   4.434  0.00  0.00    +0.213 C 
BRANCH   5  15
ATOM      6  C   UNL     1      -0.002   1.056   2.507  0.00  0.00    +0.010 C 
ATOM      7  C   UNL     1      -0.730   1.580   1.267  0.00  0.00    +0.018 C 
ATOM      8  C   UNL     1      -0.013   1.086   0.008  0.00  0.00    +0.006 C 
ATOM      9  C   UNL     1      -0.753   1.593  -1.231  0.00  0.00    +0.000 C 
ATOM     10  C   UNL     1      -2.186   1.056  -1.227  0.00  0.00    +0.003 C 
ATOM     11  C   UNL     1      -2.911   1.550   0.027  0.00  0.00    +0.035 C 
ATOM     12  C   UNL     1      -2.167   1.069   1.268  0.00  0.00    +0.115 C 
ATOM     13  C   UNL     1      -2.885   1.517   2.521  0.00  0.00    +0.247 C 
ATOM     14  O   UNL     1      -3.102   2.655   2.875  0.00  0.00    -0.273 OA
ATOM     15  N   UNL     1      -3.233   0.381   3.161  0.00  0.00    -0.215 N 
ATOM     16  C   UNL     1      -2.836  -0.706   2.489  0.00  0.00    +0.310 C 
ATOM     17  O   UNL     1      -3.035  -1.844   2.866  0.00  0.00    -0.252 OA
ATOM     18  N   UNL     1      -2.191  -0.397   1.347  0.00  0.00    -0.285 N 
ATOM     19  H   UNL     1      -1.817  -1.020   0.705  0.00  0.00    +0.151 HD
ENDBRANCH   5  15
ENDBRANCH   1   5
BRANCH   3  20
ATOM     20  C   UNL     1      -2.451   0.320   7.954  0.00  0.00    +0.178 C 
BRANCH  20  21
ATOM     21  C   UNL     1      -3.196   0.281   9.264  0.00  0.00    +0.123 A 
ATOM     22  C   UNL     1      -3.558  -0.834   9.928  0.00  0.00    +0.047 A 
ATOM     23  C   UNL     1      -4.228  -0.419  11.096  0.00  0.00    +0.050 A 
ATOM     24  C   UNL     1      -4.238   0.941  11.080  0.00  0.00    +0.135 A 
ATOM     25  O   UNL     1      -3.603   1.351   9.965  0.00  0.00    -0.458 OA
BRANCH  24  26
ATOM     26  C   UNL     1      -4.836   1.816  12.110  0.00  0.00    +0.017 A 
ATOM     27  C   UNL     1      -5.468   1.259  13.222  0.00  0.00    +0.012 A 
ATOM     28  C   UNL     1      -6.021   2.081  14.182  0.00  0.00    +0.016 A 
ATOM     29  C   UNL     1      -5.958   3.457  14.038  0.00  0.00    +0.018 A 
ATOM     30  C   UNL     1      -5.336   4.016  12.935  0.00  0.00    +0.016 A 
ATOM     31  C   UNL     1      -4.776   3.204  11.970  0.00  0.00    +0.012 A 
ATOM     32 BR   UNL     1      -6.724   4.577  15.355  0.00  0.00    -0.050 Br
ENDBRANCH  24  26
ENDBRANCH  20  21
ENDBRANCH   3  20
TORSDOF 5
