REMARK  Name = ZINC16755347
REMARK  9 active torsions:
REMARK  status: ('A' for Active; 'I' for Inactive)
REMARK    1  A    between atoms: C_1  and  C_2
REMARK    2  A    between atoms: C_2  and  C_4
REMARK    3  A    between atoms: C_2  and  O_13
REMARK    4  A    between atoms: N_9  and  C_10
REMARK    5  A    between atoms: C_10  and  C_11
REMARK    6  A    between atoms: C_10  and  C_12
REMARK    7  A    between atoms: O_13  and  C_14
REMARK    8  A    between atoms: C_14  and  C_16
REMARK    9  A    between atoms: C_19  and  N_22
REMARK                            x       y       z     vdW  Elec       q    Type
REMARK                         _______ _______ _______ _____ _____    ______ ____
ROOT
ATOM      1  C   UNL     1       2.759  -1.126  -2.260  0.00  0.00    +0.059 A 
ATOM      2  C   UNL     1       2.174  -2.027  -3.154  0.00  0.00    +0.017 A 
ATOM      3  C   UNL     1       2.883  -2.467  -4.249  0.00  0.00    +0.025 A 
ATOM      4  C   UNL     1       4.181  -2.016  -4.466  0.00  0.00    +0.045 A 
ATOM      5  C   UNL     1       4.767  -1.119  -3.579  0.00  0.00    +0.025 A 
ATOM      6  C   UNL     1       4.062  -0.670  -2.485  0.00  0.00    +0.017 A 
ENDROOT
BRANCH   4   7
ATOM      7  N   UNL     1       4.897  -2.465  -5.578  0.00  0.00    -0.202 N 
ATOM      8  C   UNL     1       5.648  -3.577  -5.460  0.00  0.00    +0.258 C 
ATOM      9  O   UNL     1       5.690  -4.168  -4.398  0.00  0.00    -0.269 OA
ATOM     10  C   UNL     1       6.416  -4.080  -6.608  0.00  0.00    +0.046 A 
ATOM     11  C   UNL     1       7.201  -5.221  -6.531  0.00  0.00    +0.014 A 
ATOM     12  C   UNL     1       7.909  -5.657  -7.645  0.00  0.00    +0.001 A 
ATOM     13  C   UNL     1       7.857  -4.987  -8.834  0.00  0.00    +0.008 A 
ATOM     14  C   UNL     1       7.073  -3.827  -8.954  0.00  0.00    -0.016 A 
ATOM     15  C   UNL     1       6.349  -3.374  -7.831  0.00  0.00    +0.006 A 
ATOM     16  C   UNL     1       5.552  -2.210  -7.920  0.00  0.00    +0.046 A 
ATOM     17  C   UNL     1       5.493  -1.524  -9.124  0.00  0.00    +0.014 A 
ATOM     18  C   UNL     1       6.210  -1.981 -10.223  0.00  0.00    +0.001 A 
ATOM     19  C   UNL     1       6.986  -3.103 -10.156  0.00  0.00    +0.008 A 
ATOM     20  C   UNL     1       4.808  -1.772  -6.729  0.00  0.00    +0.258 C 
ATOM     21  O   UNL     1       4.112  -0.777  -6.784  0.00  0.00    -0.269 OA
ENDBRANCH   4   7
BRANCH   1  22
ATOM     22  C   UNL     1       2.002  -0.651  -1.087  0.00  0.00    +0.340 C 
ATOM     23  O   UNL     1       2.511   0.136  -0.314  0.00  0.00    -0.245 OA
BRANCH  22  24
ATOM     24  O   UNL     1       0.747  -1.091  -0.872  0.00  0.00    -0.449 OA
BRANCH  24  26
ATOM     25  C   UNL     1      -0.686   0.687  -0.081  0.00  0.00    +0.062 C 
ATOM     26  C   UNL     1       0.073  -0.590   0.284  0.00  0.00    +0.259 C 
BRANCH  26  27
ATOM     27  C   UNL     1      -0.900  -1.626   0.787  0.00  0.00    +0.261 C 
ATOM     28  O   UNL     1      -1.072  -2.650   0.161  0.00  0.00    -0.271 OA
ATOM     29  N   UNL     1      -1.578  -1.414   1.932  0.00  0.00    -0.237 N 
ATOM     30  C   UNL     1      -2.448  -2.340   2.381  0.00  0.00    +0.306 C 
ATOM     31  O   UNL     1      -2.620  -3.367   1.754  0.00  0.00    -0.252 OA
ATOM     32  N   UNL     1      -3.127  -2.128   3.526  0.00  0.00    -0.297 N 
ATOM     33  H   UNL     1      -1.441  -0.594   2.432  0.00  0.00    +0.159 HD
ATOM     34  H   UNL     1      -2.989  -1.308   4.027  0.00  0.00    +0.151 HD
BRANCH  32  35
ATOM     35  C   UNL     1      -4.072  -3.134   4.015  0.00  0.00    +0.068 C 
ATOM     36  C   UNL     1      -3.319  -4.189   4.829  0.00  0.00    +0.027 C 
ATOM     37  C   UNL     1      -5.122  -2.461   4.900  0.00  0.00    +0.027 C 
ENDBRANCH  32  35
ENDBRANCH  26  27
ENDBRANCH  24  26
ENDBRANCH  22  24
ENDBRANCH   1  22
TORSDOF 6
