REMARK  Name = ZINC09138447
REMARK  9 active torsions:
REMARK  status: ('A' for Active; 'I' for Inactive)
REMARK    1  A    between atoms: C_1  and  C_2
REMARK    2  A    between atoms: C_6  and  N_9
REMARK    3  A    between atoms: C_7  and  C_8
REMARK    4  A    between atoms: C_10  and  C_12
REMARK    5  A    between atoms: N_14  and  C_15
REMARK    6  A    between atoms: C_15  and  C_16
REMARK    7  A    between atoms: C_16  and  C_18
REMARK    8  A    between atoms: C_16  and  N_69
REMARK    9  A    between atoms: N_27  and  C_28
REMARK                            x       y       z     vdW  Elec       q    Type
REMARK                         _______ _______ _______ _____ _____    ______ ____
ROOT
ATOM      1  C   UNL     1      -0.065   0.206   0.572  0.00  0.00    -0.020 C 
ENDROOT
BRANCH   1   2
ATOM      2  C   UNL     1       0.682  -0.603  -0.457  0.00  0.00    -0.059 A 
ATOM      3  C   UNL     1       2.054  -0.476  -0.576  0.00  0.00    +0.004 A 
ATOM      4  C   UNL     1       2.734  -1.215  -1.520  0.00  0.00    +0.023 A 
ATOM      5  C   UNL     1       2.047  -2.094  -2.359  0.00  0.00    +0.033 A 
ATOM      6  C   UNL     1       0.675  -2.220  -2.233  0.00  0.00    -0.026 A 
ATOM      7  C   UNL     1      -0.002  -1.476  -1.279  0.00  0.00    +0.007 A 
ATOM      8  C   UNL     1      -0.125  -3.159  -3.101  0.00  0.00    +0.038 C 
ATOM      9  C   UNL     1       0.714  -3.583  -4.309  0.00  0.00    +0.024 C 
ATOM     10  C   UNL     1       2.101  -3.994  -3.801  0.00  0.00    +0.105 C 
ATOM     11  N   UNL     1       2.790  -2.802  -3.303  0.00  0.00    -0.333 N 
ATOM     12  C   UNL     1       4.119  -3.142  -2.778  0.00  0.00    +0.129 C 
ENDBRANCH   1   2
BRANCH   1  18
ATOM     13  C   UNL     1      -0.254   0.145   2.984  0.00  0.00    -0.078 C 
ATOM     14  C   UNL     1       0.541  -0.030   4.281  0.00  0.00    -0.019 C 
ATOM     15  C   UNL     1       1.525   1.134   4.431  0.00  0.00    -0.004 C 
ATOM     16  C   UNL     1       2.444   1.176   3.207  0.00  0.00    -0.019 C 
ATOM     17  C   UNL     1       1.594   1.316   1.942  0.00  0.00    -0.078 C 
ATOM     18  N   UNL     1       0.686   0.153   1.843  0.00  0.00    +0.385 N 
ATOM     19  H   UNL     1       1.244  -0.708   1.865  0.00  0.00    -0.081 HD
ENDBRANCH   1  18
BRANCH   1  20
ATOM     20  C   UNL     1      -0.193   1.652   0.088  0.00  0.00    +0.094 C 
BRANCH  20  23
ATOM     21  C   UNL     1      -1.293   3.708   0.795  0.00  0.00    +0.299 C 
ATOM     22  O   UNL     1      -0.885   4.240  -0.217  0.00  0.00    -0.265 OA
ATOM     23  N   UNL     1      -1.002   2.416   1.042  0.00  0.00    -0.309 N 
ATOM     24  H   UNL     1      -1.328   1.991   1.851  0.00  0.00    +0.149 HD
BRANCH  21  26
ATOM     25  N   UNL     1      -2.409   5.779   1.520  0.00  0.00    -0.278 N 
ATOM     26  C   UNL     1      -2.118   4.487   1.767  0.00  0.00    +0.303 C 
ATOM     27  O   UNL     1      -2.526   3.955   2.779  0.00  0.00    -0.265 OA
ATOM     28  H   UNL     1      -2.138   6.186   0.682  0.00  0.00    +0.155 HD
BRANCH  25  34
ATOM     29  C   UNL     1      -3.427  10.147   3.532  0.00  0.00    +0.044 C 
ATOM     30  C   UNL     1      -3.614   8.653   3.469  0.00  0.00    -0.046 A 
ATOM     31  C   UNL     1      -4.472   8.027   4.355  0.00  0.00    +0.004 A 
ATOM     32  C   UNL     1      -4.646   6.656   4.301  0.00  0.00    +0.002 A 
ATOM     33  C   UNL     1      -3.964   5.908   3.362  0.00  0.00    +0.023 A 
ATOM     34  C   UNL     1      -3.101   6.534   2.471  0.00  0.00    +0.037 A 
ATOM     35  C   UNL     1      -2.925   7.910   2.531  0.00  0.00    -0.026 A 
ATOM     36  C   UNL     1      -1.986   8.593   1.570  0.00  0.00    +0.046 C 
ENDBRANCH  25  34
ENDBRANCH  21  26
ENDBRANCH  20  23
ENDBRANCH   1  20
TORSDOF 6
