REMARK  Name = ZINC06097333
REMARK  9 active torsions:
REMARK  status: ('A' for Active; 'I' for Inactive)
REMARK    1  A    between atoms: C_1  and  C_2
REMARK    2  A    between atoms: C_2  and  C_3
REMARK    3  A    between atoms: C_3  and  N_4
REMARK    4  A    between atoms: C_13  and  S_14
REMARK    5  A    between atoms: S_14  and  C_15
REMARK    6  A    between atoms: C_15  and  C_16
REMARK    7  A    between atoms: C_16  and  C_17
REMARK    8  A    between atoms: C_17  and  C_18
REMARK    9  A    between atoms: C_18  and  C_20
REMARK                            x       y       z     vdW  Elec       q    Type
REMARK                         _______ _______ _______ _____ _____    ______ ____
ROOT
ATOM      1  N   UNL     1      -1.183   1.883   0.018  0.00  0.00    -0.287 N 
ATOM      2  C   UNL     1      -0.015   1.215   0.009  0.00  0.00    +0.263 A 
ATOM      3  O   UNL     1       0.002  -0.004   0.002  0.00  0.00    -0.267 OA
ATOM      4  C   UNL     1       1.207   1.958   0.001  0.00  0.00    +0.076 A 
ATOM      5  C   UNL     1       2.584   1.436  -0.013  0.00  0.00    -0.023 A 
ATOM      6  C   UNL     1       3.576   2.341  -0.021  0.00  0.00    -0.004 A 
ATOM      7  S   UNL     1       2.760   3.920  -0.004  0.00  0.00    -0.073 S 
ATOM      8  C   UNL     1       1.079   3.354   0.009  0.00  0.00    +0.117 A 
ATOM      9  N   UNL     1      -0.106   3.954   0.023  0.00  0.00    -0.216 NA
ATOM     10  C   UNL     1      -1.218   3.247   0.029  0.00  0.00    +0.173 A 
ATOM     11  C   UNL     1       4.935   1.694  -0.040  0.00  0.00    +0.043 C 
ATOM     12  C   UNL     1       4.665   0.238  -0.478  0.00  0.00    +0.010 C 
ATOM     13  C   UNL     1       3.208   0.038  -0.019  0.00  0.00    +0.037 C 
ENDROOT
BRANCH   1  14
ATOM     14  C   UNL     1      -2.441   1.131   0.020  0.00  0.00    +0.127 C 
BRANCH  14  16
ATOM     15  C   UNL     1      -4.185   0.077   1.465  0.00  0.00    +0.005 C 
ATOM     16  C   UNL     1      -2.872   0.862   1.463  0.00  0.00    +0.018 C 
ENDBRANCH  14  16
ENDBRANCH   1  14
BRANCH  10  17
ATOM     17  S   UNL     1      -2.773   4.075   0.047  0.00  0.00    -0.088 S 
BRANCH  17  18
ATOM     18  C   UNL     1      -2.213   5.796   0.051  0.00  0.00    +0.078 C 
BRANCH  18  19
ATOM     19  C   UNL     1      -3.426   6.728   0.066  0.00  0.00    +0.019 C 
BRANCH  19  20
ATOM     20  C   UNL     1      -2.953   8.183   0.069  0.00  0.00    +0.081 C 
BRANCH  20  21
ATOM     21  C   UNL     1      -4.148   9.101   0.084  0.00  0.00    +0.170 C 
ATOM     22  O   UNL     1      -5.270   8.636   0.091  0.00  0.00    -0.292 OA
BRANCH  21  23
ATOM     23  C   UNL     1      -3.963  10.501   0.090  0.00  0.00    +0.055 A 
ATOM     24  C   UNL     1      -4.919  11.512   0.097  0.00  0.00    +0.019 A 
ATOM     25  C   UNL     1      -4.460  12.802   0.106  0.00  0.00    +0.008 A 
ATOM     26  C   UNL     1      -3.119  13.031   0.095  0.00  0.00    +0.046 A 
ATOM     27  S   UNL     1      -2.443  11.435   0.081  0.00  0.00    -0.094 S 
ENDBRANCH  21  23
ENDBRANCH  20  21
ENDBRANCH  19  20
ENDBRANCH  18  19
ENDBRANCH  17  18
ENDBRANCH  10  17
TORSDOF 8
