REMARK  Name = ZINC09714100
REMARK  15 active torsions:
REMARK  status: ('A' for Active; 'I' for Inactive)
REMARK    1  A    between atoms: C_1  and  C_2
REMARK    2  A    between atoms: C_2  and  C_3
REMARK    3  A    between atoms: C_2  and  C_4
REMARK    4  A    between atoms: C_4  and  N_5
REMARK    5  A    between atoms: C_6  and  N_37
REMARK    6  A    between atoms: C_7  and  N_14
REMARK    7  A    between atoms: N_14  and  C_15
REMARK    8  A    between atoms: C_15  and  C_16
REMARK    9  A    between atoms: C_16  and  C_17
REMARK   10  A    between atoms: C_16  and  C_18
REMARK   11  A    between atoms: C_19  and  C_21
REMARK   12  A    between atoms: C_21  and  N_22
REMARK   13  A    between atoms: N_25  and  C_28
REMARK   14  A    between atoms: C_31  and  C_34
REMARK   15  A    between atoms: C_34  and  C_36
REMARK                            x       y       z     vdW  Elec       q    Type
REMARK                         _______ _______ _______ _____ _____    ______ ____
ROOT
ATOM      1  N   UNL     1      -0.557   2.828   4.948  0.00  0.00    -0.266 N 
ATOM      2  C   UNL     1       0.147   3.848   4.415  0.00  0.00    +0.203 C 
ATOM      3  O   UNL     1       0.856   3.657   3.449  0.00  0.00    -0.277 OA
ENDROOT
BRANCH   1   6
ATOM      4  N   UNL     1      -0.058  -0.766   4.371  0.00  0.00    -0.280 N 
ATOM      5  C   UNL     1      -0.059   0.457   5.001  0.00  0.00    +0.127 A 
ATOM      6  C   UNL     1      -0.542   1.561   4.329  0.00  0.00    +0.140 A 
ATOM      7  C   UNL     1      -1.019   1.401   3.014  0.00  0.00    +0.277 A 
ATOM      8  O   UNL     1      -1.451   2.360   2.397  0.00  0.00    -0.266 OA
ATOM      9  N   UNL     1      -0.996   0.181   2.442  0.00  0.00    -0.273 N 
ATOM     10  H   UNL     1      -1.324   0.070   1.536  0.00  0.00    +0.173 HD
ATOM     11  C   UNL     1      -0.517  -0.883   3.111  0.00  0.00    +0.331 A 
ATOM     12  O   UNL     1      -0.502  -1.972   2.570  0.00  0.00    -0.246 OA
BRANCH   5  13
ATOM     13  N   UNL     1       0.414   0.577   6.286  0.00  0.00    -0.343 N 
ATOM     14  H   UNL     1       0.649  -0.216   6.792  0.00  0.00    +0.144 HD
ATOM     15  H   UNL     1       0.512   1.455   6.686  0.00  0.00    +0.144 HD
ENDBRANCH   5  13
BRANCH   4  16
ATOM     16  C   UNL     1       0.451  -1.947   5.073  0.00  0.00    +0.131 C 
BRANCH  16  18
ATOM     17  C   UNL     1       2.692  -0.900   5.428  0.00  0.00    +0.009 C 
ATOM     18  C   UNL     1       1.952  -2.088   4.810  0.00  0.00    +0.003 C 
ATOM     19  C   UNL     1       2.459  -3.387   5.439  0.00  0.00    +0.009 C 
ENDBRANCH  16  18
ENDBRANCH   4  16
ENDBRANCH   1   6
BRANCH   1  20
ATOM     20  C   UNL     1      -1.337   3.037   6.171  0.00  0.00    +0.117 C 
BRANCH  20  21
ATOM     21  C   UNL     1      -2.724   3.570   5.806  0.00  0.00    +0.001 C 
ATOM     22  C   UNL     1      -3.503   2.491   5.051  0.00  0.00    +0.009 C 
ATOM     23  C   UNL     1      -3.478   3.945   7.083  0.00  0.00    +0.009 C 
ENDBRANCH  20  21
ENDBRANCH   1  20
BRANCH   2  24
ATOM     24  C   UNL     1       0.053   5.226   5.019  0.00  0.00    +0.019 C 
BRANCH  24  25
ATOM     25  N   UNL     1       0.807   6.176   4.191  0.00  0.00    +0.387 N 
ATOM     26  C   UNL     1       0.176   6.277   2.869  0.00  0.00    -0.059 C 
ATOM     27  C   UNL     1       1.025   7.180   1.967  0.00  0.00    +0.086 C 
ATOM     28  N   UNL     1       1.219   8.469   2.647  0.00  0.00    -0.333 N 
ATOM     29  C   UNL     1       1.696   8.454   4.039  0.00  0.00    +0.086 C 
ATOM     30  C   UNL     1       0.815   7.492   4.843  0.00  0.00    -0.059 C 
ATOM     31  H   UNL     1       1.755   5.849   4.084  0.00  0.00    -0.081 HD
BRANCH  28  32
ATOM     32  C   UNL     1       0.960   9.667   1.994  0.00  0.00    +0.030 A 
ATOM     33  C   UNL     1       0.404   9.656   0.717  0.00  0.00    +0.024 A 
ATOM     34  C   UNL     1       0.147  10.832   0.071  0.00  0.00    +0.013 A 
ATOM     35  C   UNL     1       0.444  12.050   0.695  0.00  0.00    +0.017 A 
ATOM     36  C   UNL     1       1.003  12.057   1.980  0.00  0.00    +0.013 A 
ATOM     37  C   UNL     1       1.252  10.877   2.621  0.00  0.00    +0.024 A 
BRANCH  35  38
ATOM     38  C   UNL     1       0.171  13.316   0.005  0.00  0.00    +0.160 C 
ATOM     39  O   UNL     1      -0.312  13.308  -1.107  0.00  0.00    -0.292 OA
ATOM     40  C   UNL     1       0.491  14.626   0.678  0.00  0.00    +0.091 C 
ENDBRANCH  35  38
ENDBRANCH  28  32
ENDBRANCH  24  25
ENDBRANCH   2  24
TORSDOF 10
