REMARK  Name = ZINC13498760
REMARK  13 active torsions:
REMARK  status: ('A' for Active; 'I' for Inactive)
REMARK    1  A    between atoms: C_1  and  C_2
REMARK    2  A    between atoms: C_2  and  C_3
REMARK    3  A    between atoms: C_2  and  C_4
REMARK    4  A    between atoms: C_4  and  C_6
REMARK    5  A    between atoms: C_4  and  N_17
REMARK    6  A    between atoms: N_10  and  C_11
REMARK    7  A    between atoms: C_11  and  C_12
REMARK    8  A    between atoms: N_17  and  C_18
REMARK    9  A    between atoms: N_17  and  C_26
REMARK   10  A    between atoms: C_18  and  C_19
REMARK   11  A    between atoms: C_26  and  C_27
REMARK   12  A    between atoms: C_32  and  O_39
REMARK   13  A    between atoms: O_39  and  C_40
REMARK                            x       y       z     vdW  Elec       q    Type
REMARK                         _______ _______ _______ _____ _____    ______ ____
ROOT
ATOM      1  N   UNL     1      -2.066   0.373  -1.257  0.00  0.00    -0.284 NA
ENDROOT
BRANCH   1   2
ATOM      2  C   UNL     1      -1.948   0.042   0.170  0.00  0.00    +0.130 C 
BRANCH   2   3
ATOM      3  C   UNL     1      -2.909   0.889   0.963  0.00  0.00    +0.169 A 
ATOM      4  N   UNL     1      -2.785   2.165   1.238  0.00  0.00    -0.112 NA
ATOM      5  N   UNL     1      -3.808   2.523   1.934  0.00  0.00    -0.023 NA
ATOM      6  N   UNL     1      -4.582   1.510   2.110  0.00  0.00    -0.043 NA
ATOM      7  N   UNL     1      -4.065   0.484   1.522  0.00  0.00    -0.220 N 
BRANCH   7   8
ATOM      8  C   UNL     1      -4.628  -0.867   1.474  0.00  0.00    +0.221 C 
BRANCH   8   9
ATOM      9  C   UNL     1      -4.241  -1.617   2.723  0.00  0.00    +0.126 A 
ATOM     10  C   UNL     1      -4.988  -1.729   3.836  0.00  0.00    +0.046 A 
ATOM     11  C   UNL     1      -4.245  -2.512   4.750  0.00  0.00    +0.041 A 
ATOM     12  C   UNL     1      -3.089  -2.831   4.140  0.00  0.00    +0.195 A 
ATOM     13  O   UNL     1      -3.095  -2.291   2.911  0.00  0.00    -0.466 OA
ENDBRANCH   8   9
ENDBRANCH   7   8
ENDBRANCH   2   3
BRANCH   2  15
ATOM     14  C   UNL     1      -0.157   1.775   0.353  0.00  0.00    +0.009 C 
ATOM     15  C   UNL     1      -0.518   0.317   0.640  0.00  0.00    +0.008 C 
ATOM     16  C   UNL     1      -0.417   0.053   2.144  0.00  0.00    +0.009 C 
ENDBRANCH   2  15
ENDBRANCH   1   2
BRANCH   1  17
ATOM     17  C   UNL     1      -3.475   0.483  -1.657  0.00  0.00    +0.120 C 
BRANCH  17  18
ATOM     18  C   UNL     1      -3.579   1.328  -2.901  0.00  0.00    -0.033 A 
ATOM     19  C   UNL     1      -3.635   2.705  -2.797  0.00  0.00    +0.008 A 
ATOM     20  C   UNL     1      -3.730   3.481  -3.937  0.00  0.00    +0.038 A 
ATOM     21  C   UNL     1      -3.770   2.878  -5.183  0.00  0.00    +0.123 A 
ATOM     22  C   UNL     1      -3.714   1.498  -5.285  0.00  0.00    +0.038 A 
ATOM     23  C   UNL     1      -3.614   0.725  -4.144  0.00  0.00    +0.008 A 
ATOM     24  F   UNL     1      -3.864   3.635  -6.298  0.00  0.00    -0.205 F 
ENDBRANCH  17  18
ENDBRANCH   1  17
BRANCH   1  25
ATOM     25  C   UNL     1      -1.358  -0.612  -2.086  0.00  0.00    +0.126 C 
BRANCH  25  26
ATOM     26  C   UNL     1      -1.854  -1.996  -1.755  0.00  0.00    +0.031 A 
ATOM     27  C   UNL     1      -2.841  -2.556  -2.500  0.00  0.00    +0.020 A 
ATOM     28  C   UNL     1      -3.300  -3.901  -2.154  0.00  0.00    -0.001 A 
ATOM     29  C   UNL     1      -4.314  -4.530  -2.886  0.00  0.00    +0.013 A 
ATOM     30  C   UNL     1      -4.721  -5.785  -2.541  0.00  0.00    +0.046 A 
ATOM     31  C   UNL     1      -4.136  -6.447  -1.462  0.00  0.00    +0.122 A 
ATOM     32  C   UNL     1      -3.133  -5.843  -0.725  0.00  0.00    +0.072 A 
ATOM     33  C   UNL     1      -2.705  -4.565  -1.063  0.00  0.00    +0.053 A 
ATOM     34  N   UNL     1      -1.706  -3.940  -0.347  0.00  0.00    -0.322 N 
ATOM     35  H   UNL     1      -1.297  -4.399   0.403  0.00  0.00    +0.169 HD
ATOM     36  C   UNL     1      -1.288  -2.705  -0.677  0.00  0.00    +0.254 A 
ATOM     37  O   UNL     1      -0.399  -2.185  -0.024  0.00  0.00    -0.268 OA
BRANCH  31  38
ATOM     38  O   UNL     1      -4.555  -7.696  -1.132  0.00  0.00    -0.495 OA
ATOM     39  C   UNL     1      -5.595  -8.264  -1.931  0.00  0.00    +0.277 C 
ENDBRANCH  31  38
ENDBRANCH  25  26
ENDBRANCH   1  25
TORSDOF 10
