REMARK  Name = ZINC00977023
REMARK  4 active torsions:
REMARK  status: ('A' for Active; 'I' for Inactive)
REMARK    1  A    between atoms: C_1  and  C_2
REMARK    2  A    between atoms: C_12  and  N_26
REMARK    3  A    between atoms: C_13  and  C_15
REMARK    4  A    between atoms: C_18  and  C_20
REMARK                            x       y       z     vdW  Elec       q    Type
REMARK                         _______ _______ _______ _____ _____    ______ ____
ROOT
ATOM      1  C   UNL     1      -3.461   7.731   0.060  0.00  0.00    +0.046 C 
ATOM      2  C   UNL     1      -2.043   7.221   0.051  0.00  0.00    -0.024 A 
ATOM      3  C   UNL     1      -1.002   8.097   0.051  0.00  0.00    +0.005 A 
ATOM      4  C   UNL     1       0.317   7.646   0.041  0.00  0.00    +0.001 A 
ATOM      5  C   UNL     1       0.601   6.316   0.032  0.00  0.00    +0.010 A 
ATOM      6  C   UNL     1      -0.448   5.378   0.032  0.00  0.00    +0.001 A 
ATOM      7  C   UNL     1      -1.791   5.838   0.042  0.00  0.00    +0.075 A 
ATOM      8  N   UNL     1      -2.796   4.957   0.043  0.00  0.00    -0.239 NA
ATOM      9  C   UNL     1      -2.572   3.668   0.035  0.00  0.00    +0.111 A 
ATOM     10  C   UNL     1      -1.265   3.104   0.030  0.00  0.00    +0.030 A 
ATOM     11  C   UNL     1      -0.185   4.003   0.024  0.00  0.00    +0.022 A 
ATOM     12  C   UNL     1      -1.230   1.647   0.017  0.00  0.00    +0.054 A 
ATOM     13  C   UNL     1      -2.407   0.963   0.019  0.00  0.00    +0.099 A 
ATOM     14  S   UNL     1      -3.641   2.249   0.033  0.00  0.00    -0.062 S 
ENDROOT
BRANCH  13  15
ATOM     15  C   UNL     1      -2.612  -0.487   0.013  0.00  0.00    +0.257 A 
ATOM     16  N   UNL     1      -1.669  -1.409   0.004  0.00  0.00    -0.106 NA
ATOM     17  N   UNL     1      -2.212  -2.575   0.001  0.00  0.00    -0.107 NA
ATOM     18  C   UNL     1      -3.520  -2.449   0.008  0.00  0.00    +0.249 A 
ATOM     19  O   UNL     1      -3.800  -1.128   0.021  0.00  0.00    -0.415 OA
BRANCH  18  20
ATOM     20  C   UNL     1      -4.503  -3.550   0.007  0.00  0.00    +0.038 A 
ATOM     21  C   UNL     1      -5.871  -3.269   0.020  0.00  0.00    +0.013 A 
ATOM     22  C   UNL     1      -6.784  -4.303   0.014  0.00  0.00    +0.001 A 
ATOM     23  C   UNL     1      -6.348  -5.616   0.005  0.00  0.00    +0.000 A 
ATOM     24  C   UNL     1      -4.994  -5.902  -0.003  0.00  0.00    +0.001 A 
ATOM     25  C   UNL     1      -4.069  -4.878  -0.002  0.00  0.00    +0.013 A 
ENDBRANCH  18  20
ENDBRANCH  13  15
BRANCH  12  26
ATOM     26  N   UNL     1      -0.011   0.966   0.007  0.00  0.00    -0.356 N 
ATOM     27  H   UNL     1       0.002  -0.004   0.002  0.00  0.00    +0.142 HD
ATOM     28  H   UNL     1       0.822   1.462   0.002  0.00  0.00    +0.142 HD
ENDBRANCH  12  26
TORSDOF 3
