REMARK  Name = ZINC04701004
REMARK  8 active torsions:
REMARK  status: ('A' for Active; 'I' for Inactive)
REMARK    1  A    between atoms: C_1  and  C_2
REMARK    2  A    between atoms: C_2  and  N_51
REMARK    3  A    between atoms: C_3  and  C_4
REMARK    4  A    between atoms: C_3  and  N_51
REMARK    5  A    between atoms: C_5  and  N_51
REMARK    6  A    between atoms: C_17  and  N_19
REMARK    7  A    between atoms: N_19  and  S_20
REMARK    8  A    between atoms: S_20  and  C_23
REMARK                            x       y       z     vdW  Elec       q    Type
REMARK                         _______ _______ _______ _____ _____    ______ ____
ROOT
ATOM      1  C   UNL     1      -2.274   1.125  -0.194  0.00  0.00    -0.014 C 
ATOM      2  C   UNL     1      -0.802   1.395   0.003  0.00  0.00    -0.051 A 
ATOM      3  C   UNL     1       0.315   0.618   0.049  0.00  0.00    +0.003 A 
ATOM      4  C   UNL     1       1.568   1.196   0.262  0.00  0.00    +0.001 A 
ATOM      5  C   UNL     1       1.732   2.540   0.438  0.00  0.00    +0.008 A 
ATOM      6  C   UNL     1       0.600   3.370   0.402  0.00  0.00    -0.017 A 
ATOM      7  C   UNL     1      -0.651   2.765   0.185  0.00  0.00    -0.012 A 
ATOM      8  C   UNL     1      -1.838   3.491   0.131  0.00  0.00    -0.022 A 
ATOM      9  C   UNL     1      -1.769   4.840   0.297  0.00  0.00    +0.006 A 
ATOM     10  C   UNL     1      -0.537   5.463   0.513  0.00  0.00    +0.001 A 
ATOM     11  C   UNL     1       0.634   4.765   0.569  0.00  0.00    +0.008 A 
ATOM     12  C   UNL     1      -2.957   2.508  -0.114  0.00  0.00    +0.098 C 
ENDROOT
BRANCH  12  13
ATOM     13  N   UNL     1      -3.636   2.816  -1.375  0.00  0.00    -0.184 NA
ATOM     14  H   UNL     1      -3.172   2.693  -2.218  0.00  0.00    +0.149 HD
BRANCH  13  15
ATOM     15  S   UNL     1      -5.195   3.372  -1.361  0.00  0.00    +0.059 S 
ATOM     16  O   UNL     1      -5.542   3.643  -2.712  0.00  0.00    -0.153 OA
ATOM     17  O   UNL     1      -5.940   2.475  -0.549  0.00  0.00    -0.153 OA
BRANCH  15  18
ATOM     18  C   UNL     1      -5.188   4.922  -0.522  0.00  0.00    +0.105 A 
ATOM     19  C   UNL     1      -5.289   4.962   0.856  0.00  0.00    +0.030 A 
ATOM     20  C   UNL     1      -5.278   6.177   1.514  0.00  0.00    +0.022 A 
ATOM     21  C   UNL     1      -5.176   7.354   0.793  0.00  0.00    +0.041 A 
ATOM     22  C   UNL     1      -5.080   7.313  -0.586  0.00  0.00    +0.022 A 
ATOM     23  C   UNL     1      -5.086   6.097  -1.243  0.00  0.00    +0.030 A 
ATOM     24 CL   UNL     1      -5.169   8.881   1.619  0.00  0.00    -0.084 Cl
ENDBRANCH  15  18
ENDBRANCH  13  15
ENDBRANCH  12  13
BRANCH   1  25
ATOM     25  N   UNL     1      -2.498   0.540  -1.533  0.00  0.00    +0.385 N 
ATOM     26  H   UNL     1      -2.283   1.247  -2.246  0.00  0.00    -0.081 HD
BRANCH  25  28
ATOM     27  C   UNL     1      -1.839  -1.666  -0.632  0.00  0.00    -0.017 C 
ATOM     28  C   UNL     1      -1.610  -0.625  -1.730  0.00  0.00    -0.081 C 
ENDBRANCH  25  28
BRANCH  25  29
ATOM     29  C   UNL     1      -3.910   0.128  -1.675  0.00  0.00    -0.081 C 
ATOM     30  C   UNL     1      -4.193  -0.159  -3.151  0.00  0.00    -0.017 C 
ENDBRANCH  25  29
ENDBRANCH   1  25
TORSDOF 6
