REMARK  Name = ZINC43740991
REMARK  9 active torsions:
REMARK  status: ('A' for Active; 'I' for Inactive)
REMARK    1  A    between atoms: C_1  and  C_2
REMARK    2  A    between atoms: C_17  and  C_36
REMARK    3  A    between atoms: C_22  and  C_23
REMARK    4  A    between atoms: C_22  and  O_35
REMARK    5  A    between atoms: C_23  and  N_24
REMARK    6  A    between atoms: C_25  and  C_26
REMARK    7  A    between atoms: C_30  and  O_33
REMARK    8  A    between atoms: C_31  and  O_32
REMARK    9  A    between atoms: O_33  and  C_34
REMARK                            x       y       z     vdW  Elec       q    Type
REMARK                         _______ _______ _______ _____ _____    ______ ____
ROOT
ATOM      1  C   UNL     1      -0.008   1.559  -0.008  0.00  0.00    +0.012 C 
ATOM      2  C   UNL     1       0.022   0.013  -0.014  0.00  0.00    -0.026 C 
ATOM      3  C   UNL     1       0.725  -0.446  -1.284  0.00  0.00    +0.007 C 
ATOM      4  C   UNL     1       2.192  -0.015  -1.308  0.00  0.00    +0.001 C 
ATOM      5  C   UNL     1       2.911  -0.567  -0.076  0.00  0.00    +0.000 C 
ATOM      6  C   UNL     1       2.247  -0.004   1.180  0.00  0.00    +0.004 C 
ATOM      7  C   UNL     1       0.781  -0.424   1.235  0.00  0.00    -0.005 C 
ATOM      8  C   UNL     1       0.688  -1.942   1.403  0.00  0.00    +0.004 C 
ATOM      9  C   UNL     1      -0.778  -2.295   1.653  0.00  0.00    +0.004 C 
ATOM     10  C   UNL     1      -1.621  -1.921   0.436  0.00  0.00    -0.004 C 
ATOM     11  C   UNL     1      -1.424  -0.469   0.021  0.00  0.00    -0.001 C 
ATOM     12  C   UNL     1      -2.160  -0.126  -1.269  0.00  0.00    +0.005 C 
ATOM     13  C   UNL     1      -1.960  -1.151  -2.393  0.00  0.00    +0.010 C 
ATOM     14  C   UNL     1      -2.320  -2.527  -1.882  0.00  0.00    +0.001 C 
ATOM     15  C   UNL     1      -1.363  -2.859  -0.712  0.00  0.00    +0.001 C 
ATOM     16  C   UNL     1      -1.674  -4.344  -0.471  0.00  0.00    +0.007 C 
ATOM     17  C   UNL     1      -1.758  -4.906  -1.917  0.00  0.00    +0.037 C 
ATOM     18  C   UNL     1      -2.114  -3.707  -2.834  0.00  0.00    +0.089 C 
ATOM     19  C   UNL     1      -3.784  -2.546  -1.431  0.00  0.00    +0.014 C 
ENDROOT
BRANCH  18  20
ATOM     20  O   UNL     1      -3.331  -3.977  -3.537  0.00  0.00    -0.386 OA
ATOM     21  H   UNL     1      -3.271  -4.715  -4.159  0.00  0.00    +0.210 HD
ENDBRANCH  18  20
BRANCH  18  22
ATOM     22  C   UNL     1      -0.983  -3.445  -3.824  0.00  0.00    +0.147 C 
BRANCH  22  23
ATOM     23  N   UNL     1      -0.829  -4.602  -4.708  0.00  0.00    -0.387 N 
ATOM     24  C   UNL     1      -1.071  -4.486  -5.974  0.00  0.00    +0.090 C 
ATOM     25  H   UNL     1      -0.546  -5.456  -4.344  0.00  0.00    +0.159 HD
BRANCH  24  26
ATOM     26  C   UNL     1      -0.810  -5.619  -6.881  0.00  0.00    +0.036 A 
ATOM     27  C   UNL     1      -0.959  -5.461  -8.262  0.00  0.00    +0.013 A 
ATOM     28  C   UNL     1      -0.714  -6.522  -9.107  0.00  0.00    +0.004 A 
ATOM     29  C   UNL     1      -0.321  -7.747  -8.595  0.00  0.00    +0.049 A 
ATOM     30  C   UNL     1      -0.169  -7.919  -7.229  0.00  0.00    +0.162 A 
ATOM     31  C   UNL     1      -0.407  -6.856  -6.364  0.00  0.00    +0.167 A 
BRANCH  31  32
ATOM     32  O   UNL     1      -0.254  -7.018  -5.024  0.00  0.00    -0.503 OA
ATOM     33  H   UNL     1      -1.055  -7.313  -4.570  0.00  0.00    +0.292 HD
ENDBRANCH  31  32
BRANCH  30  34
ATOM     34  O   UNL     1       0.217  -9.125  -6.734  0.00  0.00    -0.491 OA
ATOM     35  C   UNL     1       0.450 -10.170  -7.680  0.00  0.00    +0.277 C 
ENDBRANCH  30  34
ENDBRANCH  24  26
ENDBRANCH  22  23
ENDBRANCH  18  22
TORSDOF 6
