REMARK  Name = ZINC00956146
REMARK  9 active torsions:
REMARK  status: ('A' for Active; 'I' for Inactive)
REMARK    1  A    between atoms: C_1  and  C_2
REMARK    2  A    between atoms: C_4  and  C_34
REMARK    3  A    between atoms: C_6  and  O_8
REMARK    4  A    between atoms: O_8  and  C_9
REMARK    5  A    between atoms: C_15  and  O_33
REMARK    6  A    between atoms: C_16  and  C_24
REMARK    7  A    between atoms: C_19  and  C_20
REMARK    8  A    between atoms: C_24  and  N_25
REMARK    9  A    between atoms: C_29  and  C_32
REMARK                            x       y       z     vdW  Elec       q    Type
REMARK                         _______ _______ _______ _____ _____    ______ ____
ROOT
ATOM      1  C   UNL     1      -0.062  -1.914   3.417  0.00  0.00    +0.222 A 
ATOM      2  C   UNL     1       0.174  -2.569   4.660  0.00  0.00    +0.235 A 
ATOM      3  O   UNL     1       0.361  -3.773   4.718  0.00  0.00    -0.283 OA
ATOM      4  C   UNL     1       0.183  -1.732   5.872  0.00  0.00    +0.068 A 
ATOM      5  C   UNL     1       0.406  -2.282   7.135  0.00  0.00    +0.019 A 
ATOM      6  C   UNL     1       0.407  -1.474   8.235  0.00  0.00    +0.046 A 
ATOM      7  C   UNL     1       0.188  -0.104   8.104  0.00  0.00    +0.122 A 
ATOM      8  C   UNL     1      -0.035   0.458   6.858  0.00  0.00    +0.020 A 
ATOM      9  C   UNL     1      -0.040  -0.350   5.729  0.00  0.00    +0.144 A 
ATOM     10  O   UNL     1      -0.254   0.171   4.505  0.00  0.00    -0.447 OA
ATOM     11  C   UNL     1      -0.259  -0.581   3.396  0.00  0.00    +0.254 A 
ENDROOT
BRANCH  11  12
ATOM     12  C   UNL     1      -0.501   0.092   2.069  0.00  0.00    +0.454 C 
ATOM     13  F   UNL     1      -0.338  -0.839   1.038  0.00  0.00    -0.163 F 
ATOM     14  F   UNL     1      -1.803   0.602   2.035  0.00  0.00    -0.163 F 
ATOM     15  F   UNL     1       0.414   1.137   1.902  0.00  0.00    -0.163 F 
ENDBRANCH  11  12
BRANCH   7  16
ATOM     16  O   UNL     1       0.192   0.687   9.207  0.00  0.00    -0.506 OA
ATOM     17  H   UNL     1       1.062   1.046   9.430  0.00  0.00    +0.292 HD
ENDBRANCH   7  16
BRANCH   1  18
ATOM     18  O   UNL     1      -0.083  -2.629   2.259  0.00  0.00    -0.448 OA
BRANCH  18  24
ATOM     19  C   UNL     1      -4.269  -4.594   3.820  0.00  0.00    +0.044 C 
ATOM     20  C   UNL     1      -3.149  -4.506   2.816  0.00  0.00    -0.047 A 
ATOM     21  C   UNL     1      -3.148  -5.334   1.708  0.00  0.00    +0.007 A 
ATOM     22  C   UNL     1      -2.122  -5.256   0.785  0.00  0.00    -0.047 A 
ATOM     23  C   UNL     1      -1.094  -4.351   0.967  0.00  0.00    +0.049 A 
ATOM     24  C   UNL     1      -1.093  -3.519   2.077  0.00  0.00    +0.129 A 
ATOM     25  C   UNL     1      -2.127  -3.595   2.999  0.00  0.00    +0.049 A 
ATOM     26  C   UNL     1      -2.124  -6.160  -0.421  0.00  0.00    +0.044 C 
ENDBRANCH  18  24
ENDBRANCH   1  18
BRANCH   8  27
ATOM     27  C   UNL     1      -0.273   1.940   6.728  0.00  0.00    -0.036 C 
BRANCH  27  28
ATOM     28  N   UNL     1       1.011   2.626   6.534  0.00  0.00    +0.383 N 
ATOM     29  C   UNL     1       1.839   2.461   7.735  0.00  0.00    -0.078 C 
ATOM     30  C   UNL     1       3.208   3.105   7.508  0.00  0.00    -0.018 C 
ATOM     31  C   UNL     1       3.023   4.596   7.216  0.00  0.00    -0.001 C 
ATOM     32  C   UNL     1       2.098   4.758   6.006  0.00  0.00    -0.031 C 
ATOM     33  C   UNL     1       0.769   4.053   6.289  0.00  0.00    -0.075 C 
ATOM     34  C   UNL     1       1.844   6.245   5.752  0.00  0.00    +0.005 C 
ATOM     35  H   UNL     1       1.489   2.226   5.741  0.00  0.00    -0.081 HD
ENDBRANCH  27  28
ENDBRANCH   8  27
TORSDOF 6
