REMARK  Name = ZINC20009085
REMARK  4 active torsions:
REMARK  status: ('A' for Active; 'I' for Inactive)
REMARK    1  A    between atoms: C_3  and  C_9
REMARK    2  A    between atoms: C_9  and  C_11
REMARK    3  A    between atoms: C_9  and  N_21
REMARK    4  A    between atoms: C_13  and  N_18
REMARK                            x       y       z     vdW  Elec       q    Type
REMARK                         _______ _______ _______ _____ _____    ______ ____
ROOT
ATOM      1  C   UNL     1       3.714  -0.703  -0.038  0.00  0.00    +0.113 C 
ENDROOT
BRANCH   1   4
ATOM      2  C   UNL     1       1.171   2.087   0.002  0.00  0.00    +0.002 A 
ATOM      3  C   UNL     1       2.378   1.412  -0.013  0.00  0.00    +0.007 A 
ATOM      4  C   UNL     1       2.398   0.030  -0.021  0.00  0.00    -0.007 A 
ATOM      5  C   UNL     1       1.211  -0.679  -0.013  0.00  0.00    +0.064 A 
ATOM      6  C   UNL     1       0.002  -0.004   0.002  0.00  0.00    +0.060 A 
ATOM      7  C   UNL     1      -0.017   1.379   0.010  0.00  0.00    +0.021 A 
ATOM      8 CL   UNL     1      -1.489  -0.893   0.011  0.00  0.00    -0.082 Cl
ATOM      9 CL   UNL     1       1.236  -2.415  -0.022  0.00  0.00    -0.082 Cl
ENDBRANCH   1   4
BRANCH   1  10
ATOM     10  C   UNL     1       4.047  -1.171   1.356  0.00  0.00    -0.023 A 
ATOM     11  C   UNL     1       3.802  -2.482   1.721  0.00  0.00    +0.038 A 
ATOM     12  C   UNL     1       4.111  -2.914   2.998  0.00  0.00    +0.128 A 
ATOM     13  C   UNL     1       4.655  -2.032   3.913  0.00  0.00    +0.052 A 
ATOM     14  C   UNL     1       4.894  -0.719   3.550  0.00  0.00    +0.043 A 
ATOM     15  C   UNL     1       4.590  -0.289   2.270  0.00  0.00    +0.025 A 
ATOM     16 CL   UNL     1       5.576   0.390   4.699  0.00  0.00    -0.083 Cl
BRANCH  12  17
ATOM     17  N   UNL     1       3.855  -4.319   3.386  0.00  0.00    +0.056 N 
ATOM     18  O   UNL     1       4.123  -4.698   4.512  0.00  0.00    -0.126 OA
ATOM     19  O   UNL     1       3.377  -5.096   2.579  0.00  0.00    -0.126 OA
ENDBRANCH  12  17
ENDBRANCH   1  10
BRANCH   1  20
ATOM     20  N   UNL     1       4.771   0.198  -0.516  0.00  0.00    -0.320 NA
ATOM     21  H   UNL     1       5.732  -0.338  -0.529  0.00  0.00    +0.119 HD
ATOM     22  H   UNL     1       4.529   0.539  -1.534  0.00  0.00    +0.119 HD
ENDBRANCH   1  20
TORSDOF 4
