REMARK  Name = ZINC36582906
REMARK  25 active torsions:
REMARK  status: ('A' for Active; 'I' for Inactive)
REMARK    1  A    between atoms: C_1  and  C_2
REMARK    2  A    between atoms: C_2  and  C_3
REMARK    3  A    between atoms: C_3  and  C_4
REMARK    4  A    between atoms: C_4  and  C_5
REMARK    5  A    between atoms: C_5  and  C_7
REMARK    6  A    between atoms: C_5  and  C_9
REMARK    7  A    between atoms: C_7  and  C_8
REMARK    8  A    between atoms: N_11  and  C_12
REMARK    9  A    between atoms: N_11  and  C_34
REMARK   10  A    between atoms: C_12  and  C_14
REMARK   11  A    between atoms: C_12  and  C_23
REMARK   12  A    between atoms: C_17  and  O_22
REMARK   13  A    between atoms: C_18  and  O_20
REMARK   14  A    between atoms: O_20  and  C_21
REMARK   15  A    between atoms: N_25  and  C_26
REMARK   16  A    between atoms: C_26  and  C_27
REMARK   17  A    between atoms: C_26  and  C_28
REMARK   18  A    between atoms: C_26  and  C_29
REMARK   19  A    between atoms: C_29  and  C_30
REMARK   20  A    between atoms: C_30  and  C_31
REMARK   21  A    between atoms: C_30  and  C_32
REMARK   22  A    between atoms: C_30  and  C_33
REMARK   23  A    between atoms: C_34  and  C_35
REMARK   24  A    between atoms: C_34  and  C_36
REMARK   25  A    between atoms: C_34  and  C_37
REMARK                            x       y       z     vdW  Elec       q    Type
REMARK                         _______ _______ _______ _____ _____    ______ ____
ROOT
ATOM      1  C   UNL     1       4.114  -6.697  -5.432  0.00  0.00    +0.193 C 
ENDROOT
BRANCH   1   2
ATOM      2  C   UNL     1       3.695  -7.692  -6.485  0.00  0.00    -0.015 A 
ATOM      3  C   UNL     1       3.063  -7.255  -7.634  0.00  0.00    +0.010 A 
ATOM      4  C   UNL     1       2.677  -8.163  -8.602  0.00  0.00    +0.049 A 
ATOM      5  C   UNL     1       2.925  -9.514  -8.422  0.00  0.00    +0.158 A 
ATOM      6  C   UNL     1       3.562  -9.954  -7.266  0.00  0.00    +0.162 A 
ATOM      7  C   UNL     1       3.950  -9.038  -6.302  0.00  0.00    +0.055 A 
BRANCH   6   8
ATOM      8  O   UNL     1       3.808 -11.279  -7.085  0.00  0.00    -0.491 OA
ATOM      9  C   UNL     1       4.465 -11.658  -5.874  0.00  0.00    +0.277 C 
ENDBRANCH   6   8
BRANCH   5  10
ATOM     10  O   UNL     1       2.546 -10.409  -9.374  0.00  0.00    -0.503 OA
ATOM     11  H   UNL     1       3.220 -10.577 -10.047  0.00  0.00    +0.292 HD
ENDBRANCH   5  10
ENDBRANCH   1   2
BRANCH   1  12
ATOM     12  C   UNL     1       5.341  -5.958  -5.899  0.00  0.00    +0.239 C 
ATOM     13  O   UNL     1       5.353  -4.745  -5.905  0.00  0.00    -0.273 OA
ATOM     14  N   UNL     1       6.426  -6.645  -6.309  0.00  0.00    -0.308 N 
ATOM     15  H   UNL     1       6.416  -7.615  -6.304  0.00  0.00    +0.149 HD
BRANCH  14  16
ATOM     16  C   UNL     1       7.619  -5.926  -6.763  0.00  0.00    +0.030 C 
ATOM     17  C   UNL     1       7.278  -5.107  -8.010  0.00  0.00    +0.031 C 
ATOM     18  C   UNL     1       8.103  -4.990  -5.654  0.00  0.00    +0.031 C 
BRANCH  16  19
ATOM     19  C   UNL     1       8.722  -6.931  -7.100  0.00  0.00    +0.031 C 
BRANCH  19  20
ATOM     20  C   UNL     1       9.230  -7.582  -5.812  0.00  0.00    -0.036 C 
ATOM     21  C   UNL     1       8.055  -7.809  -4.858  0.00  0.00    +0.010 C 
ATOM     22  C   UNL     1       9.886  -8.924  -6.142  0.00  0.00    +0.010 C 
ATOM     23  C   UNL     1      10.257  -6.663  -5.146  0.00  0.00    +0.010 C 
ENDBRANCH  19  20
ENDBRANCH  16  19
ENDBRANCH  14  16
ENDBRANCH   1  12
BRANCH   1  26
ATOM     24  C   UNL     1       2.778  -4.774  -6.107  0.00  0.00    +0.220 C 
ATOM     25  O   UNL     1       3.490  -4.658  -7.082  0.00  0.00    -0.275 OA
ATOM     26  N   UNL     1       3.026  -5.743  -5.203  0.00  0.00    -0.281 N 
BRANCH  26  27
ATOM     27  C   UNL     1       2.209  -5.841  -3.991  0.00  0.00    +0.030 C 
ATOM     28  C   UNL     1       0.789  -5.357  -4.293  0.00  0.00    +0.031 C 
ATOM     29  C   UNL     1       2.162  -7.297  -3.524  0.00  0.00    +0.031 C 
ATOM     30  C   UNL     1       2.821  -4.971  -2.891  0.00  0.00    +0.031 C 
ENDBRANCH  26  27
BRANCH  24  31
ATOM     31  C   UNL     1       1.616  -3.836  -5.905  0.00  0.00    +0.075 C 
BRANCH  31  32
ATOM     32  C   UNL     1       1.891  -2.935  -4.699  0.00  0.00    +0.009 C 
ATOM     33  C   UNL     1       3.312  -2.375  -4.795  0.00  0.00    +0.004 C 
ENDBRANCH  31  32
BRANCH  31  34
ATOM     34  C   UNL     1       1.436  -2.972  -7.156  0.00  0.00    +0.013 C 
BRANCH  34  35
ATOM     35  C   UNL     1       0.238  -2.040  -6.963  0.00  0.00    +0.000 C 
BRANCH  35  37
ATOM     36  C   UNL     1      -1.067  -0.161  -7.967  0.00  0.00    +0.004 C 
ATOM     37  C   UNL     1       0.131  -1.093  -8.160  0.00  0.00    -0.003 C 
ENDBRANCH  35  37
ENDBRANCH  34  35
ENDBRANCH  31  34
ENDBRANCH  24  31
ENDBRANCH   1  26
TORSDOF 14
