REMARK  Name = ZINC45451932
REMARK  9 active torsions:
REMARK  status: ('A' for Active; 'I' for Inactive)
REMARK    1  A    between atoms: C_1  and  C_2
REMARK    2  A    between atoms: C_2  and  O_3
REMARK    3  A    between atoms: O_3  and  C_4
REMARK    4  A    between atoms: C_4  and  C_6
REMARK    5  A    between atoms: C_7  and  C_19
REMARK    6  A    between atoms: C_12  and  C_14
REMARK    7  A    between atoms: C_19  and  N_20
REMARK    8  A    between atoms: C_27  and  C_36
REMARK    9  A    between atoms: C_28  and  C_30
REMARK                            x       y       z     vdW  Elec       q    Type
REMARK                         _______ _______ _______ _____ _____    ______ ____
ROOT
ATOM      1  C   UNL     1      -1.591  -2.366   0.300  0.00  0.00    +0.083 C 
ATOM      2  C   UNL     1      -2.053  -3.613   0.066  0.00  0.00    +0.044 C 
ATOM      3  N   UNL     1      -3.393  -3.866  -0.007  0.00  0.00    -0.271 N 
ATOM      4  C   UNL     1      -4.335  -2.927   0.143  0.00  0.00    +0.304 C 
ATOM      5  O   UNL     1      -5.505  -3.249   0.062  0.00  0.00    -0.252 OA
ATOM      6  N   UNL     1      -4.030  -1.636   0.382  0.00  0.00    -0.285 N 
ATOM      7  C   UNL     1      -2.610  -1.260   0.485  0.00  0.00    +0.179 C 
ATOM      8  H   UNL     1      -3.678  -4.778  -0.177  0.00  0.00    +0.156 HD
ATOM      9  H   UNL     1      -4.729  -0.972   0.487  0.00  0.00    +0.151 HD
ENDROOT
BRANCH   7  10
ATOM     10  C   UNL     1      -2.385  -0.643   1.842  0.00  0.00    +0.130 A 
ATOM     11  C   UNL     1      -1.729   0.506   2.084  0.00  0.00    +0.047 A 
ATOM     12  C   UNL     1      -1.756   0.705   3.484  0.00  0.00    +0.041 A 
ATOM     13  C   UNL     1      -2.426  -0.334   4.013  0.00  0.00    +0.195 A 
ATOM     14  O   UNL     1      -2.810  -1.145   3.013  0.00  0.00    -0.466 OA
ENDBRANCH   7  10
BRANCH   1  15
ATOM     15  C   UNL     1      -0.203  -2.102   0.376  0.00  0.00    +0.339 C 
ATOM     16  O   UNL     1       0.343  -2.025   1.460  0.00  0.00    -0.245 OA
BRANCH  15  17
ATOM     17  O   UNL     1       0.515  -1.937  -0.754  0.00  0.00    -0.462 OA
BRANCH  17  19
ATOM     18  C   UNL     1       2.553  -1.516  -1.983  0.00  0.00    +0.048 C 
ATOM     19  C   UNL     1       1.911  -1.673  -0.603  0.00  0.00    +0.229 C 
ENDBRANCH  17  19
ENDBRANCH  15  17
ENDBRANCH   1  15
BRANCH   2  20
ATOM     20  C   UNL     1      -1.074  -4.744  -0.119  0.00  0.00    +0.177 C 
BRANCH  20  21
ATOM     21  N   UNL     1      -1.223  -5.703   0.978  0.00  0.00    -0.293 N 
ATOM     22  C   UNL     1      -0.488  -5.540   2.108  0.00  0.00    +0.203 A 
ATOM     23  N   UNL     1      -0.593  -6.374   3.108  0.00  0.00    -0.230 NA
ATOM     24  C   UNL     1      -1.422  -7.410   3.052  0.00  0.00    +0.116 A 
ATOM     25  C   UNL     1      -2.227  -7.664   1.923  0.00  0.00    +0.076 A 
ATOM     26  C   UNL     1      -2.090  -6.724   0.846  0.00  0.00    +0.263 A 
ATOM     27  O   UNL     1      -2.745  -6.852  -0.173  0.00  0.00    -0.267 OA
ATOM     28  C   UNL     1      -3.054  -8.795   2.006  0.00  0.00    -0.021 A 
ATOM     29  C   UNL     1      -3.040  -9.561   3.127  0.00  0.00    +0.025 A 
ATOM     30  S   UNL     1      -1.844  -8.732   4.159  0.00  0.00    -0.068 S 
ATOM     31  C   UNL     1      -3.955  -9.157   0.854  0.00  0.00    +0.046 C 
BRANCH  29  32
ATOM     32  C   UNL     1      -3.822 -10.781   3.419  0.00  0.00    -0.011 A 
ATOM     33  C   UNL     1      -3.891 -11.812   2.480  0.00  0.00    +0.009 A 
ATOM     34  C   UNL     1      -4.622 -12.948   2.759  0.00  0.00    +0.001 A 
ATOM     35  C   UNL     1      -5.287 -13.067   3.967  0.00  0.00    +0.000 A 
ATOM     36  C   UNL     1      -5.223 -12.049   4.902  0.00  0.00    +0.001 A 
ATOM     37  C   UNL     1      -4.491 -10.910   4.638  0.00  0.00    +0.009 A 
ENDBRANCH  29  32
ENDBRANCH  20  21
ENDBRANCH   2  20
TORSDOF 7
