REMARK  Name = ZINC36316075
REMARK  16 active torsions:
REMARK  status: ('A' for Active; 'I' for Inactive)
REMARK    1  A    between atoms: C_1  and  C_2
REMARK    2  A    between atoms: C_5  and  O_8
REMARK    3  A    between atoms: O_8  and  C_9
REMARK    4  A    between atoms: C_10  and  C_21
REMARK    5  A    between atoms: C_11  and  C_15
REMARK    6  A    between atoms: N_13  and  C_14
REMARK    7  A    between atoms: C_21  and  N_22
REMARK    8  A    between atoms: N_22  and  C_23
REMARK    9  A    between atoms: N_22  and  C_30
REMARK   10  A    between atoms: C_23  and  C_24
REMARK   11  A    between atoms: C_30  and  C_31
REMARK   12  A    between atoms: C_31  and  C_33
REMARK   13  A    between atoms: C_31  and  O_38
REMARK   14  A    between atoms: C_33  and  O_34
REMARK   15  A    between atoms: O_34  and  C_35
REMARK   16  A    between atoms: C_35  and  C_36
REMARK                            x       y       z     vdW  Elec       q    Type
REMARK                         _______ _______ _______ _____ _____    ______ ____
ROOT
ATOM      1  C   UNL     1       0.270  -5.946   2.830  0.00  0.00    +0.221 A 
ATOM      2  C   UNL     1       0.644  -5.783   1.535  0.00  0.00    +0.025 A 
ATOM      3  C   UNL     1       1.284  -4.534   1.425  0.00  0.00    +0.098 A 
ATOM      4  N   UNL     1       1.292  -3.972   2.615  0.00  0.00    -0.168 NA
ATOM      5  N   UNL     1       0.655  -4.837   3.514  0.00  0.00    -0.235 N 
ATOM      6  C   UNL     1       0.444  -4.591   4.942  0.00  0.00    +0.176 C 
ENDROOT
BRANCH   3   7
ATOM      7  C   UNL     1       1.853  -3.953   0.184  0.00  0.00    +0.002 A 
ATOM      8  C   UNL     1       2.585  -4.753  -0.691  0.00  0.00    +0.010 A 
ATOM      9  C   UNL     1       3.111  -4.208  -1.845  0.00  0.00    +0.001 A 
ATOM     10  C   UNL     1       2.913  -2.869  -2.133  0.00  0.00    +0.000 A 
ATOM     11  C   UNL     1       2.188  -2.071  -1.268  0.00  0.00    +0.001 A 
ATOM     12  C   UNL     1       1.653  -2.607  -0.114  0.00  0.00    +0.010 A 
ENDBRANCH   3   7
BRANCH   1  13
ATOM     13  O   UNL     1      -0.377  -7.021   3.347  0.00  0.00    -0.438 OA
BRANCH  13  18
ATOM     14  C   UNL     1      -6.006  -7.060   3.161  0.00  0.00    +0.044 C 
ATOM     15  C   UNL     1      -4.500  -7.050   3.211  0.00  0.00    -0.050 A 
ATOM     16  C   UNL     1      -3.817  -8.160   3.671  0.00  0.00    +0.007 A 
ATOM     17  C   UNL     1      -2.436  -8.153   3.717  0.00  0.00    +0.046 A 
ATOM     18  C   UNL     1      -1.735  -7.030   3.302  0.00  0.00    +0.130 A 
ATOM     19  C   UNL     1      -2.423  -5.917   2.840  0.00  0.00    +0.046 A 
ATOM     20  C   UNL     1      -3.803  -5.931   2.791  0.00  0.00    +0.007 A 
ENDBRANCH  13  18
ENDBRANCH   1  13
BRANCH   2  21
ATOM     21  C   UNL     1       0.414  -6.764   0.415  0.00  0.00    -0.035 C 
BRANCH  21  22
ATOM     22  N   UNL     1       1.514  -7.738   0.384  0.00  0.00    +0.386 N 
ATOM     23  H   UNL     1       2.388  -7.254   0.244  0.00  0.00    -0.081 HD
BRANCH  22  24
ATOM     24  C   UNL     1       1.297  -8.686  -0.718  0.00  0.00    -0.046 C 
BRANCH  24  25
ATOM     25  C   UNL     1       1.417  -7.951  -2.054  0.00  0.00    +0.102 C 
ATOM     26  C   UNL     1       1.288  -8.950  -3.231  0.00  0.00    +0.032 C 
ATOM     27  C   UNL     1       0.792  -8.010  -4.364  0.00  0.00    +0.030 C 
ATOM     28  C   UNL     1      -0.086  -7.002  -3.591  0.00  0.00    +0.160 C 
ATOM     29  O   UNL     1       0.324  -7.033  -2.218  0.00  0.00    -0.378 OA
ENDBRANCH  24  25
ENDBRANCH  22  24
BRANCH  22  30
ATOM     30  C   UNL     1       1.557  -8.469   1.657  0.00  0.00    -0.044 C 
BRANCH  30  31
ATOM     31  C   UNL     1       2.874  -9.242   1.757  0.00  0.00    +0.124 C 
BRANCH  31  32
ATOM     32  O   UNL     1       2.870 -10.313   0.812  0.00  0.00    -0.391 OA
ATOM     33  H   UNL     1       2.155 -10.951   0.943  0.00  0.00    +0.210 HD
ENDBRANCH  31  32
BRANCH  31  34
ATOM     34  C   UNL     1       3.027  -9.808   3.170  0.00  0.00    +0.189 C 
BRANCH  34  35
ATOM     35  O   UNL     1       4.307 -10.429   3.299  0.00  0.00    -0.373 OA
BRANCH  35  36
ATOM     36  C   UNL     1       4.553 -10.993   4.588  0.00  0.00    +0.186 C 
BRANCH  36  37
ATOM     37  C   UNL     1       5.924 -11.618   4.611  0.00  0.00    -0.007 C 
ATOM     38  C   UNL     1       6.721 -11.411   5.629  0.00  0.00    +0.006 C 
ENDBRANCH  36  37
ENDBRANCH  35  36
ENDBRANCH  34  35
ENDBRANCH  31  34
ENDBRANCH  30  31
ENDBRANCH  22  30
ENDBRANCH  21  22
ENDBRANCH   2  21
TORSDOF 14
