REMARK  Name = ZINC43528164
REMARK  6 active torsions:
REMARK  status: ('A' for Active; 'I' for Inactive)
REMARK    1  A    between atoms: C_1  and  C_2
REMARK    2  A    between atoms: C_4  and  C_29
REMARK    3  A    between atoms: C_6  and  C_8
REMARK    4  A    between atoms: C_17  and  C_19
REMARK    5  A    between atoms: C_19  and  N_20
REMARK    6  A    between atoms: C_32  and  C_35
REMARK                            x       y       z     vdW  Elec       q    Type
REMARK                         _______ _______ _______ _____ _____    ______ ____
ROOT
ATOM      1  C   UNL     1       0.052  -2.698   2.512  0.00  0.00    +0.024 C 
ATOM      2  C   UNL     1      -0.752  -3.994   2.395  0.00  0.00    -0.068 C 
ATOM      3  N   UNL     1       0.108  -5.145   2.681  0.00  0.00    +0.383 N 
ATOM      4  C   UNL     1       1.206  -5.221   1.716  0.00  0.00    -0.078 C 
ATOM      5  C   UNL     1       2.075  -3.965   1.810  0.00  0.00    -0.015 C 
ATOM      6  C   UNL     1       1.498  -3.041   2.894  0.00  0.00    -0.007 C 
ATOM      7  C   UNL     1       1.478  -3.809   4.223  0.00  0.00    -0.010 C 
ATOM      8  C   UNL     1       0.627  -5.073   4.049  0.00  0.00    -0.051 C 
ATOM      9  H   UNL     1      -0.444  -5.986   2.593  0.00  0.00    -0.081 HD
ENDROOT
BRANCH   1  15
ATOM     10  C   UNL     1      -0.014   1.505   0.013  0.00  0.00    +0.088 C 
ATOM     11  C   UNL     1       0.007  -0.002   0.004  0.00  0.00    +0.127 A 
ATOM     12  N   UNL     1       0.011  -0.635  -1.150  0.00  0.00    -0.232 NA
ATOM     13  C   UNL     1       0.030  -1.965  -1.196  0.00  0.00    +0.075 A 
ATOM     14  C   UNL     1       0.044  -2.682   0.004  0.00  0.00    +0.052 A 
ATOM     15  C   UNL     1       0.038  -1.973   1.191  0.00  0.00    +0.047 A 
ATOM     16  N   UNL     1       0.025  -0.649   1.153  0.00  0.00    -0.237 NA
BRANCH  13  17
ATOM     17  C   UNL     1       0.035  -2.675  -2.498  0.00  0.00    +0.000 A 
ATOM     18  C   UNL     1       0.048  -4.068  -2.536  0.00  0.00    +0.010 A 
ATOM     19  C   UNL     1       0.052  -4.723  -3.751  0.00  0.00    +0.013 A 
ATOM     20  C   UNL     1       0.044  -4.000  -4.929  0.00  0.00    +0.055 A 
ATOM     21  C   UNL     1       0.032  -2.617  -4.898  0.00  0.00    +0.013 A 
ATOM     22  C   UNL     1       0.020  -1.951  -3.689  0.00  0.00    +0.010 A 
BRANCH  20  23
ATOM     23  C   UNL     1       0.050  -4.721  -6.253  0.00  0.00    +0.417 C 
ATOM     24  F   UNL     1      -1.267  -4.956  -6.661  0.00  0.00    -0.166 F 
ATOM     25  F   UNL     1       0.701  -3.934  -7.210  0.00  0.00    -0.166 F 
ATOM     26  F   UNL     1       0.721  -5.940  -6.116  0.00  0.00    -0.166 F 
ENDBRANCH  20  23
ENDBRANCH  13  17
ENDBRANCH   1  15
BRANCH   8  27
ATOM     27  C   UNL     1       1.486  -6.307   4.332  0.00  0.00    +0.090 C 
BRANCH  27  28
ATOM     28  N   UNL     1       0.705  -7.518   4.065  0.00  0.00    -0.301 N 
ATOM     29  C   UNL     1       1.260  -8.732   4.246  0.00  0.00    +0.302 C 
ATOM     30  O   UNL     1       2.437  -8.825   4.541  0.00  0.00    -0.253 OA
ATOM     31  N   UNL     1       0.513  -9.844   4.101  0.00  0.00    -0.281 N 
ATOM     32  C   UNL     1       1.065 -11.173   4.404  0.00  0.00    +0.137 C 
ATOM     33  C   UNL     1       0.089 -11.901   5.336  0.00  0.00    +0.179 C 
ATOM     34  O   UNL     1      -1.219 -11.874   4.761  0.00  0.00    -0.377 OA
ATOM     35  C   UNL     1      -1.762 -10.560   4.603  0.00  0.00    +0.179 C 
ATOM     36  C   UNL     1      -0.882  -9.763   3.639  0.00  0.00    +0.137 C 
ATOM     37  H   UNL     1      -0.213  -7.445   3.759  0.00  0.00    +0.150 HD
ENDBRANCH  27  28
ENDBRANCH   8  27
TORSDOF 5
