REMARK  Name = ZINC00694803
REMARK  5 active torsions:
REMARK  status: ('A' for Active; 'I' for Inactive)
REMARK    1  A    between atoms: C_1  and  C_2
REMARK    2  A    between atoms: C_2  and  C_22
REMARK    3  A    between atoms: N_3  and  N_4
REMARK    4  A    between atoms: C_5  and  C_7
REMARK    5  A    between atoms: C_23  and  C_24
REMARK                            x       y       z     vdW  Elec       q    Type
REMARK                         _______ _______ _______ _____ _____    ______ ____
ROOT
ATOM      1  N   UNL     1      -1.065  -0.825   0.099  0.00  0.00    -0.204 N 
ATOM      2  C   UNL     1      -0.946  -2.165   0.179  0.00  0.00    +0.276 C 
ATOM      3  O   UNL     1       0.153  -2.679   0.159  0.00  0.00    -0.270 OA
ATOM      4  H   UNL     1      -1.944  -0.414   0.115  0.00  0.00    +0.177 HD
ENDROOT
BRANCH   2   5
ATOM      5  C   UNL     1      -2.178  -3.026   0.294  0.00  0.00    +0.297 C 
ATOM      6  C   UNL     1      -2.881  -2.748   1.630  0.00  0.00    +0.283 C 
ATOM      7  O   UNL     1      -4.042  -3.581   1.708  0.00  0.00    -0.484 OA
ATOM      8  C   UNL     1      -3.879  -4.892   1.373  0.00  0.00    +0.163 A 
ATOM      9  C   UNL     1      -4.830  -5.793   1.761  0.00  0.00    +0.058 A 
ATOM     10  C   UNL     1      -4.689  -7.149   1.425  0.00  0.00    -0.014 A 
ATOM     11  C   UNL     1      -5.650  -8.100   1.809  0.00  0.00    +0.008 A 
ATOM     12  C   UNL     1      -5.482  -9.406   1.464  0.00  0.00    +0.001 A 
ATOM     13  C   UNL     1      -4.368  -9.817   0.734  0.00  0.00    +0.001 A 
ATOM     14  C   UNL     1      -3.417  -8.925   0.345  0.00  0.00    +0.008 A 
ATOM     15  C   UNL     1      -3.556  -7.568   0.682  0.00  0.00    -0.014 A 
ATOM     16  C   UNL     1      -2.594  -6.620   0.298  0.00  0.00    +0.058 A 
ATOM     17  C   UNL     1      -2.757  -5.307   0.641  0.00  0.00    +0.164 A 
ATOM     18  O   UNL     1      -1.806  -4.407   0.261  0.00  0.00    -0.472 OA
ENDBRANCH   2   5
BRANCH   1  21
ATOM     19  C   UNL     1       1.210   2.132   0.015  0.00  0.00    +0.067 C 
ATOM     20  C   UNL     1      -0.028   1.273   0.014  0.00  0.00    +0.056 C 
ATOM     21  N   UNL     1       0.080  -0.025  -0.008  0.00  0.00    -0.185 NA
BRANCH  20  22
ATOM     22  C   UNL     1      -1.311   1.877   0.030  0.00  0.00    +0.025 C 
ATOM     23  C   UNL     1      -1.425   3.218  -0.057  0.00  0.00    +0.010 C 
BRANCH  23  24
ATOM     24  C   UNL     1      -2.757   3.839  -0.152  0.00  0.00    -0.025 A 
ATOM     25  C   UNL     1      -3.905   3.041  -0.157  0.00  0.00    +0.008 A 
ATOM     26  C   UNL     1      -5.149   3.630  -0.240  0.00  0.00    +0.001 A 
ATOM     27  C   UNL     1      -5.262   5.006  -0.330  0.00  0.00    +0.000 A 
ATOM     28  C   UNL     1      -4.130   5.802  -0.331  0.00  0.00    +0.001 A 
ATOM     29  C   UNL     1      -2.880   5.229  -0.242  0.00  0.00    +0.008 A 
ENDBRANCH  23  24
ENDBRANCH  20  22
ENDBRANCH   1  21
TORSDOF 4
