REMARK  Name = ZINC04553427
REMARK  8 active torsions:
REMARK  status: ('A' for Active; 'I' for Inactive)
REMARK    1  A    between atoms: C_1  and  C_2
REMARK    2  A    between atoms: C_2  and  C_3
REMARK    3  A    between atoms: C_3  and  C_4
REMARK    4  A    between atoms: C_3  and  C_5
REMARK    5  A    between atoms: C_3  and  C_6
REMARK    6  A    between atoms: C_15  and  O_27
REMARK    7  A    between atoms: C_17  and  C_20
REMARK    8  A    between atoms: C_23  and  C_26
REMARK                            x       y       z     vdW  Elec       q    Type
REMARK                         _______ _______ _______ _____ _____    ______ ____
ROOT
ATOM      1  C   UNL     1       0.739  -2.027  -1.265  0.00  0.00    -0.000 C 
ATOM      2  C   UNL     1       1.461  -2.524  -2.521  0.00  0.00    +0.009 C 
ATOM      3  C   UNL     1       1.274  -4.035  -2.666  0.00  0.00    +0.037 C 
ATOM      4  C   UNL     1       1.675  -4.705  -1.360  0.00  0.00    -0.023 A 
ATOM      5  C   UNL     1       1.759  -4.000  -0.209  0.00  0.00    -0.004 A 
ATOM      6  S   UNL     1       2.252  -5.184   1.013  0.00  0.00    -0.078 S 
ATOM      7  C   UNL     1       2.339  -6.539   0.062  0.00  0.00    +0.080 A 
ATOM      8  C   UNL     1       1.997  -6.114  -1.227  0.00  0.00    +0.068 A 
ATOM      9  C   UNL     1       2.006  -7.133  -2.309  0.00  0.00    +0.220 C 
ATOM     10  N   UNL     1       2.084  -8.388  -1.959  0.00  0.00    -0.223 NA
ATOM     11  C   UNL     1       2.098  -8.862  -0.581  0.00  0.00    +0.224 C 
ATOM     12  N   UNL     1       2.655  -7.851   0.336  0.00  0.00    -0.313 N 
ATOM     13  C   UNL     1       1.487  -2.539  -0.025  0.00  0.00    +0.046 C 
ATOM     14  H   UNL     1       3.213  -8.097   1.091  0.00  0.00    +0.149 HD
ENDROOT
BRANCH  11  15
ATOM     15  C   UNL     1       0.687  -9.184  -0.158  0.00  0.00    -0.005 A 
ATOM     16  C   UNL     1       0.314  -9.044   1.166  0.00  0.00    +0.007 A 
ATOM     17  C   UNL     1      -0.979  -9.340   1.554  0.00  0.00    +0.004 A 
ATOM     18  C   UNL     1      -1.900  -9.774   0.619  0.00  0.00    -0.050 A 
ATOM     19  C   UNL     1      -1.527  -9.913  -0.705  0.00  0.00    +0.004 A 
ATOM     20  C   UNL     1      -0.234  -9.613  -1.094  0.00  0.00    +0.007 A 
ATOM     21  C   UNL     1      -3.309 -10.097   1.042  0.00  0.00    +0.044 C 
ENDBRANCH  11  15
BRANCH   1  22
ATOM     22  C   UNL     1       0.718  -0.497  -1.257  0.00  0.00    -0.032 C 
ATOM     23  C   UNL     1      -0.022   0.009  -2.496  0.00  0.00    +0.011 C 
ATOM     24  C   UNL     1       2.154   0.032  -1.268  0.00  0.00    +0.011 C 
BRANCH  22  26
ATOM     25  C   UNL     1      -0.019   1.526   0.010  0.00  0.00    +0.004 C 
ATOM     26  C   UNL     1       0.002  -0.004   0.002  0.00  0.00    +0.003 C 
ENDBRANCH  22  26
ENDBRANCH   1  22
BRANCH   9  27
ATOM     27  O   UNL     1       1.937  -6.771  -3.611  0.00  0.00    -0.492 OA
ATOM     28  H   UNL     1       1.950  -7.517  -4.228  0.00  0.00    +0.294 HD
ENDBRANCH   9  27
TORSDOF 4
