REMARK  Name = ZINC09153460
REMARK  9 active torsions:
REMARK  status: ('A' for Active; 'I' for Inactive)
REMARK    1  A    between atoms: C_1  and  C_2
REMARK    2  A    between atoms: C_2  and  C_3
REMARK    3  A    between atoms: C_3  and  N_4
REMARK    4  A    between atoms: N_15  and  C_18
REMARK    5  A    between atoms: C_18  and  C_19
REMARK    6  A    between atoms: N_21  and  C_22
REMARK    7  A    between atoms: C_22  and  C_23
REMARK    8  A    between atoms: C_28  and  C_29
REMARK    9  A    between atoms: C_28  and  N_68
REMARK                            x       y       z     vdW  Elec       q    Type
REMARK                         _______ _______ _______ _____ _____    ______ ____
ROOT
ATOM      1  C   UNL     1       7.214   4.105  -1.467  0.00  0.00    +0.235 C 
ATOM      2  O   UNL     1       6.422   4.024  -2.382  0.00  0.00    -0.274 OA
ATOM      3  N   UNL     1       8.529   4.250  -1.726  0.00  0.00    -0.314 N 
ATOM      4  H   UNL     1       9.163   4.314  -0.994  0.00  0.00    +0.149 HD
ENDROOT
BRANCH   1   5
ATOM      5  C   UNL     1       6.729   4.044  -0.042  0.00  0.00    +0.243 C 
BRANCH   5  17
ATOM      6  N   UNL     1       2.505   1.397  -0.014  0.00  0.00    -0.336 N 
ATOM      7  C   UNL     1       1.183   1.790   0.000  0.00  0.00    +0.050 A 
ATOM      8  C   UNL     1      -0.013   1.076   0.008  0.00  0.00    +0.026 A 
ATOM      9  C   UNL     1      -1.214   1.749   0.017  0.00  0.00    +0.002 A 
ATOM     10  C   UNL     1      -1.246   3.137   0.029  0.00  0.00    +0.001 A 
ATOM     11  C   UNL     1      -0.085   3.857   0.022  0.00  0.00    +0.010 A 
ATOM     12  C   UNL     1       1.143   3.195   0.008  0.00  0.00    +0.009 A 
ATOM     13  C   UNL     1       2.541   3.648  -0.003  0.00  0.00    +0.033 A 
ATOM     14  C   UNL     1       3.331   2.499  -0.017  0.00  0.00    +0.118 A 
ATOM     15  C   UNL     1       4.738   2.647  -0.029  0.00  0.00    +0.292 A 
ATOM     16  O   UNL     1       5.461   1.664  -0.041  0.00  0.00    -0.264 OA
ATOM     17  N   UNL     1       5.272   3.885  -0.029  0.00  0.00    -0.219 N 
ATOM     18  N   UNL     1       4.455   5.020  -0.015  0.00  0.00    -0.175 NA
ATOM     19  C   UNL     1       3.156   4.918  -0.003  0.00  0.00    +0.143 A 
BRANCH   6  20
ATOM     20  C   UNL     1       2.965   0.006  -0.025  0.00  0.00    +0.122 C 
BRANCH  20  22
ATOM     21  C   UNL     1       3.592  -1.924  -1.483  0.00  0.00    +0.005 C 
ATOM     22  C   UNL     1       3.111  -0.471  -1.472  0.00  0.00    +0.018 C 
ENDBRANCH  20  22
ENDBRANCH   6  20
ENDBRANCH   5  17
ENDBRANCH   1   5
BRANCH   3  23
ATOM     23  C   UNL     1       9.001   4.310  -3.111  0.00  0.00    +0.107 C 
BRANCH  23  24
ATOM     24  C   UNL     1      10.522   4.475  -3.125  0.00  0.00    +0.003 C 
ATOM     25  C   UNL     1      10.895   5.831  -2.519  0.00  0.00    -0.014 C 
ATOM     26  C   UNL     1      12.412   6.017  -2.591  0.00  0.00    -0.078 C 
ATOM     27  C   UNL     1      12.544   4.640  -4.581  0.00  0.00    -0.078 C 
ATOM     28  C   UNL     1      11.030   4.413  -4.568  0.00  0.00    -0.014 C 
ATOM     29  N   UNL     1      12.834   5.971  -4.008  0.00  0.00    +0.382 N 
ATOM     30  H   UNL     1      12.312   6.681  -4.534  0.00  0.00    -0.081 HD
BRANCH  29  31
ATOM     31  C   UNL     1      14.279   6.262  -4.113  0.00  0.00    -0.040 C 
BRANCH  31  32
ATOM     32  C   UNL     1      14.598   7.484  -3.291  0.00  0.00    -0.029 A 
ATOM     33  C   UNL     1      14.721   8.716  -3.904  0.00  0.00    +0.004 A 
ATOM     34  C   UNL     1      15.008   9.838  -3.149  0.00  0.00    +0.000 A 
ATOM     35  C   UNL     1      15.184   9.727  -1.782  0.00  0.00    +0.003 A 
ATOM     36  C   UNL     1      15.067   8.495  -1.168  0.00  0.00    +0.038 A 
ATOM     37  C   UNL     1      14.774   7.371  -1.922  0.00  0.00    +0.125 A 
ATOM     38  F   UNL     1      14.660   6.166  -1.323  0.00  0.00    -0.205 F 
ENDBRANCH  31  32
ENDBRANCH  29  31
ENDBRANCH  23  24
ENDBRANCH   3  23
TORSDOF 8
