REMARK  Name = ZINC56955949
REMARK  10 active torsions:
REMARK  status: ('A' for Active; 'I' for Inactive)
REMARK    1  A    between atoms: C_1  and  C_2
REMARK    2  A    between atoms: C_10  and  C_28
REMARK    3  A    between atoms: C_14  and  C_16
REMARK    4  A    between atoms: C_16  and  C_17
REMARK    5  A    between atoms: C_17  and  C_18
REMARK    6  A    between atoms: C_21  and  O_27
REMARK    7  A    between atoms: C_28  and  C_30
REMARK    8  A    between atoms: C_28  and  C_31
REMARK    9  A    between atoms: C_31  and  C_33
REMARK   10  A    between atoms: C_31  and  C_34
REMARK                            x       y       z     vdW  Elec       q    Type
REMARK                         _______ _______ _______ _____ _____    ______ ____
ROOT
ATOM      1  C   UNL     1      -1.261   1.260   1.771  0.00  0.00    +0.012 C 
ATOM      2  C   UNL     1      -0.991  -0.217   1.475  0.00  0.00    +0.012 C 
ATOM      3  C   UNL     1      -1.899  -1.058   2.321  0.00  0.00    -0.023 C 
ATOM      4  C   UNL     1      -1.531  -2.179   2.917  0.00  0.00    -0.001 C 
ATOM      5  C   UNL     1      -0.137  -2.660   2.778  0.00  0.00    -0.048 C 
ATOM      6  C   UNL     1       0.310  -3.595   3.595  0.00  0.00    -0.023 C 
ATOM      7  C   UNL     1       1.740  -4.066   3.522  0.00  0.00    +0.028 C 
ATOM      8  C   UNL     1       2.604  -2.868   3.102  0.00  0.00    +0.008 C 
ATOM      9  C   UNL     1       2.151  -2.411   1.717  0.00  0.00    +0.001 C 
ATOM     10  C   UNL     1       0.690  -2.034   1.694  0.00  0.00    +0.026 C 
ATOM     11  C   UNL     1       0.482  -0.520   1.753  0.00  0.00    +0.003 C 
ENDROOT
BRANCH   9  12
ATOM     12  C   UNL     1       2.386  -3.546   0.718  0.00  0.00    +0.003 C 
ATOM     13  C   UNL     1       1.130  -4.415   0.627  0.00  0.00    +0.008 C 
BRANCH  12  14
ATOM     14  C   UNL     1       2.699  -2.956  -0.659  0.00  0.00    +0.102 C 
ATOM     15  C   UNL     1       3.931  -2.054  -0.561  0.00  0.00    +0.019 C 
BRANCH  14  16
ATOM     16  C   UNL     1       2.971  -4.073  -1.634  0.00  0.00    +0.359 C 
ATOM     17  O   UNL     1       2.919  -5.233  -1.262  0.00  0.00    -0.246 OA
ATOM     18  O   UNL     1       3.242  -3.817  -2.795  0.00  0.00    -0.246 OA
ENDBRANCH  14  16
ENDBRANCH  12  14
ENDBRANCH   9  12
BRANCH  11  19
ATOM     19  C   UNL     1       0.860  -0.003   3.142  0.00  0.00    +0.008 C 
BRANCH  19  20
ATOM     20  C   UNL     1      -0.149  -0.519   4.170  0.00  0.00    +0.045 C 
BRANCH  20  21
ATOM     21  C   UNL     1       0.140   0.117   5.532  0.00  0.00    +0.179 C 
ATOM     22  C   UNL     1      -0.788  -0.490   6.587  0.00  0.00    +0.076 C 
ATOM     23  C   UNL     1      -0.525   0.178   7.940  0.00  0.00    +0.129 C 
ATOM     24  C   UNL     1      -0.783   1.684   7.808  0.00  0.00    +0.152 C 
ATOM     25  C   UNL     1       0.007   2.200   6.625  0.00  0.00    +0.310 C 
ATOM     26  O   UNL     1       0.701   3.183   6.722  0.00  0.00    -0.251 OA
ATOM     27  O   UNL     1      -0.086   1.529   5.458  0.00  0.00    -0.461 OA
BRANCH  23  28
ATOM     28  O   UNL     1      -1.399  -0.376   8.925  0.00  0.00    -0.391 OA
ATOM     29  H   UNL     1      -1.286   0.002   9.808  0.00  0.00    +0.210 HD
ENDBRANCH  23  28
ENDBRANCH  20  21
ENDBRANCH  19  20
ENDBRANCH  11  19
TORSDOF 7
