REMARK  Name = ZINC33251698
REMARK  8 active torsions:
REMARK  status: ('A' for Active; 'I' for Inactive)
REMARK    1  A    between atoms: C_1  and  C_2
REMARK    2  A    between atoms: C_6  and  N_9
REMARK    3  A    between atoms: C_7  and  C_8
REMARK    4  A    between atoms: C_12  and  N_25
REMARK    5  A    between atoms: C_13  and  C_15
REMARK    6  A    between atoms: C_15  and  C_17
REMARK    7  A    between atoms: C_20  and  O_23
REMARK    8  A    between atoms: O_23  and  C_24
REMARK                            x       y       z     vdW  Elec       q    Type
REMARK                         _______ _______ _______ _____ _____    ______ ____
ROOT
ATOM      1  N   UNL     1       1.410   0.582   2.842  0.00  0.00    -0.293 N 
ATOM      2  C   UNL     1       2.135   1.143   3.870  0.00  0.00    +0.165 A 
ATOM      3  N   UNL     1       1.701   1.587   5.040  0.00  0.00    -0.210 NA
ATOM      4  C   UNL     1       2.520   2.098   5.928  0.00  0.00    +0.136 A 
ATOM      5  C   UNL     1       3.878   2.167   5.587  0.00  0.00    +0.102 A 
ATOM      6  S   UNL     1       3.841   1.450   3.950  0.00  0.00    -0.047 S 
ATOM      7  H   UNL     1       1.925   0.210   1.944  0.00  0.00    +0.154 HD
ENDROOT
BRANCH   1  13
ATOM      8  C   UNL     1      -2.887  -0.755   0.864  0.00  0.00    +0.044 C 
ATOM      9  C   UNL     1      -2.090  -0.159   1.996  0.00  0.00    -0.046 A 
ATOM     10  C   UNL     1      -2.735   0.293   3.132  0.00  0.00    +0.004 A 
ATOM     11  C   UNL     1      -2.008   0.845   4.170  0.00  0.00    +0.002 A 
ATOM     12  C   UNL     1      -0.633   0.943   4.077  0.00  0.00    +0.023 A 
ATOM     13  C   UNL     1       0.019   0.484   2.940  0.00  0.00    +0.036 A 
ATOM     14  C   UNL     1      -0.715  -0.070   1.899  0.00  0.00    -0.026 A 
ATOM     15  C   UNL     1      -0.012  -0.569   0.662  0.00  0.00    +0.046 C 
ENDBRANCH   1  13
BRANCH   4  16
ATOM     16  N   UNL     1       2.061   2.557   7.153  0.00  0.00    -0.342 N 
ATOM     17  H   UNL     1       2.767   2.981   7.881  0.00  0.00    +0.144 HD
ATOM     18  H   UNL     1       0.990   2.496   7.396  0.00  0.00    +0.144 HD
ENDBRANCH   4  16
BRANCH   5  19
ATOM     19  C   UNL     1       4.968   2.663   6.327  0.00  0.00    +0.203 C 
ATOM     20  O   UNL     1       4.776   3.230   7.389  0.00  0.00    -0.286 OA
BRANCH  19  21
ATOM     21  C   UNL     1       6.346   2.495   5.818  0.00  0.00    +0.023 A 
ATOM     22  C   UNL     1       6.627   1.507   4.871  0.00  0.00    +0.015 A 
ATOM     23  C   UNL     1       7.910   1.359   4.394  0.00  0.00    +0.046 A 
ATOM     24  C   UNL     1       8.927   2.182   4.862  0.00  0.00    +0.120 A 
ATOM     25  C   UNL     1       8.653   3.161   5.808  0.00  0.00    +0.046 A 
ATOM     26  C   UNL     1       7.371   3.320   6.286  0.00  0.00    +0.015 A 
BRANCH  24  27
ATOM     27  O   UNL     1      10.192   2.028   4.393  0.00  0.00    -0.495 OA
ATOM     28  C   UNL     1      10.404   1.002   3.421  0.00  0.00    +0.277 C 
ENDBRANCH  24  27
ENDBRANCH  19  21
ENDBRANCH   5  19
TORSDOF 5
