REMARK  Name = ZINC20710133
REMARK  7 active torsions:
REMARK  status: ('A' for Active; 'I' for Inactive)
REMARK    1  A    between atoms: C_1  and  C_2
REMARK    2  A    between atoms: C_2  and  N_3
REMARK    3  A    between atoms: N_3  and  C_4
REMARK    4  A    between atoms: C_10  and  C_12
REMARK    5  A    between atoms: C_19  and  C_28
REMARK    6  A    between atoms: C_30  and  N_35
REMARK    7  A    between atoms: C_33  and  O_34
REMARK                            x       y       z     vdW  Elec       q    Type
REMARK                         _______ _______ _______ _____ _____    ______ ____
ROOT
ATOM      1  C   UNL     1       0.810   2.168  -1.174  0.00  0.00    +0.058 A 
ATOM      2  C   UNL     1       0.239   1.177  -0.378  0.00  0.00    +0.015 A 
ATOM      3  C   UNL     1       0.307  -0.144  -0.765  0.00  0.00    +0.001 A 
ATOM      4  C   UNL     1       0.938  -0.483  -1.950  0.00  0.00    +0.006 A 
ATOM      5  C   UNL     1       1.501   0.484  -2.753  0.00  0.00    -0.019 A 
ATOM      6  C   UNL     1       1.460   1.830  -2.379  0.00  0.00    +0.044 A 
ATOM      7  N   UNL     1       2.026   2.860  -3.112  0.00  0.00    -0.336 N 
ATOM      8  C   UNL     1       2.612   2.506  -4.415  0.00  0.00    +0.108 C 
ATOM      9  C   UNL     1       3.307   1.171  -4.242  0.00  0.00    +0.029 C 
ATOM     10  C   UNL     1       2.147   0.147  -4.041  0.00  0.00    +0.049 C 
ATOM     11  C   UNL     1       2.812  -1.159  -4.321  0.00  0.00    -0.023 C 
ATOM     12  C   UNL     1       3.838  -0.959  -5.140  0.00  0.00    -0.030 C 
ATOM     13  C   UNL     1       3.955   0.531  -5.474  0.00  0.00    +0.033 C 
ATOM     14  H   UNL     1       2.050   3.903  -2.764  0.00  0.00    +0.147 HD
ENDROOT
BRANCH   8  15
ATOM     15  C   UNL     1       1.526   2.388  -5.452  0.00  0.00    +0.017 A 
ATOM     16  C   UNL     1       0.221   2.152  -5.064  0.00  0.00    +0.041 A 
ATOM     17  C   UNL     1      -0.777   2.050  -6.015  0.00  0.00    +0.127 A 
ATOM     18  C   UNL     1      -0.471   2.173  -7.358  0.00  0.00    +0.036 A 
ATOM     19  C   UNL     1       0.833   2.403  -7.752  0.00  0.00    +0.048 A 
ATOM     20  C   UNL     1       1.835   2.511  -6.799  0.00  0.00    +0.122 A 
BRANCH  17  21
ATOM     21  N   UNL     1      -2.175   1.804  -5.596  0.00  0.00    +0.056 N 
ATOM     22  O   UNL     1      -3.054   1.709  -6.433  0.00  0.00    -0.126 OA
ATOM     23  O   UNL     1      -2.446   1.696  -4.413  0.00  0.00    -0.126 OA
ENDBRANCH  17  21
BRANCH  20  24
ATOM     24  O   UNL     1       3.119   2.738  -7.184  0.00  0.00    -0.506 OA
ATOM     25  H   UNL     1       3.364   2.836  -8.252  0.00  0.00    +0.292 HD
ENDBRANCH  20  24
ENDBRANCH   8  15
BRANCH   1  27
ATOM     26  N   UNL     1      -0.350   4.026  -0.087  0.00  0.00    -0.268 N 
ATOM     27  C   UNL     1       0.733   3.579  -0.754  0.00  0.00    +0.253 C 
ATOM     28  O   UNL     1       1.647   4.339  -1.008  0.00  0.00    -0.270 OA
BRANCH  26  29
ATOM     29  C   UNL     1      -0.394   5.347   0.369  0.00  0.00    +0.037 A 
ATOM     30  C   UNL     1      -1.566   5.857   0.911  0.00  0.00    +0.023 A 
ATOM     31  C   UNL     1      -1.605   7.161   1.365  0.00  0.00    +0.002 A 
ATOM     32  C   UNL     1      -0.481   7.961   1.272  0.00  0.00    +0.000 A 
ATOM     33  C   UNL     1       0.687   7.457   0.729  0.00  0.00    +0.002 A 
ATOM     34  C   UNL     1       0.734   6.153   0.278  0.00  0.00    +0.023 A 
ENDBRANCH  26  29
BRANCH  26  36
ATOM     35  C   UNL     1      -1.616   2.877   1.661  0.00  0.00    +0.025 C 
ATOM     36  C   UNL     1      -1.481   3.127   0.158  0.00  0.00    +0.110 C 
ENDBRANCH  26  36
ENDBRANCH   1  27
TORSDOF 6
