REMARK  Name = ZINC66587725
REMARK  5 active torsions:
REMARK  status: ('A' for Active; 'I' for Inactive)
REMARK    1  A    between atoms: C_1  and  C_2
REMARK    2  A    between atoms: C_4  and  C_23
REMARK    3  A    between atoms: N_8  and  S_12
REMARK    4  A    between atoms: S_12  and  C_15
REMARK    5  A    between atoms: C_18  and  N_20
REMARK                            x       y       z     vdW  Elec       q    Type
REMARK                         _______ _______ _______ _____ _____    ______ ____
ROOT
ATOM      1  C   UNL     1      -0.228   1.517   0.052  0.00  0.00    +0.044 C 
ATOM      2  C   UNL     1      -0.152   0.012   0.029  0.00  0.00    -0.048 A 
ATOM      3  C   UNL     1      -0.148  -0.663  -1.178  0.00  0.00    +0.007 A 
ATOM      4  C   UNL     1      -0.081  -2.042  -1.201  0.00  0.00    -0.045 A 
ATOM      5  C   UNL     1      -0.015  -2.759  -0.018  0.00  0.00    -0.022 A 
ATOM      6  C   UNL     1      -0.016  -2.083   1.192  0.00  0.00    +0.055 A 
ATOM      7  C   UNL     1      -0.080  -0.694   1.213  0.00  0.00    +0.028 A 
ATOM      8  N   UNL     1       0.058  -2.780   2.403  0.00  0.00    -0.202 N 
ATOM      9  C   UNL     1      -0.167  -4.232   2.402  0.00  0.00    +0.132 C 
ATOM     10  C   UNL     1       0.616  -4.827   1.224  0.00  0.00    +0.025 C 
ATOM     11  C   UNL     1       0.051  -4.262  -0.080  0.00  0.00    +0.039 C 
ATOM     12  C   UNL     1      -0.079  -2.771  -2.520  0.00  0.00    +0.044 C 
ENDROOT
BRANCH   8  13
ATOM     13  S   UNL     1       0.395  -1.982   3.814  0.00  0.00    +0.081 S 
ATOM     14  O   UNL     1       0.776  -2.972   4.760  0.00  0.00    -0.149 OA
ATOM     15  O   UNL     1       1.238  -0.890   3.473  0.00  0.00    -0.149 OA
BRANCH  13  16
ATOM     16  C   UNL     1      -1.117  -1.288   4.394  0.00  0.00    +0.148 A 
ATOM     17  C   UNL     1      -2.043  -1.829   5.223  0.00  0.00    +0.039 A 
ATOM     18  C   UNL     1      -3.167  -1.092   5.545  0.00  0.00    +0.042 A 
ATOM     19  C   UNL     1      -3.311   0.150   5.022  0.00  0.00    +0.165 A 
ATOM     20  S   UNL     1      -1.825   0.315   4.047  0.00  0.00    -0.044 S 
BRANCH  19  21
ATOM     21  N   UNL     1      -4.412   1.121   5.214  0.00  0.00    +0.063 N 
ATOM     22  O   UNL     1      -5.350   0.838   5.923  0.00  0.00    -0.126 OA
ATOM     23  O   UNL     1      -4.373   2.196   4.662  0.00  0.00    -0.126 OA
ENDBRANCH  19  21
ENDBRANCH  13  16
ENDBRANCH   8  13
TORSDOF 3
