REMARK  Name = ZINC02074252
REMARK  10 active torsions:
REMARK  status: ('A' for Active; 'I' for Inactive)
REMARK    1  A    between atoms: C_1  and  C_2
REMARK    2  A    between atoms: C_5  and  N_8
REMARK    3  A    between atoms: N_8  and  C_9
REMARK    4  A    between atoms: C_9  and  C_10
REMARK    5  A    between atoms: C_13  and  S_21
REMARK    6  A    between atoms: N_14  and  C_15
REMARK    7  A    between atoms: S_21  and  C_22
REMARK    8  A    between atoms: C_22  and  C_23
REMARK    9  A    between atoms: N_25  and  C_26
REMARK   10  A    between atoms: C_27  and  C_35
REMARK                            x       y       z     vdW  Elec       q    Type
REMARK                         _______ _______ _______ _____ _____    ______ ____
ROOT
ATOM      1  C   UNL     1       0.946   3.620   0.013  0.00  0.00    +0.156 A 
ATOM      2  N   UNL     1       0.790   4.384  -1.032  0.00  0.00    -0.132 NA
ATOM      3  N   UNL     1       0.546   5.591  -0.664  0.00  0.00    -0.122 NA
ATOM      4  C   UNL     1       0.542   5.668   0.647  0.00  0.00    +0.197 A 
ATOM      5  N   UNL     1       0.798   4.410   1.121  0.00  0.00    -0.273 N 
ENDROOT
BRANCH   5   6
ATOM      6  C   UNL     1       0.889   4.013   2.463  0.00  0.00    +0.050 A 
ATOM      7  C   UNL     1      -0.043   3.130   2.992  0.00  0.00    +0.026 A 
ATOM      8  C   UNL     1       0.053   2.736   4.313  0.00  0.00    +0.002 A 
ATOM      9  C   UNL     1       1.069   3.230   5.111  0.00  0.00    +0.000 A 
ATOM     10  C   UNL     1       1.995   4.114   4.588  0.00  0.00    +0.002 A 
ATOM     11  C   UNL     1       1.907   4.507   3.267  0.00  0.00    +0.026 A 
ENDBRANCH   5   6
BRANCH   1  12
ATOM     12  C   UNL     1       1.242   2.142   0.002  0.00  0.00    +0.178 C 
BRANCH  12  13
ATOM     13  N   UNL     1      -0.017   1.393   0.010  0.00  0.00    -0.337 N 
ATOM     14  H   UNL     1      -0.863   1.866   0.016  0.00  0.00    +0.147 HD
BRANCH  13  19
ATOM     15  C   UNL     1       0.060  -4.278  -0.022  0.00  0.00    +0.044 C 
ATOM     16  C   UNL     1       0.040  -2.771  -0.014  0.00  0.00    -0.050 A 
ATOM     17  C   UNL     1      -1.168  -2.097   0.002  0.00  0.00    +0.005 A 
ATOM     18  C   UNL     1      -1.190  -0.717   0.010  0.00  0.00    +0.023 A 
ATOM     19  C   UNL     1       0.002  -0.004   0.002  0.00  0.00    +0.027 A 
ATOM     20  C   UNL     1       1.213  -0.684  -0.019  0.00  0.00    +0.023 A 
ATOM     21  C   UNL     1       1.229  -2.065  -0.022  0.00  0.00    +0.005 A 
ENDBRANCH  13  19
ENDBRANCH  12  13
ENDBRANCH   1  12
BRANCH   4  22
ATOM     22  S   UNL     1       0.261   7.115   1.611  0.00  0.00    -0.076 S 
BRANCH  22  23
ATOM     23  C   UNL     1       0.007   8.328   0.292  0.00  0.00    +0.173 C 
BRANCH  23  24
ATOM     24  C   UNL     1      -0.258   9.681   0.898  0.00  0.00    +0.228 C 
ATOM     25  O   UNL     1      -0.275   9.813   2.104  0.00  0.00    -0.275 OA
ATOM     26  N   UNL     1      -0.478  10.746   0.101  0.00  0.00    -0.278 N 
ATOM     27  H   UNL     1      -0.465  10.640  -0.863  0.00  0.00    +0.155 HD
BRANCH  26  28
ATOM     28  C   UNL     1      -0.723  11.992   0.659  0.00  0.00    +0.090 A 
ATOM     29  C   UNL     1      -0.963  13.195   0.011  0.00  0.00    +0.084 A 
ATOM     30  C   UNL     1      -1.196  14.368   0.835  0.00  0.00    -0.018 A 
ATOM     31  C   UNL     1      -1.141  14.154   2.169  0.00  0.00    -0.004 A 
ATOM     32  S   UNL     1      -0.794  12.426   2.335  0.00  0.00    -0.077 S 
ATOM     33  C   UNL     1      -1.333  15.168   3.254  0.00  0.00    +0.043 C 
ATOM     34  C   UNL     1      -1.232  16.568   2.632  0.00  0.00    +0.005 C 
ATOM     35  C   UNL     1      -2.106  16.613   1.375  0.00  0.00    +0.005 C 
ATOM     36  C   UNL     1      -1.479  15.756   0.274  0.00  0.00    +0.037 C 
BRANCH  29  37
ATOM     37  C   UNL     1      -0.984  13.276  -1.418  0.00  0.00    +0.102 C 
ATOM     38  N   UNL     1      -1.001  13.340  -2.552  0.00  0.00    -0.191 NA
ENDBRANCH  29  37
ENDBRANCH  26  28
ENDBRANCH  23  24
ENDBRANCH  22  23
ENDBRANCH   4  22
TORSDOF 9
