REMARK  Name = ZINC63772591
REMARK  8 active torsions:
REMARK  status: ('A' for Active; 'I' for Inactive)
REMARK    1  A    between atoms: C_1  and  C_2
REMARK    2  A    between atoms: C_7  and  S_12
REMARK    3  A    between atoms: S_12  and  C_13
REMARK    4  A    between atoms: C_13  and  C_14
REMARK    5  A    between atoms: N_16  and  C_17
REMARK    6  A    between atoms: C_19  and  C_31
REMARK    7  A    between atoms: C_31  and  O_33
REMARK    8  A    between atoms: O_33  and  C_34
REMARK                            x       y       z     vdW  Elec       q    Type
REMARK                         _______ _______ _______ _____ _____    ______ ____
ROOT
ATOM      1  C   UNL     1      -4.047  -4.961   2.178  0.00  0.00    +0.224 C 
ATOM      2  O   UNL     1      -4.091  -6.046   2.719  0.00  0.00    -0.275 OA
ATOM      3  N   UNL     1      -5.187  -4.355   1.791  0.00  0.00    -0.302 N 
ATOM      4  H   UNL     1      -5.157  -3.460   1.418  0.00  0.00    +0.150 HD
ENDROOT
BRANCH   3   5
ATOM      5  C   UNL     1      -6.470  -5.047   1.935  0.00  0.00    +0.145 C 
ATOM      6  C   UNL     1      -7.572  -4.060   2.351  0.00  0.00    +0.132 C 
ATOM      7  C   UNL     1      -8.172  -4.327   3.719  0.00  0.00    +0.018 C 
ATOM      8  C   UNL     1      -7.581  -3.410   4.769  0.00  0.00    +0.005 C 
ATOM      9  C   UNL     1      -8.578  -3.067   5.848  0.00  0.00    +0.000 C 
ATOM     10  C   UNL     1      -8.589  -4.002   7.018  0.00  0.00    +0.000 C 
ATOM     11  C   UNL     1      -8.997  -5.399   6.452  0.00  0.00    +0.001 C 
ATOM     12  C   UNL     1      -7.771  -5.912   5.681  0.00  0.00    +0.014 C 
ATOM     13  C   UNL     1      -7.958  -5.793   4.187  0.00  0.00    +0.052 C 
ATOM     14  S   UNL     1      -6.405  -6.245   3.325  0.00  0.00    -0.134 S 
BRANCH   6  15
ATOM     15  C   UNL     1      -6.993  -2.669   2.350  0.00  0.00    +0.313 C 
ATOM     16  O   UNL     1      -5.939  -2.453   2.900  0.00  0.00    -0.250 OA
BRANCH  15  17
ATOM     17  O   UNL     1      -7.648  -1.669   1.739  0.00  0.00    -0.468 OA
ATOM     18  C   UNL     1      -7.041  -0.376   1.778  0.00  0.00    +0.280 C 
ENDBRANCH  15  17
ENDBRANCH   6  15
ENDBRANCH   3   5
BRANCH   1  19
ATOM     19  C   UNL     1      -2.719  -4.292   1.937  0.00  0.00    +0.168 C 
BRANCH  19  20
ATOM     20  S   UNL     1      -1.386  -5.351   2.565  0.00  0.00    -0.106 S 
BRANCH  20  27
ATOM     21  C   UNL     1       0.195   1.466   0.848  0.00  0.00    +0.044 C 
ATOM     22  C   UNL     1       0.206  -0.040   0.795  0.00  0.00    -0.048 A 
ATOM     23  C   UNL     1       0.296  -0.671  -0.458  0.00  0.00    +0.005 A 
ATOM     24  C   UNL     1       0.312  -2.012  -0.597  0.00  0.00    +0.028 A 
ATOM     25  C   UNL     1       0.232  -2.866   0.596  0.00  0.00    +0.061 A 
ATOM     26  N   UNL     1       0.226  -4.157   0.762  0.00  0.00    -0.355 N 
ATOM     27  C   UNL     1       0.125  -4.415   2.204  0.00  0.00    +0.236 C 
ATOM     28  N   UNL     1       0.074  -3.102   2.857  0.00  0.00    -0.355 N 
ATOM     29  C   UNL     1       0.136  -2.198   1.923  0.00  0.00    +0.061 A 
ATOM     30  C   UNL     1       0.133  -0.729   1.952  0.00  0.00    +0.030 A 
ATOM     31  H   UNL     1       0.277  -4.826   0.061  0.00  0.00    +0.162 HD
ATOM     32  H   UNL     1       0.007  -2.937   3.811  0.00  0.00    +0.162 HD
ENDBRANCH  20  27
ENDBRANCH  19  20
ENDBRANCH   1  19
TORSDOF 6
