REMARK  Name = ZINC36191828
REMARK  8 active torsions:
REMARK  status: ('A' for Active; 'I' for Inactive)
REMARK    1  A    between atoms: C_1  and  C_2
REMARK    2  A    between atoms: C_5  and  C_8
REMARK    3  A    between atoms: C_8  and  N_9
REMARK    4  A    between atoms: C_10  and  C_34
REMARK    5  A    between atoms: C_15  and  C_33
REMARK    6  A    between atoms: C_17  and  C_23
REMARK    7  A    between atoms: N_25  and  C_26
REMARK    8  A    between atoms: N_36  and  C_37
REMARK                            x       y       z     vdW  Elec       q    Type
REMARK                         _______ _______ _______ _____ _____    ______ ____
ROOT
ATOM      1  N   UNL     1       1.635  -4.198   0.443  0.00  0.00    -0.282 N 
ATOM      2  C   UNL     1       2.255  -4.470  -0.891  0.00  0.00    +0.199 C 
ATOM      3  C   UNL     1       3.134  -5.644  -0.590  0.00  0.00    +0.128 C 
ATOM      4  C   UNL     1       2.350  -6.920  -0.346  0.00  0.00    +0.009 C 
ATOM      5  C   UNL     1       3.254  -7.858  -0.105  0.00  0.00    +0.007 C 
ATOM      6  C   UNL     1       4.603  -7.128  -0.143  0.00  0.00    +0.098 C 
ATOM      7  O   UNL     1       4.340  -6.084  -1.170  0.00  0.00    -0.355 OA
ATOM      8  C   UNL     1       4.565  -6.292   1.195  0.00  0.00    +0.126 C 
ATOM      9  C   UNL     1       3.699  -5.126   0.793  0.00  0.00    +0.128 C 
ATOM     10  C   UNL     1       2.451  -4.679   1.438  0.00  0.00    +0.224 C 
ATOM     11  O   UNL     1       2.194  -4.729   2.623  0.00  0.00    -0.275 OA
ATOM     12  C   UNL     1       5.836  -8.003  -0.372  0.00  0.00    +0.047 C 
ENDROOT
BRANCH   8  13
ATOM     13  C   UNL     1       3.929  -7.082   2.309  0.00  0.00    +0.224 C 
ATOM     14  O   UNL     1       2.720  -7.150   2.391  0.00  0.00    -0.275 OA
ATOM     15  N   UNL     1       4.702  -7.714   3.215  0.00  0.00    -0.285 N 
ATOM     16  H   UNL     1       5.664  -7.596   3.197  0.00  0.00    +0.155 HD
BRANCH  15  17
ATOM     17  C   UNL     1       4.115  -8.540   4.182  0.00  0.00    +0.034 A 
ATOM     18  C   UNL     1       4.675  -8.633   5.449  0.00  0.00    +0.026 A 
ATOM     19  C   UNL     1       4.095  -9.448   6.401  0.00  0.00    +0.040 A 
ATOM     20  C   UNL     1       2.956 -10.172   6.092  0.00  0.00    +0.124 A 
ATOM     21  C   UNL     1       2.396 -10.081   4.829  0.00  0.00    +0.040 A 
ATOM     22  C   UNL     1       2.969  -9.262   3.876  0.00  0.00    +0.026 A 
ATOM     23  F   UNL     1       2.391 -10.970   7.025  0.00  0.00    -0.205 F 
ENDBRANCH  15  17
ENDBRANCH   8  13
BRANCH   2  24
ATOM     24  C   UNL     1       1.205  -4.830  -1.910  0.00  0.00    +0.237 C 
ATOM     25  O   UNL     1       0.107  -5.195  -1.546  0.00  0.00    -0.274 OA
ATOM     26  N   UNL     1       1.486  -4.747  -3.226  0.00  0.00    -0.311 N 
ATOM     27  H   UNL     1       2.364  -4.455  -3.517  0.00  0.00    +0.149 HD
BRANCH  26  28
ATOM     28  C   UNL     1       0.465  -5.096  -4.216  0.00  0.00    +0.073 C 
ATOM     29  C   UNL     1       0.484  -6.607  -4.457  0.00  0.00    +0.022 C 
ATOM     30  C   UNL     1      -0.582  -6.973  -5.492  0.00  0.00    +0.002 C 
ATOM     31  C   UNL     1      -0.291  -6.243  -6.805  0.00  0.00    +0.000 C 
ATOM     32  C   UNL     1      -0.310  -4.732  -6.563  0.00  0.00    +0.002 C 
ATOM     33  C   UNL     1       0.756  -4.367  -5.529  0.00  0.00    +0.022 C 
ENDBRANCH  26  28
ENDBRANCH   2  24
BRANCH   1  34
ATOM     34  C   UNL     1       0.355  -3.517   0.657  0.00  0.00    +0.143 C 
BRANCH  34  39
ATOM     35  C   UNL     1       1.254   2.171   1.137  0.00  0.00    +0.044 C 
ATOM     36  C   UNL     1       1.020   0.688   1.012  0.00  0.00    -0.050 A 
ATOM     37  C   UNL     1       0.780   0.128  -0.229  0.00  0.00    +0.003 A 
ATOM     38  C   UNL     1       0.566  -1.233  -0.344  0.00  0.00    +0.005 A 
ATOM     39  C   UNL     1       0.591  -2.034   0.782  0.00  0.00    -0.030 A 
ATOM     40  C   UNL     1       0.831  -1.475   2.023  0.00  0.00    +0.005 A 
ATOM     41  C   UNL     1       1.050  -0.115   2.137  0.00  0.00    +0.003 A 
ENDBRANCH  34  39
ENDBRANCH   1  34
TORSDOF 6
