REMARK  Name = ZINC05448093
REMARK  16 active torsions:
REMARK  status: ('A' for Active; 'I' for Inactive)
REMARK    1  A    between atoms: C_1  and  C_2
REMARK    2  A    between atoms: C_2  and  C_4
REMARK    3  A    between atoms: C_2  and  O_10
REMARK    4  A    between atoms: O_10  and  C_11
REMARK    5  A    between atoms: C_11  and  C_13
REMARK    6  A    between atoms: C_13  and  C_14
REMARK    7  A    between atoms: C_14  and  C_15
REMARK    8  A    between atoms: C_17  and  C_26
REMARK    9  A    between atoms: C_18  and  O_25
REMARK   10  A    between atoms: C_19  and  C_21
REMARK   11  A    between atoms: C_21  and  C_22
REMARK   12  A    between atoms: C_21  and  C_23
REMARK   13  A    between atoms: C_21  and  C_24
REMARK   14  A    between atoms: C_26  and  C_27
REMARK   15  A    between atoms: C_26  and  C_28
REMARK   16  A    between atoms: C_26  and  C_29
REMARK                            x       y       z     vdW  Elec       q    Type
REMARK                         _______ _______ _______ _____ _____    ______ ____
ROOT
ATOM      1  C   UNL     1      -4.247   7.047  -1.311  0.00  0.00    +0.046 C 
ENDROOT
BRANCH   1   2
ATOM      2  C   UNL     1      -5.651   7.594  -1.340  0.00  0.00    -0.046 A 
ATOM      3  C   UNL     1      -6.489   7.288  -2.397  0.00  0.00    +0.011 A 
ATOM      4  C   UNL     1      -7.778   7.784  -2.423  0.00  0.00    -0.000 A 
ATOM      5  C   UNL     1      -8.228   8.599  -1.395  0.00  0.00    +0.124 A 
ATOM      6  C   UNL     1      -7.383   8.910  -0.339  0.00  0.00    -0.000 A 
ATOM      7  C   UNL     1      -6.097   8.407  -0.314  0.00  0.00    +0.011 A 
BRANCH   6   8
ATOM      8  C   UNL     1      -7.869   9.796   0.779  0.00  0.00    -0.009 C 
ATOM      9  C   UNL     1      -6.750   9.979   1.807  0.00  0.00    +0.015 C 
ATOM     10  C   UNL     1      -8.269  11.159   0.212  0.00  0.00    +0.015 C 
ATOM     11  C   UNL     1      -9.080   9.148   1.454  0.00  0.00    +0.015 C 
ENDBRANCH   6   8
BRANCH   4  12
ATOM     12  C   UNL     1      -8.693   7.444  -3.572  0.00  0.00    -0.009 C 
ATOM     13  C   UNL     1      -7.956   6.538  -4.560  0.00  0.00    +0.015 C 
ATOM     14  C   UNL     1      -9.931   6.719  -3.041  0.00  0.00    +0.015 C 
ATOM     15  C   UNL     1      -9.121   8.731  -4.281  0.00  0.00    +0.015 C 
ENDBRANCH   4  12
BRANCH   5  16
ATOM     16  O   UNL     1      -9.494   9.092  -1.422  0.00  0.00    -0.506 OA
ATOM     17  H   UNL     1      -9.574   9.946  -1.868  0.00  0.00    +0.292 HD
ENDBRANCH   5  16
ENDBRANCH   1   2
BRANCH   1  18
ATOM     18  C   UNL     1      -4.240   5.701  -0.584  0.00  0.00    +0.125 C 
BRANCH  18  19
ATOM     19  C   UNL     1      -2.836   5.153  -0.554  0.00  0.00    +0.308 C 
ATOM     20  O   UNL     1      -1.934   5.777  -1.062  0.00  0.00    -0.251 OA
BRANCH  19  21
ATOM     21  O   UNL     1      -2.588   3.974   0.036  0.00  0.00    -0.452 OA
BRANCH  21  23
ATOM     22  C   UNL     1      -0.493   4.021   1.276  0.00  0.00    +0.062 C 
ATOM     23  C   UNL     1      -1.213   3.508   0.027  0.00  0.00    +0.259 C 
BRANCH  23  24
ATOM     24  C   UNL     1      -1.192   2.002   0.019  0.00  0.00    +0.261 C 
ATOM     25  O   UNL     1      -2.234   1.381   0.020  0.00  0.00    -0.271 OA
ATOM     26  N   UNL     1      -0.016   1.344   0.009  0.00  0.00    -0.237 N 
ATOM     27  C   UNL     1       0.002  -0.004   0.002  0.00  0.00    +0.303 C 
ATOM     28  O   UNL     1      -1.042  -0.626   0.009  0.00  0.00    -0.253 OA
ATOM     29  N   UNL     1       1.178  -0.662  -0.013  0.00  0.00    -0.313 N 
ATOM     30  H   UNL     1       0.817   1.840   0.004  0.00  0.00    +0.159 HD
ATOM     31  H   UNL     1       2.012  -0.166  -0.018  0.00  0.00    +0.146 HD
ATOM     32  H   UNL     1       1.191  -1.632  -0.018  0.00  0.00    +0.146 HD
ENDBRANCH  23  24
ENDBRANCH  21  23
ENDBRANCH  19  21
ENDBRANCH  18  19
ENDBRANCH   1  18
TORSDOF 9
