REMARK  Name = ZINC08673543
REMARK  11 active torsions:
REMARK  status: ('A' for Active; 'I' for Inactive)
REMARK    1  A    between atoms: C_1  and  C_2
REMARK    2  A    between atoms: C_5  and  N_9
REMARK    3  A    between atoms: C_6  and  C_8
REMARK    4  A    between atoms: C_10  and  C_12
REMARK    5  A    between atoms: N_14  and  C_15
REMARK    6  A    between atoms: C_15  and  C_16
REMARK    7  A    between atoms: C_16  and  C_17
REMARK    8  A    between atoms: C_18  and  C_33
REMARK    9  A    between atoms: C_23  and  C_25
REMARK   10  A    between atoms: C_28  and  O_31
REMARK   11  A    between atoms: O_31  and  C_32
REMARK                            x       y       z     vdW  Elec       q    Type
REMARK                         _______ _______ _______ _____ _____    ______ ____
ROOT
ATOM      1  C   UNL     1      -0.425  -8.963  -3.794  0.00  0.00    +0.063 C 
ENDROOT
BRANCH   1   2
ATOM      2  C   UNL     1      -0.519 -10.467  -3.794  0.00  0.00    +0.016 A 
ATOM      3  C   UNL     1      -1.603 -11.243  -3.839  0.00  0.00    +0.052 A 
ATOM      4  N   UNL     1      -1.488 -12.613  -3.830  0.00  0.00    -0.210 N 
ATOM      5  C   UNL     1      -0.230 -13.131  -3.775  0.00  0.00    +0.196 A 
ATOM      6  S   UNL     1       0.793 -11.678  -3.742  0.00  0.00    -0.052 S 
ATOM      7  N   UNL     1      -0.288 -14.433  -3.773  0.00  0.00    -0.200 NA
ATOM      8  C   UNL     1      -1.569 -14.818  -3.827  0.00  0.00    +0.183 A 
ATOM      9  N   UNL     1      -2.335 -13.751  -3.863  0.00  0.00    -0.144 NA
ATOM     10  C   UNL     1      -2.970 -10.611  -3.900  0.00  0.00    +0.066 C 
BRANCH   8  11
ATOM     11  C   UNL     1      -2.047 -16.223  -3.843  0.00  0.00    +0.021 A 
ATOM     12  C   UNL     1      -3.413 -16.495  -3.907  0.00  0.00    +0.015 A 
ATOM     13  C   UNL     1      -3.854 -17.801  -3.922  0.00  0.00    +0.046 A 
ATOM     14  C   UNL     1      -2.940 -18.845  -3.873  0.00  0.00    +0.120 A 
ATOM     15  C   UNL     1      -1.579 -18.577  -3.809  0.00  0.00    +0.046 A 
ATOM     16  C   UNL     1      -1.132 -17.273  -3.800  0.00  0.00    +0.015 A 
BRANCH  14  17
ATOM     17  O   UNL     1      -3.378 -20.131  -3.887  0.00  0.00    -0.495 OA
ATOM     18  C   UNL     1      -2.383 -21.155  -3.834  0.00  0.00    +0.277 C 
ENDBRANCH  14  17
ENDBRANCH   8  11
ENDBRANCH   1   2
BRANCH   1  19
ATOM     19  C   UNL     1      -0.323  -8.458  -2.353  0.00  0.00    +0.110 C 
BRANCH  19  22
ATOM     20  C   UNL     1      -0.133  -6.327  -1.187  0.00  0.00    +0.299 C 
ATOM     21  O   UNL     1      -0.119  -6.936  -0.137  0.00  0.00    -0.265 OA
ATOM     22  N   UNL     1      -0.232  -6.996  -2.353  0.00  0.00    -0.307 N 
ATOM     23  H   UNL     1      -0.243  -6.510  -3.192  0.00  0.00    +0.149 HD
BRANCH  20  25
ATOM     24  N   UNL     1       0.059  -4.168  -0.021  0.00  0.00    -0.278 N 
ATOM     25  C   UNL     1      -0.040  -4.837  -1.187  0.00  0.00    +0.303 C 
ATOM     26  O   UNL     1      -0.054  -4.228  -2.237  0.00  0.00    -0.265 OA
ATOM     27  H   UNL     1       0.135  -4.657   0.814  0.00  0.00    +0.155 HD
BRANCH  24  32
ATOM     28  C   UNL     1       0.024   1.503   0.005  0.00  0.00    +0.044 C 
ATOM     29  C   UNL     1       0.033  -0.004  -0.002  0.00  0.00    -0.050 A 
ATOM     30  C   UNL     1       0.631  -0.685  -1.046  0.00  0.00    +0.005 A 
ATOM     31  C   UNL     1       0.642  -2.066  -1.056  0.00  0.00    +0.024 A 
ATOM     32  C   UNL     1       0.051  -2.771  -0.014  0.00  0.00    +0.037 A 
ATOM     33  C   UNL     1      -0.549  -2.083   1.033  0.00  0.00    -0.029 A 
ATOM     34  C   UNL     1      -0.551  -0.702   1.039  0.00  0.00    +0.008 A 
ATOM     35  C   UNL     1      -1.191  -2.843   2.165  0.00  0.00    +0.045 C 
ENDBRANCH  24  32
ENDBRANCH  20  25
ENDBRANCH  19  22
ENDBRANCH   1  19
TORSDOF 7
