REMARK  Name = ZINC59881089
REMARK  8 active torsions:
REMARK  status: ('A' for Active; 'I' for Inactive)
REMARK    1  A    between atoms: C_1  and  C_2
REMARK    2  A    between atoms: C_2  and  C_4
REMARK    3  A    between atoms: C_2  and  S_13
REMARK    4  A    between atoms: C_7  and  C_9
REMARK    5  A    between atoms: S_13  and  C_14
REMARK    6  A    between atoms: N_19  and  N_20
REMARK    7  A    between atoms: C_21  and  C_22
REMARK    8  A    between atoms: C_21  and  C_23
REMARK                            x       y       z     vdW  Elec       q    Type
REMARK                         _______ _______ _______ _____ _____    ______ ____
ROOT
ATOM      1  C   UNL     1       2.533  -0.042   1.241  0.00  0.00    +0.211 A 
ATOM      2  N   UNL     1       3.551  -0.257   2.081  0.00  0.00    -0.186 NA
ATOM      3  C   UNL     1       4.644   0.300   1.603  0.00  0.00    +0.232 A 
ATOM      4  N   UNL     1       4.333   0.890   0.429  0.00  0.00    -0.245 N 
ATOM      5  N   UNL     1       2.966   0.651   0.214  0.00  0.00    -0.144 NA
ATOM      6  N   UNL     1       5.892   0.285   2.200  0.00  0.00    -0.205 N 
ATOM      7  H   UNL     1       6.641   0.727   1.769  0.00  0.00    +0.177 HD
ATOM      8  H   UNL     1       4.935   1.379  -0.153  0.00  0.00    +0.192 HD
ENDROOT
BRANCH   6   9
ATOM      9  N   UNL     1       6.074  -0.367   3.426  0.00  0.00    -0.184 NA
ATOM     10  C   UNL     1       7.245  -0.381   3.986  0.00  0.00    +0.063 C 
ATOM     11  C   UNL     1       8.409   0.304   3.317  0.00  0.00    +0.068 C 
BRANCH  10  12
ATOM     12  C   UNL     1       7.437  -1.068   5.276  0.00  0.00    -0.002 A 
ATOM     13  C   UNL     1       8.708  -1.075   5.881  0.00  0.00    +0.010 A 
ATOM     14  C   UNL     1       8.909  -1.701   7.069  0.00  0.00    +0.009 A 
ATOM     15  C   UNL     1       7.840  -2.353   7.711  0.00  0.00    -0.018 A 
ATOM     16  C   UNL     1       8.025  -3.007   8.941  0.00  0.00    +0.008 A 
ATOM     17  C   UNL     1       6.972  -3.629   9.539  0.00  0.00    +0.001 A 
ATOM     18  C   UNL     1       5.709  -3.629   8.951  0.00  0.00    +0.001 A 
ATOM     19  C   UNL     1       5.492  -3.007   7.760  0.00  0.00    +0.008 A 
ATOM     20  C   UNL     1       6.555  -2.353   7.112  0.00  0.00    -0.017 A 
ATOM     21  C   UNL     1       6.364  -1.697   5.887  0.00  0.00    +0.018 A 
ENDBRANCH  10  12
ENDBRANCH   6   9
BRANCH   1  22
ATOM     22  S   UNL     1       0.879  -0.605   1.472  0.00  0.00    -0.072 S 
BRANCH  22  24
ATOM     23  C   UNL     1      -0.019   1.526   0.010  0.00  0.00    +0.029 C 
ATOM     24  C   UNL     1       0.002  -0.004   0.002  0.00  0.00    +0.139 C 
BRANCH  24  25
ATOM     25  C   UNL     1      -1.412  -0.526   0.013  0.00  0.00    +0.230 A 
ATOM     26  N   UNL     1      -2.221  -0.538   1.033  0.00  0.00    -0.111 NA
ATOM     27  N   UNL     1      -3.346  -1.054   0.680  0.00  0.00    -0.112 NA
ATOM     28  C   UNL     1      -3.292  -1.389  -0.578  0.00  0.00    +0.220 A 
ATOM     29  O   UNL     1      -2.071  -1.058  -1.030  0.00  0.00    -0.423 OA
BRANCH  28  30
ATOM     30  C   UNL     1      -4.398  -2.025  -1.379  0.00  0.00    +0.077 C 
ATOM     31  C   UNL     1      -5.798  -1.497  -1.024  0.00  0.00    +0.013 C 
ATOM     32  C   UNL     1      -6.293  -2.946  -1.158  0.00  0.00    +0.001 C 
ATOM     33  C   UNL     1      -4.857  -3.384  -0.826  0.00  0.00    +0.013 C 
ENDBRANCH  28  30
ENDBRANCH  24  25
ENDBRANCH  22  24
ENDBRANCH   1  22
TORSDOF 6
