REMARK  Name = ZINC12243048
REMARK  10 active torsions:
REMARK  status: ('A' for Active; 'I' for Inactive)
REMARK    1  A    between atoms: C_1  and  N_55
REMARK    2  A    between atoms: C_2  and  C_3
REMARK    3  A    between atoms: C_2  and  N_55
REMARK    4  A    between atoms: C_7  and  N_16
REMARK    5  A    between atoms: C_8  and  C_12
REMARK    6  A    between atoms: C_12  and  O_14
REMARK    7  A    between atoms: O_14  and  C_15
REMARK    8  A    between atoms: C_17  and  C_19
REMARK    9  A    between atoms: C_22  and  C_23
REMARK   10  A    between atoms: C_22  and  N_55
REMARK                            x       y       z     vdW  Elec       q    Type
REMARK                         _______ _______ _______ _____ _____    ______ ____
ROOT
ATOM      1  C   UNL     1      -1.056  -5.391  -3.014  0.00  0.00    +0.026 A 
ATOM      2  C   UNL     1      -2.374  -4.961  -3.078  0.00  0.00    +0.022 A 
ATOM      3  C   UNL     1      -2.883  -4.135  -2.105  0.00  0.00    +0.014 A 
ATOM      4  C   UNL     1      -2.042  -3.728  -1.039  0.00  0.00    +0.030 A 
ATOM      5  C   UNL     1      -2.358  -2.866   0.089  0.00  0.00    +0.064 A 
ATOM      6  C   UNL     1      -1.369  -2.608   1.012  0.00  0.00    +0.120 A 
ATOM      7  S   UNL     1       0.029  -3.516   0.384  0.00  0.00    -0.060 S 
ATOM      8  C   UNL     1      -0.718  -4.220  -1.066  0.00  0.00    +0.111 A 
ATOM      9  N   UNL     1      -0.277  -5.011  -2.020  0.00  0.00    -0.246 NA
ENDROOT
BRANCH   5  10
ATOM     10  N   UNL     1      -3.628  -2.317   0.233  0.00  0.00    -0.284 N 
ATOM     11  C   UNL     1      -4.635  -3.066   0.725  0.00  0.00    +0.220 C 
ATOM     12  O   UNL     1      -4.412  -4.184   1.139  0.00  0.00    -0.275 OA
ATOM     13  H   UNL     1      -3.790  -1.395  -0.021  0.00  0.00    +0.155 HD
BRANCH  11  14
ATOM     14  C   UNL     1      -6.037  -2.515   0.760  0.00  0.00    +0.075 C 
ATOM     15  C   UNL     1      -6.641  -2.208   2.132  0.00  0.00    +0.013 C 
ATOM     16  C   UNL     1      -7.136  -3.414   1.331  0.00  0.00    +0.013 C 
ENDBRANCH  11  14
ENDBRANCH   5  10
BRANCH   6  17
ATOM     17  C   UNL     1      -1.444  -1.806   2.179  0.00  0.00    +0.348 C 
ATOM     18  O   UNL     1      -2.494  -1.272   2.484  0.00  0.00    -0.244 OA
BRANCH  17  19
ATOM     19  O   UNL     1      -0.350  -1.636   2.952  0.00  0.00    -0.464 OA
ATOM     20  C   UNL     1      -0.498  -0.816   4.112  0.00  0.00    +0.280 C 
ENDBRANCH  17  19
ENDBRANCH   6  17
BRANCH   1  21
ATOM     21  C   UNL     1      -0.512  -6.298  -4.087  0.00  0.00    -0.022 C 
BRANCH  21  23
ATOM     22  C   UNL     1      -0.790  -4.638  -5.828  0.00  0.00    -0.095 C 
ATOM     23  N   UNL     1       0.185  -5.476  -5.098  0.00  0.00    +0.385 N 
ATOM     24  H   UNL     1       0.860  -4.865  -4.623  0.00  0.00    -0.081 HD
BRANCH  23  25
ATOM     25  C   UNL     1       0.911  -6.348  -6.045  0.00  0.00    -0.035 C 
BRANCH  25  26
ATOM     26  C   UNL     1       1.785  -5.490  -6.924  0.00  0.00    -0.026 A 
ATOM     27  C   UNL     1       3.048  -5.095  -6.706  0.00  0.00    +0.017 A 
ATOM     28  C   UNL     1       3.716  -4.263  -7.696  0.00  0.00    -0.011 A 
ATOM     29  C   UNL     1       5.031  -3.742  -7.673  0.00  0.00    +0.009 A 
ATOM     30  C   UNL     1       5.491  -2.971  -8.694  0.00  0.00    +0.001 A 
ATOM     31  C   UNL     1       4.694  -2.667  -9.790  0.00  0.00    +0.001 A 
ATOM     32  C   UNL     1       3.404  -3.156  -9.850  0.00  0.00    +0.015 A 
ATOM     33  C   UNL     1       2.926  -3.939  -8.821  0.00  0.00    +0.020 A 
ATOM     34  S   UNL     1       1.383  -4.752  -8.496  0.00  0.00    -0.095 S 
ENDBRANCH  25  26
ENDBRANCH  23  25
ENDBRANCH  21  23
ENDBRANCH   1  21
TORSDOF 8
