REMARK  Name = ZINC15837597
REMARK  3 active torsions:
REMARK  status: ('A' for Active; 'I' for Inactive)
REMARK    1  A    between atoms: C_4  and  N_21
REMARK    2  A    between atoms: C_5  and  N_7
REMARK    3  A    between atoms: C_14  and  C_16
REMARK                            x       y       z     vdW  Elec       q    Type
REMARK                         _______ _______ _______ _____ _____    ______ ____
ROOT
ATOM      1  N   UNL     1       3.333   5.154   2.854  0.00  0.00    -0.267 N 
ATOM      2  C   UNL     1       2.171   5.011   2.187  0.00  0.00    +0.307 C 
ATOM      3  O   UNL     1       1.174   4.637   2.775  0.00  0.00    -0.252 OA
ATOM      4  N   UNL     1       2.114   5.281   0.868  0.00  0.00    -0.278 N 
ATOM      5  C   UNL     1       3.241   5.739   0.035  0.00  0.00    +0.110 C 
ATOM      6  C   UNL     1       2.580   6.476  -1.157  0.00  0.00    +0.021 C 
ATOM      7  C   UNL     1       1.317   5.604  -1.404  0.00  0.00    +0.029 C 
ATOM      8  C   UNL     1       0.917   5.167   0.021  0.00  0.00    +0.114 C 
ATOM      9  H   UNL     1       4.146   5.372   2.372  0.00  0.00    +0.156 HD
ENDROOT
BRANCH   1  14
ATOM     10  C   UNL     1       2.256   5.031   6.368  0.00  0.00    +0.002 A 
ATOM     11  C   UNL     1       3.434   4.663   6.990  0.00  0.00    +0.002 A 
ATOM     12  C   UNL     1       4.579   4.457   6.243  0.00  0.00    +0.034 A 
ATOM     13  C   UNL     1       4.549   4.619   4.872  0.00  0.00    +0.147 A 
ATOM     14  C   UNL     1       3.367   4.989   4.244  0.00  0.00    +0.065 A 
ATOM     15  C   UNL     1       2.220   5.199   4.998  0.00  0.00    +0.025 A 
BRANCH  13  16
ATOM     16  N   UNL     1       5.775   4.399   4.072  0.00  0.00    +0.058 N 
ATOM     17  O   UNL     1       6.787   3.988   4.611  0.00  0.00    -0.126 OA
ATOM     18  O   UNL     1       5.771   4.628   2.876  0.00  0.00    -0.126 OA
ENDBRANCH  13  16
ENDBRANCH   1  14
BRANCH   8  19
ATOM     19  C   UNL     1       0.435   3.740   0.004  0.00  0.00    +0.010 A 
ATOM     20  C   UNL     1      -0.835   3.268   0.009  0.00  0.00    +0.013 A 
ATOM     21  C   UNL     1      -1.043   1.901  -0.016  0.00  0.00    +0.008 A 
ATOM     22  C   UNL     1       0.030   1.073  -0.035  0.00  0.00    +0.045 A 
ATOM     23  S   UNL     1       1.389   2.231  -0.030  0.00  0.00    -0.100 S 
ENDBRANCH   8  19
TORSDOF 3
