REMARK  Name = ZINC57608187
REMARK  10 active torsions:
REMARK  status: ('A' for Active; 'I' for Inactive)
REMARK    1  A    between atoms: C_1  and  C_2
REMARK    2  A    between atoms: C_2  and  C_3
REMARK    3  A    between atoms: C_10  and  C_15
REMARK    4  A    between atoms: C_15  and  C_17
REMARK    5  A    between atoms: C_15  and  N_28
REMARK    6  A    between atoms: N_21  and  C_22
REMARK    7  A    between atoms: N_28  and  C_29
REMARK    8  A    between atoms: N_28  and  C_35
REMARK    9  A    between atoms: C_29  and  C_30
REMARK   10  A    between atoms: C_35  and  C_36
REMARK                            x       y       z     vdW  Elec       q    Type
REMARK                         _______ _______ _______ _____ _____    ______ ____
ROOT
ATOM      1  C   UNL     1       6.218  -2.083  -3.552  0.00  0.00    +0.163 C 
ENDROOT
BRANCH   1   9
ATOM      2  C   UNL     1       1.710   0.633  -0.298  0.00  0.00    -0.047 A 
ATOM      3  C   UNL     1       0.769   0.648  -1.318  0.00  0.00    +0.005 A 
ATOM      4  C   UNL     1       1.070   0.134  -2.561  0.00  0.00    +0.026 A 
ATOM      5  C   UNL     1       2.330  -0.407  -2.797  0.00  0.00    +0.049 A 
ATOM      6  C   UNL     1       3.282  -0.420  -1.760  0.00  0.00    -0.001 A 
ATOM      7  C   UNL     1       2.955   0.112  -0.508  0.00  0.00    +0.013 A 
ATOM      8  C   UNL     1       4.605  -0.991  -2.019  0.00  0.00    +0.021 A 
ATOM      9  C   UNL     1       4.866  -1.488  -3.253  0.00  0.00    +0.042 A 
ATOM     10  C   UNL     1       3.876  -1.451  -4.258  0.00  0.00    +0.254 A 
ATOM     11  O   UNL     1       4.131  -1.903  -5.361  0.00  0.00    -0.268 OA
ATOM     12  N   UNL     1       2.658  -0.928  -4.030  0.00  0.00    -0.322 N 
ATOM     13  H   UNL     1       2.001  -0.919  -4.744  0.00  0.00    +0.169 HD
BRANCH   2  15
ATOM     14  C   UNL     1       1.708   2.691   1.086  0.00  0.00    +0.009 C 
ATOM     15  C   UNL     1       1.357   1.202   1.052  0.00  0.00    +0.032 C 
ENDBRANCH   2  15
ENDBRANCH   1   9
BRANCH   1  16
ATOM     16  C   UNL     1       6.065  -3.553  -3.850  0.00  0.00    +0.173 A 
ATOM     17  N   UNL     1       5.598  -4.083  -4.954  0.00  0.00    -0.111 NA
ATOM     18  N   UNL     1       5.627  -5.364  -4.823  0.00  0.00    -0.023 NA
ATOM     19  N   UNL     1       6.101  -5.665  -3.664  0.00  0.00    -0.044 NA
ATOM     20  N   UNL     1       6.388  -4.575  -3.036  0.00  0.00    -0.224 N 
BRANCH  20  21
ATOM     21  C   UNL     1       6.955  -4.471  -1.690  0.00  0.00    +0.111 C 
ATOM     22  C   UNL     1       8.312  -5.174  -1.651  0.00  0.00    +0.027 C 
ATOM     23  C   UNL     1       8.904  -5.065  -0.245  0.00  0.00    +0.002 C 
ATOM     24  C   UNL     1       7.959  -5.726   0.759  0.00  0.00    +0.000 C 
ATOM     25  C   UNL     1       6.601  -5.022   0.721  0.00  0.00    +0.002 C 
ATOM     26  C   UNL     1       6.009  -5.132  -0.685  0.00  0.00    +0.027 C 
ENDBRANCH  20  21
ENDBRANCH   1  16
BRANCH   1  27
ATOM     27  N   UNL     1       6.804  -1.406  -4.716  0.00  0.00    -0.279 NA
BRANCH  27  28
ATOM     28  C   UNL     1       8.231  -1.729  -4.850  0.00  0.00    +0.159 C 
BRANCH  28  29
ATOM     29  C   UNL     1       8.386  -3.193  -5.171  0.00  0.00    +0.119 A 
ATOM     30  C   UNL     1       8.425  -3.728  -6.405  0.00  0.00    +0.046 A 
ATOM     31  C   UNL     1       8.581  -5.124  -6.241  0.00  0.00    +0.041 A 
ATOM     32  C   UNL     1       8.629  -5.358  -4.917  0.00  0.00    +0.195 A 
ATOM     33  O   UNL     1       8.516  -4.184  -4.274  0.00  0.00    -0.467 OA
ENDBRANCH  28  29
ENDBRANCH  27  28
BRANCH  27  34
ATOM     34  C   UNL     1       6.598   0.046  -4.639  0.00  0.00    +0.117 C 
BRANCH  34  35
ATOM     35  C   UNL     1       6.869   0.673  -6.008  0.00  0.00    +0.132 C 
ATOM     36  C   UNL     1       6.651   2.200  -5.938  0.00  0.00    +0.035 C 
ATOM     37  C   UNL     1       5.966   2.498  -7.300  0.00  0.00    +0.031 C 
ATOM     38  C   UNL     1       5.133   1.207  -7.499  0.00  0.00    +0.160 C 
ATOM     39  O   UNL     1       5.952   0.147  -6.974  0.00  0.00    -0.375 OA
ENDBRANCH  34  35
ENDBRANCH  27  34
ENDBRANCH   1  27
TORSDOF 9
