REMARK  Name = ZINC00882334
REMARK  4 active torsions:
REMARK  status: ('A' for Active; 'I' for Inactive)
REMARK    1  A    between atoms: C_7  and  C_13
REMARK    2  A    between atoms: C_13  and  S_14
REMARK    3  A    between atoms: S_14  and  C_15
REMARK    4  A    between atoms: C_18  and  C_20
REMARK                            x       y       z     vdW  Elec       q    Type
REMARK                         _______ _______ _______ _____ _____    ______ ____
ROOT
ATOM      1  C   UNL     1      -1.382   6.069   0.048  0.00  0.00    +0.115 C 
ENDROOT
BRANCH   1   8
ATOM      2  C   UNL     1      -1.228   1.746   0.017  0.00  0.00    +0.001 A 
ATOM      3  C   UNL     1      -0.013   1.076   0.008  0.00  0.00    +0.002 A 
ATOM      4  C   UNL     1       1.176   1.774   0.000  0.00  0.00    +0.026 A 
ATOM      5  C   UNL     1       1.159   3.165   0.008  0.00  0.00    +0.049 A 
ATOM      6  C   UNL     1      -0.075   3.841   0.023  0.00  0.00    +0.003 A 
ATOM      7  C   UNL     1      -1.269   3.112   0.030  0.00  0.00    +0.010 A 
ATOM      8  C   UNL     1      -0.083   5.305   0.031  0.00  0.00    -0.023 A 
ATOM      9  C   UNL     1       1.105   5.959   0.023  0.00  0.00    +0.075 A 
ATOM     10  C   UNL     1       2.316   5.233   0.007  0.00  0.00    +0.249 A 
ATOM     11  O   UNL     1       3.373   5.840   0.001  0.00  0.00    -0.268 OA
ATOM     12  N   UNL     1       2.332   3.889   0.000  0.00  0.00    -0.322 N 
ATOM     13  H   UNL     1       3.208   3.407  -0.011  0.00  0.00    +0.169 HD
ENDBRANCH   1   8
BRANCH   1  14
ATOM     14  S   UNL     1      -2.142   6.002  -1.593  0.00  0.00    -0.061 S 
BRANCH  14  15
ATOM     15  C   UNL     1      -3.599   6.946  -1.293  0.00  0.00    +0.278 A 
ATOM     16  N   UNL     1      -3.945   7.502  -0.155  0.00  0.00    -0.101 NA
ATOM     17  N   UNL     1      -5.068   8.113  -0.300  0.00  0.00    -0.106 NA
ATOM     18  C   UNL     1      -5.484   7.972  -1.535  0.00  0.00    +0.249 A 
ATOM     19  O   UNL     1      -4.561   7.235  -2.191  0.00  0.00    -0.411 OA
BRANCH  18  20
ATOM     20  C   UNL     1      -6.731   8.522  -2.106  0.00  0.00    +0.039 A 
ATOM     21  C   UNL     1      -7.047   8.296  -3.447  0.00  0.00    +0.014 A 
ATOM     22  C   UNL     1      -8.215   8.807  -3.973  0.00  0.00    +0.021 A 
ATOM     23  C   UNL     1      -9.068   9.553  -3.176  0.00  0.00    +0.041 A 
ATOM     24  C   UNL     1      -8.758   9.785  -1.847  0.00  0.00    +0.021 A 
ATOM     25  C   UNL     1      -7.595   9.274  -1.308  0.00  0.00    +0.014 A 
ATOM     26 CL   UNL     1     -10.533  10.199  -3.847  0.00  0.00    -0.084 Cl
ENDBRANCH  18  20
ENDBRANCH  14  15
ENDBRANCH   1  14
TORSDOF 4
