REMARK  Name = ZINC14441612
REMARK  11 active torsions:
REMARK  status: ('A' for Active; 'I' for Inactive)
REMARK    1  A    between atoms: C_1  and  C_2
REMARK    2  A    between atoms: C_5  and  O_19
REMARK    3  A    between atoms: C_7  and  C_18
REMARK    4  A    between atoms: C_9  and  O_17
REMARK    5  A    between atoms: C_11  and  C_15
REMARK    6  A    between atoms: C_11  and  C_16
REMARK    7  A    between atoms: O_19  and  C_20
REMARK    8  A    between atoms: C_20  and  C_22
REMARK    9  A    between atoms: C_25  and  O_30
REMARK   10  A    between atoms: C_26  and  O_28
REMARK   11  A    between atoms: O_28  and  C_29
REMARK                            x       y       z     vdW  Elec       q    Type
REMARK                         _______ _______ _______ _____ _____    ______ ____
ROOT
ATOM      1  C   UNL     1      -0.873   6.509   2.828  0.00  0.00    +0.039 C 
ATOM      2  C   UNL     1      -1.771   5.420   2.283  0.00  0.00    -0.076 C 
ATOM      3  C   UNL     1      -2.802   5.759   1.553  0.00  0.00    -0.024 C 
ATOM      4  C   UNL     1      -3.753   4.745   0.979  0.00  0.00    +0.076 C 
ATOM      5  C   UNL     1      -3.510   4.588  -0.520  0.00  0.00    +0.206 C 
ATOM      6  C   UNL     1      -2.867   3.240  -0.785  0.00  0.00    -0.034 C 
ATOM      7  C   UNL     1      -1.583   3.209  -0.993  0.00  0.00    +0.007 C 
ATOM      8  C   UNL     1      -0.729   2.014  -1.254  0.00  0.00    +0.143 C 
ATOM      9  C   UNL     1      -0.019   1.534   0.011  0.00  0.00    -0.005 C 
ATOM     10  C   UNL     1      -0.733   2.003   1.270  0.00  0.00    +0.009 C 
ATOM     11  C   UNL     1      -0.409   3.457   1.606  0.00  0.00    +0.005 C 
ATOM     12  C   UNL     1      -1.455   3.984   2.598  0.00  0.00    +0.030 C 
ATOM     13  C   UNL     1       0.002  -0.004   0.002  0.00  0.00    +0.014 C 
ATOM     14  C   UNL     1       1.428   2.037  -0.001  0.00  0.00    +0.014 C 
ATOM     15  C   UNL     1      -3.749   2.021  -0.792  0.00  0.00    +0.042 C 
ENDROOT
BRANCH   8  16
ATOM     16  O   UNL     1      -1.440   0.938  -1.856  0.00  0.00    -0.387 OA
ATOM     17  H   UNL     1      -1.912   1.181  -2.664  0.00  0.00    +0.210 HD
ENDBRANCH   8  16
BRANCH   5  18
ATOM     18  O   UNL     1      -4.771   4.658  -1.229  0.00  0.00    -0.453 OA
BRANCH  18  19
ATOM     19  C   UNL     1      -5.175   5.877  -1.639  0.00  0.00    +0.340 C 
ATOM     20  O   UNL     1      -4.490   6.853  -1.409  0.00  0.00    -0.245 OA
BRANCH  19  21
ATOM     21  C   UNL     1      -6.449   6.025  -2.367  0.00  0.00    +0.063 A 
ATOM     22  C   UNL     1      -7.239   4.903  -2.632  0.00  0.00    +0.019 A 
ATOM     23  C   UNL     1      -8.429   5.043  -3.313  0.00  0.00    +0.050 A 
ATOM     24  C   UNL     1      -8.847   6.298  -3.736  0.00  0.00    +0.158 A 
ATOM     25  C   UNL     1      -8.064   7.421  -3.474  0.00  0.00    +0.162 A 
ATOM     26  C   UNL     1      -6.873   7.289  -2.788  0.00  0.00    +0.064 A 
BRANCH  25  27
ATOM     27  O   UNL     1      -8.476   8.649  -3.889  0.00  0.00    -0.491 OA
ATOM     28  C   UNL     1      -7.625   9.756  -3.587  0.00  0.00    +0.277 C 
ENDBRANCH  25  27
BRANCH  24  29
ATOM     29  O   UNL     1     -10.020   6.430  -4.406  0.00  0.00    -0.503 OA
ATOM     30  H   UNL     1     -10.784   6.586  -3.834  0.00  0.00    +0.292 HD
ENDBRANCH  24  29
ENDBRANCH  19  21
ENDBRANCH  18  19
ENDBRANCH   5  18
TORSDOF 6
