REMARK  Name = ZINC20288714
REMARK  14 active torsions:
REMARK  status: ('A' for Active; 'I' for Inactive)
REMARK    1  A    between atoms: C_1  and  C_2
REMARK    2  A    between atoms: C_2  and  N_3
REMARK    3  A    between atoms: N_3  and  C_4
REMARK    4  A    between atoms: N_3  and  C_6
REMARK    5  A    between atoms: C_4  and  C_5
REMARK    6  A    between atoms: C_6  and  C_7
REMARK    7  A    between atoms: C_7  and  N_8
REMARK    8  A    between atoms: C_9  and  C_11
REMARK    9  A    between atoms: N_13  and  C_14
REMARK   10  A    between atoms: C_14  and  C_16
REMARK   11  A    between atoms: C_14  and  C_17
REMARK   12  A    between atoms: C_17  and  C_19
REMARK   13  A    between atoms: C_17  and  N_24
REMARK   14  A    between atoms: N_27  and  C_30
REMARK                            x       y       z     vdW  Elec       q    Type
REMARK                         _______ _______ _______ _____ _____    ______ ____
ROOT
ATOM      1  C   UNL     1       1.123   3.887  -0.100  0.00  0.00    +0.114 C 
ENDROOT
BRANCH   1   2
ATOM      2  N   UNL     1       1.982   4.534   0.900  0.00  0.00    -0.290 NA
ATOM      3  C   UNL     1       1.375   4.468   2.237  0.00  0.00    +0.104 C 
ATOM      4  C   UNL     1       2.335   5.081   3.261  0.00  0.00    +0.120 C 
ATOM      5  N   UNL     1       2.625   6.471   2.885  0.00  0.00    -0.325 N 
ATOM      6  C   UNL     1       3.231   6.537   1.548  0.00  0.00    +0.120 C 
ATOM      7  C   UNL     1       2.272   5.925   0.525  0.00  0.00    +0.104 C 
BRANCH   5   8
ATOM      8  C   UNL     1       3.443   7.088   3.838  0.00  0.00    +0.065 A 
ATOM      9  C   UNL     1       3.774   8.429   3.707  0.00  0.00    +0.026 A 
ATOM     10  C   UNL     1       4.580   9.036   4.651  0.00  0.00    +0.002 A 
ATOM     11  C   UNL     1       5.063   8.307   5.722  0.00  0.00    +0.003 A 
ATOM     12  C   UNL     1       4.740   6.969   5.854  0.00  0.00    +0.040 A 
ATOM     13  C   UNL     1       3.931   6.356   4.915  0.00  0.00    +0.144 A 
ATOM     14  F   UNL     1       3.616   5.049   5.044  0.00  0.00    -0.204 F 
ENDBRANCH   5   8
ENDBRANCH   1   2
BRANCH   1  15
ATOM     15  C   UNL     1       0.911   2.444   0.278  0.00  0.00    +0.009 A 
ATOM     16  C   UNL     1      -0.207   1.686   0.164  0.00  0.00    +0.013 A 
ATOM     17  C   UNL     1      -0.170   0.369   0.579  0.00  0.00    +0.008 A 
ATOM     18  C   UNL     1       0.984  -0.127   1.089  0.00  0.00    +0.045 A 
ATOM     19  S   UNL     1       2.069   1.287   0.991  0.00  0.00    -0.100 S 
ENDBRANCH   1  15
BRANCH   1  20
ATOM     20  C   UNL     1       1.793   3.962  -1.473  0.00  0.00    +0.092 C 
ATOM     21  C   UNL     1       3.174   3.306  -1.403  0.00  0.00    +0.030 C 
BRANCH  20  24
ATOM     22  C   UNL     1       1.048   3.589  -3.763  0.00  0.00    +0.299 C 
ATOM     23  O   UNL     1       1.804   4.469  -4.121  0.00  0.00    -0.265 OA
ATOM     24  N   UNL     1       0.968   3.259  -2.459  0.00  0.00    -0.303 N 
ATOM     25  H   UNL     1       0.283   2.462  -2.134  0.00  0.00    +0.149 HD
BRANCH  22  27
ATOM     26  N   UNL     1       0.286   3.202  -6.072  0.00  0.00    -0.309 N 
ATOM     27  C   UNL     1       0.206   2.873  -4.768  0.00  0.00    +0.299 C 
ATOM     28  O   UNL     1      -0.550   1.993  -4.410  0.00  0.00    -0.265 OA
ATOM     29  H   UNL     1       0.971   3.999  -6.397  0.00  0.00    +0.149 HD
BRANCH  26  30
ATOM     30  C   UNL     1      -0.539   2.500  -7.058  0.00  0.00    +0.086 C 
BRANCH  30  31
ATOM     31  C   UNL     1      -0.258   3.062  -8.453  0.00  0.00    -0.060 C 
BRANCH  31  32
ATOM     32  N   UNL     1      -1.086   2.358  -9.441  0.00  0.00    +0.380 N 
ATOM     33  H   UNL     1      -0.931   1.277  -9.302  0.00  0.00    -0.082 HD
BRANCH  32  35
ATOM     34  C   UNL     1      -2.773   4.133  -9.446  0.00  0.00    -0.017 C 
ATOM     35  C   UNL     1      -2.512   2.640  -9.231  0.00  0.00    -0.082 C 
ENDBRANCH  32  35
BRANCH  32  36
ATOM     36  C   UNL     1      -0.677   2.700 -10.810  0.00  0.00    -0.082 C 
ATOM     37  C   UNL     1      -1.278   1.690 -11.789  0.00  0.00    -0.017 C 
ENDBRANCH  32  36
ENDBRANCH  31  32
ENDBRANCH  30  31
ENDBRANCH  26  30
ENDBRANCH  22  27
ENDBRANCH  20  24
ENDBRANCH   1  20
TORSDOF 11
