REMARK  Name = ZINC32631901
REMARK  6 active torsions:
REMARK  status: ('A' for Active; 'I' for Inactive)
REMARK    1  A    between atoms: C_1  and  C_2
REMARK    2  A    between atoms: C_3  and  C_17
REMARK    3  A    between atoms: C_7  and  N_8
REMARK    4  A    between atoms: N_8  and  S_9
REMARK    5  A    between atoms: S_9  and  C_12
REMARK    6  A    between atoms: N_19  and  C_20
REMARK                            x       y       z     vdW  Elec       q    Type
REMARK                         _______ _______ _______ _____ _____    ______ ____
ROOT
ATOM      1  C   UNL     1      -3.320   2.391  -2.258  0.00  0.00    +0.046 C 
ATOM      2  C   UNL     1      -2.374   3.527  -1.965  0.00  0.00    -0.014 A 
ATOM      3  C   UNL     1      -2.849   4.838  -1.916  0.00  0.00    +0.041 A 
ATOM      4  C   UNL     1      -1.966   5.885  -1.651  0.00  0.00    +0.013 A 
ATOM      5  C   UNL     1      -0.629   5.622  -1.431  0.00  0.00    +0.003 A 
ATOM      6  C   UNL     1      -0.160   4.323  -1.474  0.00  0.00    +0.027 A 
ATOM      7  C   UNL     1      -1.031   3.272  -1.738  0.00  0.00    +0.078 A 
ENDROOT
BRANCH   3   8
ATOM      8  C   UNL     1      -4.282   5.117  -2.151  0.00  0.00    +0.244 C 
ATOM      9  O   UNL     1      -5.070   4.198  -2.263  0.00  0.00    -0.270 OA
ATOM     10  N   UNL     1      -4.715   6.390  -2.240  0.00  0.00    -0.314 N 
ATOM     11  C   UNL     1      -6.134   6.667  -2.473  0.00  0.00    +0.128 C 
ATOM     12  H   UNL     1      -4.002   7.222  -2.138  0.00  0.00    +0.149 HD
ENDBRANCH   3   8
BRANCH   7  13
ATOM     13  N   UNL     1      -0.551   1.960  -1.779  0.00  0.00    -0.097 NA
BRANCH  13  14
ATOM     14  S   UNL     1       0.660   1.489  -0.753  0.00  0.00    +0.098 S 
ATOM     15  O   UNL     1       0.828   0.090  -0.939  0.00  0.00    -0.148 OA
ATOM     16  O   UNL     1       1.724   2.414  -0.929  0.00  0.00    -0.148 OA
BRANCH  14  17
ATOM     17  C   UNL     1       0.066   1.710   0.891  0.00  0.00    +0.148 A 
ATOM     18  C   UNL     1      -0.600   0.835   1.683  0.00  0.00    +0.037 A 
ATOM     19  C   UNL     1      -0.972   1.230   2.954  0.00  0.00    +0.010 A 
ATOM     20  C   UNL     1      -0.659   2.481   3.372  0.00  0.00    +0.047 A 
ATOM     21  S   UNL     1       0.193   3.143   1.949  0.00  0.00    -0.077 S 
ENDBRANCH  14  17
ENDBRANCH  13  14
ENDBRANCH   7  13
TORSDOF 4
