REMARK  Name = ZINC00729574
REMARK  2 active torsions:
REMARK  status: ('A' for Active; 'I' for Inactive)
REMARK    1  A    between atoms: C_8  and  C_24
REMARK    2  A    between atoms: C_14  and  C_19
REMARK                            x       y       z     vdW  Elec       q    Type
REMARK                         _______ _______ _______ _____ _____    ______ ____
ROOT
ATOM      1  C   UNL     1      -0.182   4.942   5.155  0.00  0.00    +0.002 A 
ATOM      2  C   UNL     1       0.975   4.800   4.410  0.00  0.00    +0.002 A 
ATOM      3  C   UNL     1       1.083   3.786   3.474  0.00  0.00    +0.025 A 
ATOM      4  C   UNL     1       0.022   2.916   3.292  0.00  0.00    +0.052 A 
ATOM      5  C   UNL     1      -1.154   3.082   4.008  0.00  0.00    +0.049 A 
ATOM      6  C   UNL     1      -1.252   4.086   4.957  0.00  0.00    +0.025 A 
ATOM      7  N   UNL     1      -2.220   2.225   3.740  0.00  0.00    -0.331 N 
ATOM      8  C   UNL     1      -2.871   2.226   2.447  0.00  0.00    +0.137 C 
ATOM      9  C   UNL     1      -1.993   1.782   1.302  0.00  0.00    +0.036 C 
ATOM     10  C   UNL     1      -0.663   1.611   1.349  0.00  0.00    +0.017 C 
ATOM     11  N   UNL     1       0.104   1.810   2.454  0.00  0.00    -0.316 N 
ATOM     12  C   UNL     1       0.103   1.149   0.121  0.00  0.00    +0.060 C 
ATOM     13  C   UNL     1      -0.580   1.666  -1.144  0.00  0.00    +0.039 C 
ATOM     14  C   UNL     1      -2.010   1.113  -1.161  0.00  0.00    +0.088 C 
ATOM     15  C   UNL     1      -2.699   1.538   0.101  0.00  0.00    +0.163 C 
ATOM     16  O   UNL     1      -3.906   1.678   0.091  0.00  0.00    -0.292 OA
ATOM     17  H   UNL     1      -2.531   1.618   4.431  0.00  0.00    +0.147 HD
ATOM     18  H   UNL     1       0.758   1.128   2.675  0.00  0.00    +0.152 HD
ENDROOT
BRANCH   8  19
ATOM     19  C   UNL     1      -3.358   3.623   2.160  0.00  0.00    -0.001 A 
ATOM     20  C   UNL     1      -2.719   4.395   1.207  0.00  0.00    +0.056 A 
ATOM     21  C   UNL     1      -3.169   5.677   0.938  0.00  0.00    +0.167 A 
ATOM     22  C   UNL     1      -4.259   6.191   1.637  0.00  0.00    +0.168 A 
ATOM     23  C   UNL     1      -4.891   5.415   2.594  0.00  0.00    +0.070 A 
ATOM     24  C   UNL     1      -4.441   4.133   2.855  0.00  0.00    +0.050 A 
ATOM     25 CL   UNL     1      -5.235   3.162   4.055  0.00  0.00    -0.083 Cl
ATOM     26  O   UNL     1      -4.500   7.460   1.197  0.00  0.00    -0.453 OA
ATOM     27  C   UNL     1      -3.298   7.866   0.517  0.00  0.00    +0.466 C 
ATOM     28  O   UNL     1      -2.727   6.625   0.061  0.00  0.00    -0.453 OA
ENDBRANCH   8  19
BRANCH  13  29
ATOM     29  C   UNL     1       0.169   1.187  -2.361  0.00  0.00    -0.006 A 
ATOM     30  C   UNL     1       0.764   1.914  -3.338  0.00  0.00    +0.011 A 
ATOM     31  C   UNL     1       1.404   1.254  -4.370  0.00  0.00    +0.008 A 
ATOM     32  C   UNL     1       1.410  -0.102  -4.379  0.00  0.00    +0.045 A 
ATOM     33  S   UNL     1       0.496  -0.485  -2.894  0.00  0.00    -0.101 S 
ENDBRANCH  13  29
TORSDOF 2
