REMARK  Name = ZINC09467901
REMARK  10 active torsions:
REMARK  status: ('A' for Active; 'I' for Inactive)
REMARK    1  A    between atoms: C_1  and  C_2
REMARK    2  A    between atoms: C_7  and  C_9
REMARK    3  A    between atoms: C_7  and  C_10
REMARK    4  A    between atoms: C_13  and  C_15
REMARK    5  A    between atoms: C_15  and  S_16
REMARK    6  A    between atoms: S_16  and  C_17
REMARK    7  A    between atoms: C_20  and  C_23
REMARK    8  A    between atoms: N_21  and  N_22
REMARK    9  A    between atoms: C_26  and  O_29
REMARK   10  A    between atoms: O_29  and  C_30
REMARK                            x       y       z     vdW  Elec       q    Type
REMARK                         _______ _______ _______ _____ _____    ______ ____
ROOT
ATOM      1  C   UNL     1       2.722  -3.164  -5.855  0.00  0.00    +0.209 A 
ATOM      2  N   UNL     1       3.426  -2.061  -5.738  0.00  0.00    -0.121 NA
ATOM      3  N   UNL     1       4.294  -1.988  -6.684  0.00  0.00    -0.127 NA
ATOM      4  C   UNL     1       4.197  -3.041  -7.462  0.00  0.00    +0.182 A 
ATOM      5  N   UNL     1       3.191  -3.829  -6.952  0.00  0.00    -0.224 N 
ENDROOT
BRANCH   4   6
ATOM      6  C   UNL     1       5.017  -3.328  -8.658  0.00  0.00    +0.021 A 
ATOM      7  C   UNL     1       4.609  -4.304  -9.569  0.00  0.00    +0.015 A 
ATOM      8  C   UNL     1       5.376  -4.569 -10.683  0.00  0.00    +0.046 A 
ATOM      9  C   UNL     1       6.554  -3.865 -10.900  0.00  0.00    +0.127 A 
ATOM     10  C   UNL     1       6.963  -2.894  -9.997  0.00  0.00    +0.046 A 
ATOM     11  C   UNL     1       6.199  -2.619  -8.883  0.00  0.00    +0.015 A 
BRANCH   9  12
ATOM     12  O   UNL     1       7.308  -4.130 -11.999  0.00  0.00    -0.434 OA
BRANCH  12  13
ATOM     13  C   UNL     1       8.507  -3.370 -12.161  0.00  0.00    +0.541 C 
ATOM     14  F   UNL     1       8.190  -2.009 -12.241  0.00  0.00    -0.166 F 
ATOM     15  F   UNL     1       9.349  -3.589 -11.066  0.00  0.00    -0.166 F 
ENDBRANCH  12  13
ENDBRANCH   9  12
ENDBRANCH   4   6
BRANCH   5  16
ATOM     16  N   UNL     1       2.751  -5.026  -7.442  0.00  0.00    -0.295 N 
ATOM     17  H   UNL     1       2.009  -4.891  -8.113  0.00  0.00    +0.163 HD
ATOM     18  H   UNL     1       3.511  -5.553  -7.845  0.00  0.00    +0.163 HD
ENDBRANCH   5  16
BRANCH   1  19
ATOM     19  S   UNL     1       1.421  -3.691  -4.790  0.00  0.00    -0.075 S 
BRANCH  19  20
ATOM     20  C   UNL     1       1.305  -2.369  -3.552  0.00  0.00    +0.173 C 
BRANCH  20  32
ATOM     21  C   UNL     1      -0.019   1.532   0.011  0.00  0.00    +0.013 C 
ATOM     22  C   UNL     1       0.002  -0.004   0.002  0.00  0.00    -0.014 C 
ATOM     23  C   UNL     1      -1.426  -0.614  -0.023  0.00  0.00    +0.030 C 
ATOM     24  C   UNL     1      -1.088  -2.044  -0.513  0.00  0.00    +0.077 C 
ATOM     25  C   UNL     1      -0.480  -2.795   0.669  0.00  0.00    +0.029 C 
ATOM     26  C   UNL     1       0.727  -2.106   1.280  0.00  0.00    -0.033 C 
ATOM     27  C   UNL     1       0.726  -0.590   1.213  0.00  0.00    +0.014 C 
ATOM     28  C   UNL     1       0.765  -2.497   2.779  0.00  0.00    +0.011 C 
ATOM     29  C   UNL     1       2.014  -2.662   0.655  0.00  0.00    +0.011 C 
ATOM     30  N   UNL     1      -0.054  -1.854  -1.550  0.00  0.00    -0.297 N 
ATOM     31  C   UNL     1       0.625  -0.576  -1.291  0.00  0.00    +0.114 C 
ATOM     32  C   UNL     1       0.214  -2.699  -2.566  0.00  0.00    +0.226 C 
ATOM     33  O   UNL     1      -0.422  -3.725  -2.686  0.00  0.00    -0.275 OA
ENDBRANCH  20  32
ENDBRANCH  19  20
ENDBRANCH   1  19
TORSDOF 7
