REMARK  Name = ZINC08606672
REMARK  7 active torsions:
REMARK  status: ('A' for Active; 'I' for Inactive)
REMARK    1  A    between atoms: C_1  and  C_2
REMARK    2  A    between atoms: C_5  and  C_22
REMARK    3  A    between atoms: C_7  and  N_8
REMARK    4  A    between atoms: N_8  and  S_9
REMARK    5  A    between atoms: S_9  and  C_12
REMARK    6  A    between atoms: C_15  and  N_18
REMARK    7  A    between atoms: C_19  and  C_21
REMARK                            x       y       z     vdW  Elec       q    Type
REMARK                         _______ _______ _______ _____ _____    ______ ____
ROOT
ATOM      1  C   UNL     1       0.142   1.642   0.153  0.00  0.00    +0.046 C 
ATOM      2  C   UNL     1       0.259   0.144   0.037  0.00  0.00    -0.028 A 
ATOM      3  C   UNL     1       0.436  -0.439  -1.204  0.00  0.00    +0.006 A 
ATOM      4  C   UNL     1       0.545  -1.811  -1.317  0.00  0.00    +0.010 A 
ATOM      5  C   UNL     1       0.476  -2.613  -0.179  0.00  0.00    +0.004 A 
ATOM      6  C   UNL     1       0.297  -2.027   1.071  0.00  0.00    +0.034 A 
ATOM      7  C   UNL     1       0.194  -0.647   1.177  0.00  0.00    +0.052 A 
ENDROOT
BRANCH   5   8
ATOM      8  C   UNL     1       0.592  -4.087  -0.299  0.00  0.00    +0.090 A 
ATOM      9  C   UNL     1       0.868  -4.775  -1.442  0.00  0.00    +0.121 A 
ATOM     10  N   UNL     1       0.883  -6.103  -1.118  0.00  0.00    -0.306 N 
ATOM     11  C   UNL     1       1.105  -7.228  -1.859  0.00  0.00    +0.093 A 
ATOM     12  C   UNL     1       1.063  -8.448  -1.284  0.00  0.00    +0.018 A 
ATOM     13  C   UNL     1       0.790  -8.577   0.088  0.00  0.00    +0.005 A 
ATOM     14  C   UNL     1       0.568  -7.465   0.838  0.00  0.00    +0.047 A 
ATOM     15  C   UNL     1       0.615  -6.196   0.224  0.00  0.00    +0.138 A 
ATOM     16  N   UNL     1       0.448  -4.971   0.700  0.00  0.00    -0.228 NA
ENDBRANCH   5   8
BRANCH   7  17
ATOM     17  N   UNL     1       0.021  -0.054   2.430  0.00  0.00    -0.216 N 
ATOM     18  H   UNL     1      -0.534   0.737   2.520  0.00  0.00    +0.174 HD
BRANCH  17  19
ATOM     19  S   UNL     1       0.762  -0.701   3.763  0.00  0.00    +0.072 S 
ATOM     20  O   UNL     1       0.515   0.194   4.839  0.00  0.00    -0.150 OA
ATOM     21  O   UNL     1       0.388  -2.071   3.810  0.00  0.00    -0.150 OA
BRANCH  19  22
ATOM     22  C   UNL     1       2.498  -0.662   3.463  0.00  0.00    +0.109 A 
ATOM     23  C   UNL     1       3.115  -1.734   2.846  0.00  0.00    +0.030 A 
ATOM     24  C   UNL     1       4.476  -1.707   2.610  0.00  0.00    +0.025 A 
ATOM     25  C   UNL     1       5.224  -0.601   2.993  0.00  0.00    +0.033 A 
ATOM     26  C   UNL     1       4.600   0.474   3.612  0.00  0.00    +0.025 A 
ATOM     27  C   UNL     1       3.238   0.443   3.841  0.00  0.00    +0.030 A 
BRANCH  25  28
ATOM     28  N   UNL     1       6.602  -0.570   2.756  0.00  0.00    -0.286 N 
ATOM     29  C   UNL     1       7.107  -1.138   1.643  0.00  0.00    +0.214 C 
ATOM     30  O   UNL     1       6.379  -1.748   0.889  0.00  0.00    -0.276 OA
ATOM     31  C   UNL     1       8.577  -1.016   1.335  0.00  0.00    +0.109 C 
ATOM     32  H   UNL     1       7.194  -0.140   3.392  0.00  0.00    +0.155 HD
ENDBRANCH  25  28
ENDBRANCH  19  22
ENDBRANCH  17  19
ENDBRANCH   7  17
TORSDOF 5
