REMARK  Name = ZINC20985046
REMARK  8 active torsions:
REMARK  status: ('A' for Active; 'I' for Inactive)
REMARK    1  A    between atoms: C_1  and  C_2
REMARK    2  A    between atoms: C_2  and  C_4
REMARK    3  A    between atoms: C_2  and  N_23
REMARK    4  A    between atoms: C_4  and  C_5
REMARK    5  A    between atoms: C_5  and  N_6
REMARK    6  A    between atoms: N_6  and  S_7
REMARK    7  A    between atoms: S_7  and  C_10
REMARK    8  A    between atoms: C_13  and  C_15
REMARK                            x       y       z     vdW  Elec       q    Type
REMARK                         _______ _______ _______ _____ _____    ______ ____
ROOT
ATOM      1  S   UNL     1      -1.536  -2.195  -0.451  0.00  0.00    +0.065 S 
ATOM      2  O   UNL     1      -2.900  -2.466  -0.157  0.00  0.00    -0.153 OA
ATOM      3  O   UNL     1      -0.999  -2.324  -1.760  0.00  0.00    -0.153 OA
ENDROOT
BRANCH   1   4
ATOM      4  C   UNL     1      -0.578  -3.243   0.592  0.00  0.00    +0.143 A 
ATOM      5  C   UNL     1      -0.917  -3.807   1.780  0.00  0.00    +0.037 A 
ATOM      6  C   UNL     1      -0.002  -4.605   2.430  0.00  0.00    +0.020 A 
ATOM      7  C   UNL     1       1.229  -4.795   1.859  0.00  0.00    +0.041 A 
ATOM      8  S   UNL     1       1.093  -3.831   0.362  0.00  0.00    -0.067 S 
BRANCH   7   9
ATOM      9  C   UNL     1       2.372  -5.590   2.353  0.00  0.00    +0.098 A 
ATOM     10  C   UNL     1       3.568  -5.653   1.597  0.00  0.00    +0.036 A 
ATOM     11  C   UNL     1       4.601  -6.397   2.085  0.00  0.00    +0.073 A 
ATOM     12  C   UNL     1       4.414  -7.060   3.318  0.00  0.00    +0.265 A 
ATOM     13  O   UNL     1       5.311  -7.737   3.794  0.00  0.00    -0.266 OA
ATOM     14  N   UNL     1       3.240  -6.941   3.965  0.00  0.00    -0.243 N 
ATOM     15  H   UNL     1       3.085  -7.458   4.924  0.00  0.00    +0.192 HD
ATOM     16  N   UNL     1       2.277  -6.232   3.496  0.00  0.00    -0.170 NA
ENDBRANCH   7   9
ENDBRANCH   1   4
BRANCH   1  17
ATOM     17  N   UNL     1      -1.250  -0.635   0.027  0.00  0.00    -0.190 NA
ATOM     18  H   UNL     1      -2.020  -0.100   0.602  0.00  0.00    +0.148 HD
BRANCH  17  19
ATOM     19  C   UNL     1       0.088  -0.057  -0.122  0.00  0.00    +0.104 C 
BRANCH  19  20
ATOM     20  C   UNL     1       0.006   1.463   0.030  0.00  0.00    +0.001 C 
BRANCH  20  22
ATOM     21  C   UNL     1       1.341   3.565   0.236  0.00  0.00    -0.013 C 
ATOM     22  C   UNL     1       1.417   2.055  -0.001  0.00  0.00    -0.071 C 
BRANCH  22  23
ATOM     23  N   UNL     1       2.028   1.794  -1.310  0.00  0.00    +0.381 N 
ATOM     24  C   UNL     1       3.494   1.990  -1.260  0.00  0.00    -0.078 C 
ATOM     25  C   UNL     1       4.129   2.002  -2.623  0.00  0.00    -0.019 C 
ATOM     26  C   UNL     1       4.231   3.465  -3.103  0.00  0.00    -0.002 C 
ATOM     27  C   UNL     1       2.957   3.970  -3.604  0.00  0.00    -0.002 C 
ATOM     28  C   UNL     1       1.859   3.960  -2.519  0.00  0.00    -0.019 C 
ATOM     29  C   UNL     1       1.341   2.555  -2.378  0.00  0.00    -0.078 C 
ATOM     30  H   UNL     1       1.883   0.734  -1.566  0.00  0.00    -0.081 HD
ENDBRANCH  22  23
ENDBRANCH  20  22
ENDBRANCH  19  20
ENDBRANCH  17  19
ENDBRANCH   1  17
TORSDOF 7
