REMARK  Name = ZINC01052650
REMARK  6 active torsions:
REMARK  status: ('A' for Active; 'I' for Inactive)
REMARK    1  A    between atoms: C_1  and  C_2
REMARK    2  A    between atoms: C_5  and  O_9
REMARK    3  A    between atoms: O_9  and  C_10
REMARK    4  A    between atoms: C_10  and  C_11
REMARK    5  A    between atoms: N_13  and  N_14
REMARK    6  A    between atoms: C_20  and  C_25
REMARK                            x       y       z     vdW  Elec       q    Type
REMARK                         _______ _______ _______ _____ _____    ______ ____
ROOT
ATOM      1  C   UNL     1      -0.014   1.208   0.009  0.00  0.00    +0.270 C 
ATOM      2  O   UNL     1       0.002  -0.004   0.002  0.00  0.00    -0.270 OA
ATOM      3  N   UNL     1       1.143   1.898   0.001  0.00  0.00    -0.203 N 
ATOM      4  H   UNL     1       1.130   2.868   0.007  0.00  0.00    +0.177 HD
ENDROOT
BRANCH   3   5
ATOM      5  N   UNL     1       2.366   1.214  -0.014  0.00  0.00    -0.174 NA
ATOM      6  C   UNL     1       3.492   1.885  -0.021  0.00  0.00    +0.153 C 
ATOM      7  C   UNL     1       4.869   1.337  -0.031  0.00  0.00    +0.029 A 
ATOM      8  C   UNL     1       5.378   0.043  -0.050  0.00  0.00    +0.027 A 
ATOM      9  C   UNL     1       6.745  -0.154  -0.064  0.00  0.00    +0.019 A 
ATOM     10  C   UNL     1       7.604   0.933  -0.066  0.00  0.00    +0.020 A 
ATOM     11  C   UNL     1       7.106   2.221  -0.054  0.00  0.00    -0.028 A 
ATOM     12  C   UNL     1       5.733   2.439  -0.040  0.00  0.00    +0.046 A 
ATOM     13  N   UNL     1       4.984   3.611  -0.026  0.00  0.00    -0.279 N 
ATOM     14  C   UNL     1       3.666   3.352  -0.014  0.00  0.00    +0.269 C 
ATOM     15  O   UNL     1       2.773   4.178  -0.001  0.00  0.00    -0.268 OA
ATOM     16  C   UNL     1       8.054   3.393  -0.057  0.00  0.00    +0.046 C 
ATOM     17 BR   UNL     1       7.446  -1.911  -0.080  0.00  0.00    -0.050 Br
ATOM     18  H   UNL     1       5.365   4.503  -0.024  0.00  0.00    +0.155 HD
ENDBRANCH   3   5
BRANCH   1  19
ATOM     19  C   UNL     1      -1.330   1.944   0.019  0.00  0.00    +0.326 C 
BRANCH  19  20
ATOM     20  O   UNL     1      -2.403   1.001   0.019  0.00  0.00    -0.480 OA
BRANCH  20  25
ATOM     21  C   UNL     1      -7.638   3.083   0.055  0.00  0.00    +0.044 C 
ATOM     22  C   UNL     1      -6.238   2.526   0.045  0.00  0.00    -0.048 A 
ATOM     23  C   UNL     1      -5.602   2.278  -1.157  0.00  0.00    +0.022 A 
ATOM     24  C   UNL     1      -4.318   1.767  -1.169  0.00  0.00    +0.061 A 
ATOM     25  C   UNL     1      -3.666   1.503   0.028  0.00  0.00    +0.149 A 
ATOM     26  C   UNL     1      -4.308   1.748   1.233  0.00  0.00    +0.061 A 
ATOM     27  C   UNL     1      -5.591   2.264   1.239  0.00  0.00    +0.022 A 
ATOM     28 BR   UNL     1      -3.428   1.383   2.866  0.00  0.00    -0.046 Br
ATOM     29 BR   UNL     1      -3.449   1.427  -2.814  0.00  0.00    -0.046 Br
ENDBRANCH  20  25
ENDBRANCH  19  20
ENDBRANCH   1  19
TORSDOF 4
