REMARK  Name = ZINC12531465
REMARK  13 active torsions:
REMARK  status: ('A' for Active; 'I' for Inactive)
REMARK    1  A    between atoms: C_1  and  C_2
REMARK    2  A    between atoms: C_2  and  O_36
REMARK    3  A    between atoms: C_5  and  C_23
REMARK    4  A    between atoms: C_9  and  C_21
REMARK    5  A    between atoms: C_9  and  C_22
REMARK    6  A    between atoms: C_11  and  N_13
REMARK    7  A    between atoms: N_13  and  C_14
REMARK    8  A    between atoms: N_17  and  C_20
REMARK    9  A    between atoms: C_23  and  C_24
REMARK   10  A    between atoms: C_24  and  C_25
REMARK   11  A    between atoms: N_27  and  C_28
REMARK   12  A    between atoms: C_28  and  C_29
REMARK   13  A    between atoms: C_29  and  N_30
REMARK                            x       y       z     vdW  Elec       q    Type
REMARK                         _______ _______ _______ _____ _____    ______ ____
ROOT
ATOM      1  C   UNL     1      -0.412   1.532  -0.816  0.00  0.00    +0.041 C 
ATOM      2  C   UNL     1      -0.065   0.047  -0.686  0.00  0.00    +0.064 C 
ATOM      3  C   UNL     1      -1.351  -0.786  -0.716  0.00  0.00    +0.035 C 
ATOM      4  C   UNL     1      -0.967  -2.265  -0.663  0.00  0.00    +0.008 C 
ATOM      5  C   UNL     1      -0.179  -2.584   0.587  0.00  0.00    -0.038 C 
ATOM      6  C   UNL     1       1.045  -1.670   0.779  0.00  0.00    +0.002 C 
ATOM      7  C   UNL     1       0.646  -0.199   0.642  0.00  0.00    +0.039 C 
ATOM      8  C   UNL     1       1.377  -1.903   2.283  0.00  0.00    -0.033 C 
ATOM      9  C   UNL     1      -0.008  -1.979   2.960  0.00  0.00    -0.009 C 
ATOM     10  C   UNL     1      -1.007  -2.411   1.867  0.00  0.00    -0.064 C 
ATOM     11  C   UNL     1       2.185  -0.729   2.841  0.00  0.00    +0.011 C 
ATOM     12  C   UNL     1       2.139  -3.217   2.467  0.00  0.00    +0.011 C 
ENDROOT
BRANCH  10  13
ATOM     13  N   UNL     1      -1.642  -3.683   2.236  0.00  0.00    +0.383 N 
ATOM     14  H   UNL     1      -2.195  -4.019   1.462  0.00  0.00    -0.085 HD
ATOM     15  H   UNL     1      -0.930  -4.362   2.461  0.00  0.00    -0.085 HD
BRANCH  13  16
ATOM     16  C   UNL     1      -2.508  -3.477   3.404  0.00  0.00    -0.069 C 
ATOM     17  C   UNL     1      -3.666  -2.550   3.026  0.00  0.00    -0.000 C 
ATOM     18  C   UNL     1      -4.598  -2.388   4.229  0.00  0.00    +0.082 C 
ATOM     19  N   UNL     1      -5.112  -3.703   4.631  0.00  0.00    -0.305 NA
ATOM     20  C   UNL     1      -4.022  -4.596   5.045  0.00  0.00    +0.082 C 
ATOM     21  C   UNL     1      -3.073  -4.824   3.866  0.00  0.00    -0.000 C 
ATOM     22  C   UNL     1      -6.117  -3.573   5.695  0.00  0.00    +0.104 C 
ENDBRANCH  13  16
ENDBRANCH  10  13
BRANCH   2  23
ATOM     23  O   UNL     1       0.787  -0.342  -1.766  0.00  0.00    -0.389 OA
ATOM     24  H   UNL     1       0.396  -0.217  -2.641  0.00  0.00    +0.210 HD
ENDBRANCH   2  23
BRANCH   5  25
ATOM     25  C   UNL     1       0.315  -4.030   0.508  0.00  0.00    +0.015 C 
BRANCH  25  26
ATOM     26  C   UNL     1       1.336  -4.159  -0.625  0.00  0.00    +0.096 C 
BRANCH  26  27
ATOM     27  C   UNL     1       1.789  -5.592  -0.732  0.00  0.00    +0.213 C 
ATOM     28  O   UNL     1       1.340  -6.428   0.024  0.00  0.00    -0.276 OA
ATOM     29  N   UNL     1       2.693  -5.945  -1.667  0.00  0.00    -0.314 N 
ATOM     30  H   UNL     1       3.052  -5.276  -2.271  0.00  0.00    +0.149 HD
BRANCH  29  31
ATOM     31  C   UNL     1       3.134  -7.338  -1.771  0.00  0.00    +0.119 C 
BRANCH  31  32
ATOM     32  C   UNL     1       4.154  -7.467  -2.904  0.00  0.00    +0.103 C 
BRANCH  32  33
ATOM     33  N   UNL     1       4.596  -8.864  -3.008  0.00  0.00    -0.297 NA
ATOM     34  C   UNL     1       5.355  -9.267  -1.815  0.00  0.00    +0.112 C 
ATOM     35  C   UNL     1       5.743 -10.743  -1.939  0.00  0.00    +0.175 C 
ATOM     36  O   UNL     1       6.488 -10.935  -3.145  0.00  0.00    -0.377 OA
ATOM     37  C   UNL     1       5.778 -10.553  -4.327  0.00  0.00    +0.175 C 
ATOM     38  C   UNL     1       5.390  -9.076  -4.227  0.00  0.00    +0.112 C 
ENDBRANCH  32  33
ENDBRANCH  31  32
ENDBRANCH  29  31
ENDBRANCH  26  27
ENDBRANCH  25  26
ENDBRANCH   5  25
TORSDOF 9
