REMARK  Name = ZINC39597934
REMARK  7 active torsions:
REMARK  status: ('A' for Active; 'I' for Inactive)
REMARK    1  A    between atoms: C_1  and  C_2
REMARK    2  A    between atoms: C_3  and  C_14
REMARK    3  A    between atoms: C_4  and  C_8
REMARK    4  A    between atoms: C_18  and  C_27
REMARK    5  A    between atoms: N_29  and  C_30
REMARK    6  A    between atoms: C_30  and  C_31
REMARK    7  A    between atoms: C_31  and  C_32
REMARK                            x       y       z     vdW  Elec       q    Type
REMARK                         _______ _______ _______ _____ _____    ______ ____
ROOT
ATOM      1  C   UNL     1      -1.843   0.233  -0.188  0.00  0.00    +0.248 C 
ATOM      2  O   UNL     1      -1.817   1.440  -0.339  0.00  0.00    -0.270 OA
ATOM      3  N   UNL     1      -3.024  -0.413  -0.116  0.00  0.00    -0.296 N 
ATOM      4  C   UNL     1      -3.257  -1.873  -0.020  0.00  0.00    +0.121 C 
ATOM      5  C   UNL     1      -4.434  -2.016   0.971  0.00  0.00    +0.100 C 
ATOM      6  C   UNL     1      -5.170  -0.668   0.903  0.00  0.00    -0.004 C 
ATOM      7  C   UNL     1      -4.384   0.179  -0.107  0.00  0.00    +0.115 C 
ATOM      8  C   UNL     1      -5.160   0.009   2.270  0.00  0.00    -0.010 C 
ATOM      9  C   UNL     1      -5.947   1.320   2.192  0.00  0.00    -0.082 C 
ATOM     10  N   UNL     1      -7.326   1.041   1.772  0.00  0.00    +0.379 N 
ATOM     11  C   UNL     1      -7.332   0.475   0.417  0.00  0.00    -0.082 C 
ATOM     12  C   UNL     1      -6.604  -0.872   0.421  0.00  0.00    -0.010 C 
ATOM     13  H   UNL     1      -7.744   0.383   2.412  0.00  0.00    -0.086 HD
ATOM     14  H   UNL     1      -7.858   1.898   1.779  0.00  0.00    -0.086 HD
ENDROOT
BRANCH   1  17
ATOM     15  C   UNL     1      -0.243  -0.077   2.365  0.00  0.00    +0.089 C 
ATOM     16  C   UNL     1       0.109  -0.662   1.021  0.00  0.00    +0.132 C 
ATOM     17  C   UNL     1      -0.630  -0.495  -0.089  0.00  0.00    +0.078 C 
ATOM     18  C   UNL     1       0.071  -1.229  -1.217  0.00  0.00    +0.161 C 
ATOM     19  N   UNL     1       1.434  -1.444  -0.666  0.00  0.00    -0.144 NA
ATOM     20  O   UNL     1       1.204  -1.409   0.788  0.00  0.00    -0.410 OA
ATOM     21  H   UNL     1       2.059  -0.703  -0.947  0.00  0.00    +0.168 HD
BRANCH  18  22
ATOM     22  C   UNL     1       0.120  -0.378  -2.459  0.00  0.00    -0.023 A 
ATOM     23  C   UNL     1       0.992   0.693  -2.529  0.00  0.00    +0.005 A 
ATOM     24  C   UNL     1       1.037   1.474  -3.669  0.00  0.00    +0.000 A 
ATOM     25  C   UNL     1       0.211   1.184  -4.739  0.00  0.00    +0.000 A 
ATOM     26  C   UNL     1      -0.659   0.113  -4.669  0.00  0.00    +0.000 A 
ATOM     27  C   UNL     1      -0.702  -0.671  -3.531  0.00  0.00    +0.005 A 
ENDBRANCH  18  22
ENDBRANCH   1  17
BRANCH   5  28
ATOM     28  C   UNL     1      -3.919  -2.266   2.365  0.00  0.00    +0.218 C 
ATOM     29  O   UNL     1      -3.272  -1.413   2.934  0.00  0.00    -0.275 OA
ATOM     30  N   UNL     1      -4.178  -3.438   2.979  0.00  0.00    -0.315 N 
ATOM     31  H   UNL     1      -4.631  -4.148   2.498  0.00  0.00    +0.149 HD
BRANCH  30  32
ATOM     32  C   UNL     1      -3.773  -3.640   4.372  0.00  0.00    +0.109 C 
BRANCH  32  33
ATOM     33  C   UNL     1      -4.181  -5.043   4.824  0.00  0.00    +0.056 C 
BRANCH  33  34
ATOM     34  C   UNL     1      -3.765  -5.251   6.257  0.00  0.00    -0.021 A 
ATOM     35  C   UNL     1      -4.520  -4.858   7.449  0.00  0.00    +0.003 A 
ATOM     36  C   UNL     1      -5.749  -4.228   7.656  0.00  0.00    +0.010 A 
ATOM     37  C   UNL     1      -6.188  -3.998   8.930  0.00  0.00    +0.001 A 
ATOM     38  C   UNL     1      -5.421  -4.386  10.020  0.00  0.00    +0.002 A 
ATOM     39  C   UNL     1      -4.206  -5.010   9.839  0.00  0.00    +0.026 A 
ATOM     40  C   UNL     1      -3.740  -5.254   8.552  0.00  0.00    +0.047 A 
ATOM     41  N   UNL     1      -2.599  -5.841   8.052  0.00  0.00    -0.360 N 
ATOM     42  C   UNL     1      -2.635  -5.835   6.684  0.00  0.00    +0.087 A 
ATOM     43  H   UNL     1      -1.880  -6.208   8.589  0.00  0.00    +0.165 HD
ENDBRANCH  33  34
ENDBRANCH  32  33
ENDBRANCH  30  32
ENDBRANCH   5  28
TORSDOF 6
