REMARK  Name = ZINC39675497
REMARK  11 active torsions:
REMARK  status: ('A' for Active; 'I' for Inactive)
REMARK    1  A    between atoms: C_1  and  C_2
REMARK    2  A    between atoms: C_5  and  C_8
REMARK    3  A    between atoms: C_8  and  C_9
REMARK    4  A    between atoms: C_13  and  C_22
REMARK    5  A    between atoms: N_24  and  C_25
REMARK    6  A    between atoms: C_25  and  C_27
REMARK    7  A    between atoms: C_25  and  C_28
REMARK    8  A    between atoms: C_28  and  C_29
REMARK    9  A    between atoms: C_29  and  C_30
REMARK   10  A    between atoms: C_33  and  O_36
REMARK   11  A    between atoms: O_36  and  C_37
REMARK                            x       y       z     vdW  Elec       q    Type
REMARK                         _______ _______ _______ _____ _____    ______ ____
ROOT
ATOM      1  C   UNL     1       1.149  -4.806   0.100  0.00  0.00    +0.220 C 
ATOM      2  O   UNL     1       1.981  -3.925   0.140  0.00  0.00    -0.275 OA
ATOM      3  N   UNL     1       1.536  -6.096   0.044  0.00  0.00    -0.300 N 
ATOM      4  C   UNL     1       0.675  -7.301  -0.017  0.00  0.00    +0.121 C 
ATOM      5  C   UNL     1       1.397  -8.247  -1.002  0.00  0.00    +0.100 C 
ATOM      6  C   UNL     1       2.869  -7.803  -0.964  0.00  0.00    -0.004 C 
ATOM      7  C   UNL     1       2.919  -6.630   0.025  0.00  0.00    +0.115 C 
ATOM      8  C   UNL     1       3.753  -8.946  -0.475  0.00  0.00    -0.010 C 
ATOM      9  C   UNL     1       5.218  -8.500  -0.501  0.00  0.00    -0.082 C 
ATOM     10  N   UNL     1       5.590  -8.118  -1.869  0.00  0.00    +0.379 N 
ATOM     11  C   UNL     1       4.799  -6.958  -2.297  0.00  0.00    -0.082 C 
ATOM     12  C   UNL     1       3.317  -7.339  -2.347  0.00  0.00    -0.010 C 
ATOM     13  H   UNL     1       6.571  -7.883  -1.895  0.00  0.00    -0.086 HD
ATOM     14  H   UNL     1       5.416  -8.892  -2.492  0.00  0.00    -0.086 HD
ENDROOT
BRANCH   5  15
ATOM     15  C   UNL     1       0.834  -8.088  -2.391  0.00  0.00    +0.218 C 
ATOM     16  O   UNL     1       0.396  -7.014  -2.748  0.00  0.00    -0.275 OA
ATOM     17  N   UNL     1       0.818  -9.137  -3.236  0.00  0.00    -0.312 N 
ATOM     18  H   UNL     1       1.168  -9.995  -2.950  0.00  0.00    +0.149 HD
BRANCH  17  19
ATOM     19  C   UNL     1       0.270  -8.982  -4.586  0.00  0.00    +0.070 C 
ATOM     20  C   UNL     1      -1.247  -9.178  -4.547  0.00  0.00    +0.028 C 
BRANCH  19  21
ATOM     21  C   UNL     1       0.895 -10.027  -5.513  0.00  0.00    +0.026 C 
BRANCH  21  22
ATOM     22  C   UNL     1       2.395  -9.755  -5.650  0.00  0.00    +0.037 C 
BRANCH  22  23
ATOM     23  C   UNL     1       3.010 -10.785  -6.563  0.00  0.00    -0.047 A 
ATOM     24  C   UNL     1       3.502 -11.966  -6.039  0.00  0.00    +0.007 A 
ATOM     25  C   UNL     1       4.067 -12.911  -6.873  0.00  0.00    +0.046 A 
ATOM     26  C   UNL     1       4.141 -12.674  -8.238  0.00  0.00    +0.120 A 
ATOM     27  C   UNL     1       3.647 -11.488  -8.761  0.00  0.00    +0.046 A 
ATOM     28  C   UNL     1       3.078 -10.548  -7.923  0.00  0.00    +0.007 A 
BRANCH  26  29
ATOM     29  O   UNL     1       4.697 -13.601  -9.061  0.00  0.00    -0.495 OA
ATOM     30  C   UNL     1       4.739 -13.290 -10.455  0.00  0.00    +0.277 C 
ENDBRANCH  26  29
ENDBRANCH  22  23
ENDBRANCH  21  22
ENDBRANCH  19  21
ENDBRANCH  17  19
ENDBRANCH   5  15
BRANCH   1  31
ATOM     31  C   UNL     1      -0.318  -4.459   0.110  0.00  0.00    +0.131 C 
BRANCH  31  36
ATOM     32  C   UNL     1      -0.940   1.280   0.358  0.00  0.00    +0.044 C 
ATOM     33  C   UNL     1      -0.778  -0.216   0.294  0.00  0.00    -0.050 A 
ATOM     34  C   UNL     1      -0.699  -0.851  -0.932  0.00  0.00    +0.003 A 
ATOM     35  C   UNL     1      -0.550  -2.224  -0.991  0.00  0.00    +0.004 A 
ATOM     36  C   UNL     1      -0.479  -2.962   0.175  0.00  0.00    -0.039 A 
ATOM     37  C   UNL     1      -0.557  -2.328   1.401  0.00  0.00    +0.004 A 
ATOM     38  C   UNL     1      -0.702  -0.954   1.460  0.00  0.00    +0.003 A 
ENDBRANCH  31  36
ENDBRANCH   1  31
TORSDOF 8
