REMARK  Name = ZINC55196405
REMARK  4 active torsions:
REMARK  status: ('A' for Active; 'I' for Inactive)
REMARK    1  A    between atoms: C_1  and  C_2
REMARK    2  A    between atoms: C_2  and  C_3
REMARK    3  A    between atoms: C_2  and  C_14
REMARK    4  A    between atoms: C_2  and  N_21
REMARK                            x       y       z     vdW  Elec       q    Type
REMARK                         _______ _______ _______ _____ _____    ______ ____
ROOT
ATOM      1  C   UNL     1       0.254   1.502  -0.084  0.00  0.00    -0.001 C 
ATOM      2  C   UNL     1       0.002  -0.004   0.002  0.00  0.00    -0.021 C 
ENDROOT
BRANCH   2   3
ATOM      3  C   UNL     1       0.737  -0.569   1.190  0.00  0.00    -0.051 A 
ATOM      4  C   UNL     1       2.104  -0.764   1.126  0.00  0.00    +0.006 A 
ATOM      5  C   UNL     1       2.785  -1.282   2.213  0.00  0.00    +0.049 A 
ATOM      6  C   UNL     1       2.092  -1.604   3.368  0.00  0.00    +0.162 A 
ATOM      7  C   UNL     1       0.719  -1.409   3.432  0.00  0.00    +0.162 A 
ATOM      8  C   UNL     1       0.041  -0.886   2.344  0.00  0.00    +0.052 A 
ATOM      9  O   UNL     1       0.045  -1.729   4.574  0.00  0.00    -0.488 OA
ATOM     10  C   UNL     1      -0.033  -3.122   4.884  0.00  0.00    +0.232 C 
ATOM     11  C   UNL     1       1.214  -3.581   5.624  0.00  0.00    +0.082 C 
ATOM     12  C   UNL     1       2.466  -3.478   4.767  0.00  0.00    +0.232 C 
ATOM     13  O   UNL     1       2.751  -2.115   4.448  0.00  0.00    -0.488 OA
ENDBRANCH   2   3
BRANCH   2  14
ATOM     14  C   UNL     1       0.496  -0.669  -1.257  0.00  0.00    -0.041 A 
ATOM     15  C   UNL     1       0.985   0.098  -2.298  0.00  0.00    +0.003 A 
ATOM     16  C   UNL     1       1.439  -0.512  -3.452  0.00  0.00    +0.000 A 
ATOM     17  C   UNL     1       1.404  -1.889  -3.566  0.00  0.00    +0.001 A 
ATOM     18  C   UNL     1       0.916  -2.657  -2.526  0.00  0.00    +0.015 A 
ATOM     19  C   UNL     1       0.466  -2.047  -1.368  0.00  0.00    +0.020 A 
ATOM     20 BR   UNL     1      -0.195  -3.098   0.058  0.00  0.00    -0.050 Br
ENDBRANCH   2  14
BRANCH   2  21
ATOM     21  N   UNL     1      -1.438  -0.252   0.154  0.00  0.00    +0.387 N 
ATOM     22  H   UNL     1      -1.930   0.127  -0.642  0.00  0.00    -0.088 HD
ATOM     23  H   UNL     1      -1.604  -1.245   0.210  0.00  0.00    -0.088 HD
ATOM     24  H   UNL     1      -1.769   0.194   0.996  0.00  0.00    -0.088 HD
ENDBRANCH   2  21
TORSDOF 3
