REMARK  Name = ZINC67124494
REMARK  11 active torsions:
REMARK  status: ('A' for Active; 'I' for Inactive)
REMARK    1  A    between atoms: C_1  and  C_2
REMARK    2  A    between atoms: C_2  and  O_3
REMARK    3  A    between atoms: O_3  and  C_4
REMARK    4  A    between atoms: C_4  and  C_5
REMARK    5  A    between atoms: C_5  and  C_6
REMARK    6  A    between atoms: C_6  and  N_7
REMARK    7  A    between atoms: N_10  and  N_11
REMARK    8  A    between atoms: N_11  and  S_12
REMARK    9  A    between atoms: S_12  and  C_15
REMARK   10  A    between atoms: C_18  and  S_22
REMARK   11  A    between atoms: S_22  and  N_25
REMARK                            x       y       z     vdW  Elec       q    Type
REMARK                         _______ _______ _______ _____ _____    ______ ____
ROOT
ATOM      1  S   UNL     1      -8.226  -4.961  -1.121  0.00  0.00    +0.076 S 
ATOM      2  O   UNL     1      -9.161  -3.954  -0.757  0.00  0.00    -0.152 OA
ATOM      3  O   UNL     1      -7.558  -4.962  -2.375  0.00  0.00    -0.152 OA
ENDROOT
BRANCH   1   4
ATOM      4  C   UNL     1      -9.072  -6.501  -0.999  0.00  0.00    +0.142 A 
ATOM      5  C   UNL     1     -10.405  -6.531  -0.635  0.00  0.00    +0.033 A 
ATOM      6  C   UNL     1     -11.069  -7.739  -0.539  0.00  0.00    +0.030 A 
ATOM      7  C   UNL     1     -10.402  -8.920  -0.808  0.00  0.00    +0.108 A 
ATOM      8  C   UNL     1      -9.069  -8.893  -1.173  0.00  0.00    +0.068 A 
ATOM      9  C   UNL     1      -8.404  -7.682  -1.274  0.00  0.00    +0.152 A 
ATOM     10  F   UNL     1      -7.102  -7.654  -1.635  0.00  0.00    -0.203 F 
BRANCH   7  11
ATOM     11  S   UNL     1     -11.249 -10.459  -0.685  0.00  0.00    +0.056 S 
ATOM     12  O   UNL     1     -10.258 -11.452  -0.456  0.00  0.00    -0.153 OA
ATOM     13  O   UNL     1     -12.340 -10.253   0.203  0.00  0.00    -0.153 OA
BRANCH  11  14
ATOM     14  N   UNL     1     -11.904 -10.778  -2.172  0.00  0.00    -0.204 NA
ATOM     15  H   UNL     1     -12.023 -11.696  -2.463  0.00  0.00    +0.144 HD
ATOM     16  H   UNL     1     -12.170 -10.047  -2.752  0.00  0.00    +0.144 HD
ENDBRANCH  11  14
ENDBRANCH   7  11
ENDBRANCH   1   4
BRANCH   1  17
ATOM     17  N   UNL     1      -7.048  -4.956   0.043  0.00  0.00    -0.107 NA
ATOM     18  H   UNL     1      -7.052  -4.276   0.735  0.00  0.00    +0.172 HD
BRANCH  17  22
ATOM     19  N   UNL     1      -4.415  -4.263   0.021  0.00  0.00    -0.298 N 
ATOM     20  C   UNL     1      -4.747  -5.569   0.018  0.00  0.00    +0.315 C 
ATOM     21  O   UNL     1      -3.877  -6.418   0.005  0.00  0.00    -0.251 OA
ATOM     22  N   UNL     1      -6.045  -5.934   0.028  0.00  0.00    -0.216 N 
ATOM     23  H   UNL     1      -5.109  -3.586   0.032  0.00  0.00    +0.150 HD
ATOM     24  H   UNL     1      -6.284  -6.874   0.025  0.00  0.00    +0.172 HD
BRANCH  19  25
ATOM     25  C   UNL     1      -3.005  -3.866   0.010  0.00  0.00    +0.108 C 
BRANCH  25  26
ATOM     26  C   UNL     1      -2.905  -2.339   0.017  0.00  0.00    +0.047 C 
BRANCH  26  27
ATOM     27  C   UNL     1      -1.432  -1.925   0.005  0.00  0.00    +0.161 C 
BRANCH  27  28
ATOM     28  O   UNL     1      -1.339  -0.499   0.012  0.00  0.00    -0.380 OA
BRANCH  28  30
ATOM     29  C   UNL     1      -0.019   1.526   0.010  0.00  0.00    +0.034 C 
ATOM     30  C   UNL     1       0.002  -0.004   0.002  0.00  0.00    +0.156 C 
ENDBRANCH  28  30
ENDBRANCH  27  28
ENDBRANCH  26  27
ENDBRANCH  25  26
ENDBRANCH  19  25
ENDBRANCH  17  22
ENDBRANCH   1  17
TORSDOF 10
