REMARK  Name = ZINC39674489
REMARK  7 active torsions:
REMARK  status: ('A' for Active; 'I' for Inactive)
REMARK    1  A    between atoms: C_1  and  C_2
REMARK    2  A    between atoms: C_4  and  C_9
REMARK    3  A    between atoms: C_5  and  C_8
REMARK    4  A    between atoms: C_9  and  C_11
REMARK    5  A    between atoms: C_9  and  N_12
REMARK    6  A    between atoms: C_13  and  C_15
REMARK    7  A    between atoms: C_26  and  C_28
REMARK                            x       y       z     vdW  Elec       q    Type
REMARK                         _______ _______ _______ _____ _____    ______ ____
ROOT
ATOM      1  C   UNL     1       0.305   3.075  -4.237  0.00  0.00    +0.100 C 
ATOM      2  C   UNL     1      -1.101   3.591  -3.859  0.00  0.00    +0.121 C 
ATOM      3  N   UNL     1      -1.470   4.511  -4.960  0.00  0.00    -0.300 N 
ATOM      4  C   UNL     1      -0.965   3.844  -6.183  0.00  0.00    +0.115 C 
ATOM      5  C   UNL     1       0.391   3.242  -5.763  0.00  0.00    -0.004 C 
ATOM      6  C   UNL     1       0.595   1.886  -6.432  0.00  0.00    -0.010 C 
ATOM      7  C   UNL     1       0.736   2.084  -7.944  0.00  0.00    -0.082 C 
ATOM      8  N   UNL     1       1.876   2.966  -8.220  0.00  0.00    +0.379 N 
ATOM      9  C   UNL     1       1.630   4.296  -7.652  0.00  0.00    -0.082 C 
ATOM     10  C   UNL     1       1.527   4.192  -6.128  0.00  0.00    -0.010 C 
ATOM     11  C   UNL     1      -2.118   5.690  -4.869  0.00  0.00    +0.224 C 
ATOM     12  O   UNL     1      -2.350   6.333  -5.871  0.00  0.00    -0.275 OA
ATOM     13  H   UNL     1       2.710   2.574  -7.808  0.00  0.00    -0.086 HD
ATOM     14  H   UNL     1       2.004   3.046  -9.218  0.00  0.00    -0.086 HD
ENDROOT
BRANCH  11  15
ATOM     15  C   UNL     1      -2.556   6.207  -3.523  0.00  0.00    +0.116 C 
ATOM     16  C   UNL     1      -3.517   5.184  -2.879  0.00  0.00    +0.092 C 
ATOM     17  S   UNL     1      -5.128   5.898  -3.409  0.00  0.00    -0.124 S 
ATOM     18  C   UNL     1      -4.601   7.576  -3.683  0.00  0.00    +0.012 A 
ATOM     19  C   UNL     1      -3.211   7.554  -3.705  0.00  0.00    -0.021 A 
ATOM     20  C   UNL     1      -2.563   8.777  -3.893  0.00  0.00    +0.005 A 
ATOM     21  C   UNL     1      -3.276   9.943  -4.059  0.00  0.00    +0.000 A 
ATOM     22  C   UNL     1      -4.658   9.937  -4.044  0.00  0.00    +0.001 A 
ATOM     23  C   UNL     1      -5.318   8.745  -3.854  0.00  0.00    +0.015 A 
ENDBRANCH  11  15
BRANCH   1  25
ATOM     24  N   UNL     1       1.667   1.121  -3.567  0.00  0.00    -0.309 N 
ATOM     25  C   UNL     1       0.451   1.623  -3.859  0.00  0.00    +0.219 C 
ATOM     26  O   UNL     1      -0.527   0.907  -3.817  0.00  0.00    -0.275 OA
ATOM     27  H   UNL     1       2.449   1.694  -3.601  0.00  0.00    +0.149 HD
BRANCH  24  28
ATOM     28  C   UNL     1       1.808  -0.290  -3.200  0.00  0.00    +0.100 C 
ATOM     29  C   UNL     1       1.614  -0.446  -1.690  0.00  0.00    +0.033 C 
BRANCH  28  32
ATOM     30  C   UNL     1       4.682   1.236  -3.625  0.00  0.00    +0.039 C 
ATOM     31  C   UNL     1       4.526  -0.210  -3.152  0.00  0.00    +0.154 C 
ATOM     32  C   UNL     1       3.183  -0.774  -3.582  0.00  0.00    -0.001 C 
ATOM     33  C   UNL     1       3.503  -1.798  -4.377  0.00  0.00    +0.063 C 
ATOM     34  N   UNL     1       4.845  -1.923  -4.480  0.00  0.00    -0.159 NA
ATOM     35  N   UNL     1       5.492  -1.089  -3.834  0.00  0.00    -0.180 NA
ATOM     36  C   UNL     1       2.505  -2.692  -5.064  0.00  0.00    +0.067 C 
ENDBRANCH  28  32
ENDBRANCH  24  28
ENDBRANCH   1  25
TORSDOF 4
