REMARK  Name = ZINC12714651
REMARK  15 active torsions:
REMARK  status: ('A' for Active; 'I' for Inactive)
REMARK    1  A    between atoms: C_1  and  C_2
REMARK    2  A    between atoms: N_7  and  S_9
REMARK    3  A    between atoms: S_9  and  C_12
REMARK    4  A    between atoms: C_15  and  N_18
REMARK    5  A    between atoms: N_18  and  C_19
REMARK    6  A    between atoms: C_19  and  C_21
REMARK    7  A    between atoms: C_19  and  C_31
REMARK    8  A    between atoms: C_24  and  O_29
REMARK    9  A    between atoms: C_25  and  O_27
REMARK   10  A    between atoms: O_27  and  C_28
REMARK   11  A    between atoms: O_29  and  C_30
REMARK   12  A    between atoms: N_33  and  C_34
REMARK   13  A    between atoms: C_34  and  C_35
REMARK   14  A    between atoms: C_34  and  C_36
REMARK   15  A    between atoms: C_34  and  C_37
REMARK                            x       y       z     vdW  Elec       q    Type
REMARK                         _______ _______ _______ _____ _____    ______ ____
ROOT
ATOM      1  C   UNL     1      -6.862  -2.472  -0.080  0.00  0.00    +0.188 C 
ENDROOT
BRANCH   1   2
ATOM      2  C   UNL     1      -8.219  -3.071  -0.348  0.00  0.00    -0.015 A 
ATOM      3  C   UNL     1      -9.314  -2.246  -0.524  0.00  0.00    +0.010 A 
ATOM      4  C   UNL     1     -10.561  -2.791  -0.770  0.00  0.00    +0.050 A 
ATOM      5  C   UNL     1     -10.714  -4.166  -0.841  0.00  0.00    +0.162 A 
ATOM      6  C   UNL     1      -9.612  -4.996  -0.663  0.00  0.00    +0.162 A 
ATOM      7  C   UNL     1      -8.364  -4.444  -0.422  0.00  0.00    +0.055 A 
BRANCH   6   8
ATOM      8  O   UNL     1      -9.757  -6.347  -0.732  0.00  0.00    -0.491 OA
ATOM      9  C   UNL     1      -8.582  -7.136  -0.539  0.00  0.00    +0.277 C 
ENDBRANCH   6   8
BRANCH   5  10
ATOM     10  O   UNL     1     -11.940  -4.703  -1.083  0.00  0.00    -0.491 OA
ATOM     11  C   UNL     1     -13.026  -3.791  -1.255  0.00  0.00    +0.277 C 
ENDBRANCH   5  10
ENDBRANCH   1   2
BRANCH   1  12
ATOM     12  C   UNL     1      -6.760  -2.088   1.373  0.00  0.00    +0.238 C 
ATOM     13  O   UNL     1      -6.557  -0.933   1.683  0.00  0.00    -0.273 OA
ATOM     14  N   UNL     1      -6.896  -3.028   2.330  0.00  0.00    -0.309 N 
ATOM     15  H   UNL     1      -7.058  -3.952   2.082  0.00  0.00    +0.149 HD
BRANCH  14  16
ATOM     16  C   UNL     1      -6.797  -2.655   3.743  0.00  0.00    +0.026 C 
ATOM     17  C   UNL     1      -7.882  -1.629   4.077  0.00  0.00    +0.031 C 
ATOM     18  C   UNL     1      -6.986  -3.899   4.614  0.00  0.00    +0.031 C 
ATOM     19  C   UNL     1      -5.419  -2.047   4.015  0.00  0.00    +0.031 C 
ENDBRANCH  14  16
ENDBRANCH   1  12
BRANCH   1  20
ATOM     20  N   UNL     1      -6.681  -1.281  -0.914  0.00  0.00    -0.329 N 
ATOM     21  H   UNL     1      -7.455  -0.787  -1.229  0.00  0.00    +0.147 HD
BRANCH  20  25
ATOM     22  C   UNL     1      -2.847  -0.013  -1.928  0.00  0.00    +0.106 A 
ATOM     23  C   UNL     1      -3.016  -1.141  -1.146  0.00  0.00    +0.030 A 
ATOM     24  C   UNL     1      -4.286  -1.561  -0.803  0.00  0.00    +0.025 A 
ATOM     25  C   UNL     1      -5.395  -0.856  -1.254  0.00  0.00    +0.028 A 
ATOM     26  C   UNL     1      -5.222   0.274  -2.045  0.00  0.00    +0.025 A 
ATOM     27  C   UNL     1      -3.949   0.692  -2.379  0.00  0.00    +0.030 A 
BRANCH  22  28
ATOM     28  S   UNL     1      -1.225   0.524  -2.357  0.00  0.00    +0.061 S 
ATOM     29  O   UNL     1      -1.351   1.284  -3.552  0.00  0.00    -0.153 OA
ATOM     30  O   UNL     1      -0.382  -0.616  -2.266  0.00  0.00    -0.153 OA
BRANCH  28  36
ATOM     31  C   UNL     1      -1.879   5.010  -0.075  0.00  0.00    +0.009 C 
ATOM     32  C   UNL     1      -1.712   3.490  -0.028  0.00  0.00    +0.002 C 
ATOM     33  C   UNL     1      -0.878   3.105   1.196  0.00  0.00    +0.006 C 
ATOM     34  C   UNL     1      -0.736   1.583   1.264  0.00  0.00    +0.017 C 
ATOM     35  C   UNL     1      -0.013   1.086   0.008  0.00  0.00    +0.109 C 
ATOM     36  N   UNL     1      -0.729   1.575  -1.178  0.00  0.00    -0.176 NA
ATOM     37  C   UNL     1      -0.997   3.015  -1.297  0.00  0.00    +0.112 C 
ENDBRANCH  28  36
ENDBRANCH  22  28
ENDBRANCH  20  25
ENDBRANCH   1  20
TORSDOF 9
