REMARK  Name = ZINC00892341
REMARK  8 active torsions:
REMARK  status: ('A' for Active; 'I' for Inactive)
REMARK    1  A    between atoms: C_1  and  C_2
REMARK    2  A    between atoms: C_2  and  N_3
REMARK    3  A    between atoms: N_12  and  C_13
REMARK    4  A    between atoms: C_13  and  C_14
REMARK    5  A    between atoms: C_19  and  N_20
REMARK    6  A    between atoms: N_20  and  S_21
REMARK    7  A    between atoms: S_21  and  C_24
REMARK    8  A    between atoms: C_27  and  C_30
REMARK                            x       y       z     vdW  Elec       q    Type
REMARK                         _______ _______ _______ _____ _____    ______ ____
ROOT
ATOM      1  C   UNL     1      -1.867  -0.625  -4.508  0.00  0.00    -0.008 A 
ATOM      2  C   UNL     1      -2.070   0.635  -5.036  0.00  0.00    +0.007 A 
ATOM      3  C   UNL     1      -1.447   1.000  -6.216  0.00  0.00    +0.000 A 
ATOM      4  C   UNL     1      -0.620   0.106  -6.870  0.00  0.00    +0.002 A 
ATOM      5  C   UNL     1      -0.413  -1.155  -6.347  0.00  0.00    +0.025 A 
ATOM      6  C   UNL     1      -1.032  -1.523  -5.159  0.00  0.00    +0.053 A 
ENDROOT
BRANCH   6   7
ATOM      7  N   UNL     1      -0.821  -2.796  -4.625  0.00  0.00    -0.216 N 
ATOM      8  H   UNL     1      -1.542  -3.256  -4.166  0.00  0.00    +0.174 HD
BRANCH   7   9
ATOM      9  S   UNL     1       0.660  -3.521  -4.773  0.00  0.00    +0.072 S 
ATOM     10  O   UNL     1       0.600  -4.726  -4.023  0.00  0.00    -0.150 OA
ATOM     11  O   UNL     1       0.986  -3.500  -6.156  0.00  0.00    -0.150 OA
BRANCH   9  12
ATOM     12  C   UNL     1       1.832  -2.483  -3.964  0.00  0.00    +0.109 A 
ATOM     13  C   UNL     1       2.473  -1.483  -4.671  0.00  0.00    +0.029 A 
ATOM     14  C   UNL     1       3.392  -0.668  -4.037  0.00  0.00    +0.005 A 
ATOM     15  C   UNL     1       3.670  -0.854  -2.695  0.00  0.00    -0.050 A 
ATOM     16  C   UNL     1       3.028  -1.853  -1.988  0.00  0.00    +0.005 A 
ATOM     17  C   UNL     1       2.106  -2.665  -2.622  0.00  0.00    +0.029 A 
ATOM     18  C   UNL     1       4.673   0.034  -2.004  0.00  0.00    +0.044 C 
ENDBRANCH   9  12
ENDBRANCH   7   9
ENDBRANCH   6   7
BRANCH   1  19
ATOM     19  C   UNL     1      -2.546  -1.021  -3.222  0.00  0.00    +0.141 C 
BRANCH  19  29
ATOM     20  N   UNL     1      -1.207  -1.121   0.281  0.00  0.00    -0.314 N 
ATOM     21  C   UNL     1      -1.977  -1.509   1.366  0.00  0.00    +0.068 A 
ATOM     22  C   UNL     1      -1.732  -1.625   2.726  0.00  0.00    +0.028 A 
ATOM     23  C   UNL     1      -2.737  -2.052   3.570  0.00  0.00    +0.002 A 
ATOM     24  C   UNL     1      -3.990  -2.367   3.067  0.00  0.00    +0.002 A 
ATOM     25  C   UNL     1      -4.250  -2.258   1.720  0.00  0.00    +0.028 A 
ATOM     26  C   UNL     1      -3.244  -1.826   0.852  0.00  0.00    +0.065 A 
ATOM     27  N   UNL     1      -3.194  -1.623  -0.491  0.00  0.00    -0.327 N 
ATOM     28  C   UNL     1      -2.000  -1.203  -0.827  0.00  0.00    +0.174 A 
ATOM     29  N   UNL     1      -1.601  -0.893  -2.111  0.00  0.00    -0.312 N 
ATOM     30  H   UNL     1      -0.695  -0.589  -2.277  0.00  0.00    +0.149 HD
ATOM     31  H   UNL     1      -3.930  -1.763  -1.106  0.00  0.00    +0.169 HD
BRANCH  20  33
ATOM     32  C   UNL     1       0.262   0.819   0.529  0.00  0.00    +0.027 C 
ATOM     33  C   UNL     1       0.194  -0.695   0.318  0.00  0.00    +0.122 C 
ENDBRANCH  20  33
ENDBRANCH  19  29
ENDBRANCH   1  19
TORSDOF 6
