REMARK  Name = ZINC62915026
REMARK  7 active torsions:
REMARK  status: ('A' for Active; 'I' for Inactive)
REMARK    1  A    between atoms: C_1  and  C_2
REMARK    2  A    between atoms: C_2  and  C_3
REMARK    3  A    between atoms: C_3  and  C_4
REMARK    4  A    between atoms: C_4  and  C_9
REMARK    5  A    between atoms: N_17  and  C_18
REMARK    6  A    between atoms: C_18  and  C_19
REMARK    7  A    between atoms: C_19  and  C_20
REMARK                            x       y       z     vdW  Elec       q    Type
REMARK                         _______ _______ _______ _____ _____    ______ ____
ROOT
ATOM      1  C   UNL     1      -0.852  -2.594  -0.931  0.00  0.00    +0.115 A 
ATOM      2  N   UNL     1      -1.502  -3.296  -1.813  0.00  0.00    -0.232 NA
ATOM      3  C   UNL     1      -2.734  -3.606  -1.333  0.00  0.00    +0.090 A 
ATOM      4  C   UNL     1      -3.816  -4.323  -1.849  0.00  0.00    +0.045 A 
ATOM      5  C   UNL     1      -4.961  -4.467  -1.098  0.00  0.00    +0.020 A 
ATOM      6  C   UNL     1      -5.049  -3.904   0.169  0.00  0.00    +0.017 A 
ATOM      7  C   UNL     1      -3.990  -3.194   0.692  0.00  0.00    +0.029 A 
ATOM      8  C   UNL     1      -2.828  -3.039  -0.051  0.00  0.00    +0.069 A 
ATOM      9  N   UNL     1      -1.619  -2.410   0.177  0.00  0.00    -0.327 N 
ATOM     10 BR   UNL     1      -6.426  -5.438  -1.797  0.00  0.00    -0.050 Br
ENDROOT
BRANCH   1  11
ATOM     11  C   UNL     1       0.548  -2.067  -1.109  0.00  0.00    +0.012 C 
ATOM     12  C   UNL     1       1.024  -2.281  -2.561  0.00  0.00    -0.006 C 
ATOM     13  C   UNL     1       1.299  -0.864  -3.107  0.00  0.00    -0.082 C 
ATOM     14  N   UNL     1       1.559  -0.041  -1.898  0.00  0.00    +0.380 N 
ATOM     15  C   UNL     1       0.576  -0.537  -0.900  0.00  0.00    -0.068 C 
ATOM     16  H   UNL     1       2.501  -0.187  -1.567  0.00  0.00    -0.086 HD
ATOM     17  H   UNL     1       1.399   0.936  -2.095  0.00  0.00    -0.086 HD
BRANCH  11  18
ATOM     18  C   UNL     1       1.502  -2.754  -0.130  0.00  0.00    +0.012 C 
BRANCH  18  20
ATOM     19  C   UNL     1       2.377  -4.962   0.647  0.00  0.00    +0.004 C 
ATOM     20  C   UNL     1       1.522  -4.258  -0.409  0.00  0.00    -0.002 C 
ENDBRANCH  18  20
ENDBRANCH  11  18
ENDBRANCH   1  11
BRANCH   9  21
ATOM     21  C   UNL     1      -1.236  -1.678   1.387  0.00  0.00    +0.123 C 
BRANCH  21  22
ATOM     22  C   UNL     1      -1.759  -0.243   1.302  0.00  0.00    +0.018 C 
ATOM     23  C   UNL     1      -1.252   0.557   2.503  0.00  0.00    +0.005 C 
ENDBRANCH  21  22
ENDBRANCH   9  21
TORSDOF 5
