REMARK  Name = ZINC03418976
REMARK  11 active torsions:
REMARK  status: ('A' for Active; 'I' for Inactive)
REMARK    1  A    between atoms: C_1  and  C_2
REMARK    2  A    between atoms: C_2  and  N_59
REMARK    3  A    between atoms: C_3  and  C_4
REMARK    4  A    between atoms: C_3  and  N_59
REMARK    5  A    between atoms: C_5  and  C_7
REMARK    6  A    between atoms: C_5  and  C_27
REMARK    7  A    between atoms: C_5  and  N_59
REMARK    8  A    between atoms: C_7  and  N_8
REMARK    9  A    between atoms: C_9  and  C_11
REMARK   10  A    between atoms: C_14  and  C_26
REMARK   11  A    between atoms: N_16  and  C_19
REMARK                            x       y       z     vdW  Elec       q    Type
REMARK                         _______ _______ _______ _____ _____    ______ ____
ROOT
ATOM      1  N   UNL     1       6.524   4.258  -2.739  0.00  0.00    -0.312 N 
ATOM      2  C   UNL     1       6.400   3.223  -1.885  0.00  0.00    +0.251 C 
ATOM      3  O   UNL     1       7.376   2.562  -1.583  0.00  0.00    -0.270 OA
ATOM      4  H   UNL     1       5.746   4.785  -2.979  0.00  0.00    +0.149 HD
ENDROOT
BRANCH   2   5
ATOM      5  C   UNL     1       5.088   2.895  -1.318  0.00  0.00    +0.076 A 
ATOM      6  C   UNL     1       4.762   1.898  -0.447  0.00  0.00    +0.032 A 
ATOM      7  C   UNL     1       3.432   1.754  -0.022  0.00  0.00    +0.031 A 
ATOM      8  C   UNL     1       2.652   0.909   0.834  0.00  0.00    +0.069 A 
ATOM      9  N   UNL     1       1.415   1.303   0.807  0.00  0.00    -0.170 NA
ATOM     10  N   UNL     1       1.295   2.408  -0.046  0.00  0.00    -0.225 N 
ATOM     11  C   UNL     1       2.516   2.675  -0.552  0.00  0.00    +0.113 A 
ATOM     12  S   UNL     1       3.520   3.700  -1.595  0.00  0.00    -0.064 S 
ATOM     13  C   UNL     1       3.183  -0.251   1.635  0.00  0.00    +0.068 C 
BRANCH  10  14
ATOM     14  C   UNL     1       0.114   3.107  -0.329  0.00  0.00    +0.067 A 
ATOM     15  C   UNL     1      -1.095   2.428  -0.402  0.00  0.00    +0.029 A 
ATOM     16  C   UNL     1      -2.257   3.119  -0.686  0.00  0.00    +0.022 A 
ATOM     17  C   UNL     1      -2.218   4.487  -0.888  0.00  0.00    +0.041 A 
ATOM     18  C   UNL     1      -1.014   5.166  -0.816  0.00  0.00    +0.022 A 
ATOM     19  C   UNL     1       0.151   4.479  -0.537  0.00  0.00    +0.029 A 
ATOM     20 CL   UNL     1      -3.681   5.354  -1.240  0.00  0.00    -0.084 Cl
ENDBRANCH  10  14
ENDBRANCH   2   5
BRANCH   1  21
ATOM     21  C   UNL     1       7.835   4.586  -3.306  0.00  0.00    +0.094 C 
BRANCH  21  22
ATOM     22  C   UNL     1       7.676   5.692  -4.351  0.00  0.00    -0.019 C 
BRANCH  22  23
ATOM     23  C   UNL     1       9.027   6.048  -4.915  0.00  0.00    -0.041 A 
ATOM     24  C   UNL     1       9.382   5.623  -6.182  0.00  0.00    +0.003 A 
ATOM     25  C   UNL     1      10.620   5.953  -6.701  0.00  0.00    +0.000 A 
ATOM     26  C   UNL     1      11.508   6.700  -5.950  0.00  0.00    +0.001 A 
ATOM     27  C   UNL     1      11.156   7.122  -4.681  0.00  0.00    +0.020 A 
ATOM     28  C   UNL     1       9.916   6.795  -4.163  0.00  0.00    +0.043 A 
ATOM     29 CL   UNL     1       9.474   7.324  -2.570  0.00  0.00    -0.083 Cl
ENDBRANCH  22  23
BRANCH  22  30
ATOM     30  N   UNL     1       6.813   5.230  -5.459  0.00  0.00    +0.385 N 
ATOM     31  H   UNL     1       7.192   5.580  -6.346  0.00  0.00    -0.081 HD
BRANCH  30  33
ATOM     32  C   UNL     1       8.079   3.259  -6.156  0.00  0.00    -0.017 C 
ATOM     33  C   UNL     1       6.789   3.752  -5.498  0.00  0.00    -0.081 C 
ENDBRANCH  30  33
BRANCH  30  34
ATOM     34  C   UNL     1       5.442   5.753  -5.283  0.00  0.00    -0.081 C 
ATOM     35  C   UNL     1       5.426   7.231  -5.677  0.00  0.00    -0.017 C 
ENDBRANCH  30  34
ENDBRANCH  22  30
ENDBRANCH  21  22
ENDBRANCH   1  21
TORSDOF 8
