REMARK  Name = ZINC43291171
REMARK  8 active torsions:
REMARK  status: ('A' for Active; 'I' for Inactive)
REMARK    1  A    between atoms: C_1  and  C_2
REMARK    2  A    between atoms: C_2  and  C_3
REMARK    3  A    between atoms: C_3  and  C_5
REMARK    4  A    between atoms: C_3  and  N_22
REMARK    5  A    between atoms: C_5  and  C_7
REMARK    6  A    between atoms: C_5  and  S_13
REMARK    7  A    between atoms: S_13  and  C_14
REMARK    8  A    between atoms: C_18  and  N_20
REMARK                            x       y       z     vdW  Elec       q    Type
REMARK                         _______ _______ _______ _____ _____    ______ ____
ROOT
ATOM      1  C   UNL     1       1.031  -2.090   1.410  0.00  0.00    +0.076 C 
ENDROOT
BRANCH   1   2
ATOM      2  C   UNL     1       1.830  -2.669   2.549  0.00  0.00    +0.003 A 
ATOM      3  C   UNL     1       1.425  -3.498   3.541  0.00  0.00    +0.027 A 
ATOM      4  C   UNL     1       2.343  -3.906   4.491  0.00  0.00    +0.025 A 
ATOM      5  C   UNL     1       3.622  -3.465   4.401  0.00  0.00    +0.060 A 
ATOM      6  S   UNL     1       3.559  -2.446   2.936  0.00  0.00    -0.099 S 
ATOM      7 BR   UNL     1       1.824  -5.062   5.894  0.00  0.00    -0.050 Br
ENDBRANCH   1   2
BRANCH   1   8
ATOM      8  C   UNL     1       1.062  -0.562   1.489  0.00  0.00    -0.057 C 
BRANCH   8   9
ATOM      9  N   UNL     1       0.512  -0.127   2.779  0.00  0.00    +0.381 N 
ATOM     10  H   UNL     1      -0.440  -0.449   2.865  0.00  0.00    -0.090 HD
ATOM     11  H   UNL     1       1.066  -0.514   3.529  0.00  0.00    -0.090 HD
ATOM     12  H   UNL     1       0.533   0.880   2.831  0.00  0.00    -0.090 HD
ENDBRANCH   8   9
BRANCH   8  14
ATOM     13  C   UNL     1       0.362   1.548   0.350  0.00  0.00    +0.002 C 
ATOM     14  C   UNL     1       0.223   0.025   0.352  0.00  0.00    -0.018 C 
ENDBRANCH   8  14
ENDBRANCH   1   8
BRANCH   1  15
ATOM     15  S   UNL     1       1.747  -2.629  -0.167  0.00  0.00    -0.079 S 
BRANCH  15  16
ATOM     16  C   UNL     1       1.442  -4.364  -0.203  0.00  0.00    +0.192 A 
ATOM     17  N   UNL     1       0.714  -4.912   0.760  0.00  0.00    -0.207 NA
ATOM     18  C   UNL     1       0.463  -6.219   0.765  0.00  0.00    +0.122 A 
ATOM     19  C   UNL     1       0.977  -7.011  -0.258  0.00  0.00    +0.086 A 
ATOM     20  C   UNL     1       1.737  -6.401  -1.251  0.00  0.00    +0.122 A 
ATOM     21  N   UNL     1       1.942  -5.087  -1.194  0.00  0.00    -0.207 NA
ATOM     22  N   UNL     1      -0.299  -6.783   1.776  0.00  0.00    -0.343 N 
ATOM     23  H   UNL     1      -0.653  -6.225   2.486  0.00  0.00    +0.144 HD
ATOM     24  H   UNL     1      -0.478  -7.737   1.773  0.00  0.00    +0.144 HD
BRANCH  20  25
ATOM     25  N   UNL     1       2.268  -7.151  -2.289  0.00  0.00    -0.343 N 
ATOM     26  H   UNL     1       2.111  -8.107  -2.326  0.00  0.00    +0.144 HD
ATOM     27  H   UNL     1       2.797  -6.719  -2.978  0.00  0.00    +0.144 HD
ENDBRANCH  20  25
ENDBRANCH  15  16
ENDBRANCH   1  15
TORSDOF 7
