REMARK  Name = ZINC19287757
REMARK  7 active torsions:
REMARK  status: ('A' for Active; 'I' for Inactive)
REMARK    1  A    between atoms: C_1  and  C_2
REMARK    2  A    between atoms: C_2  and  N_3
REMARK    3  A    between atoms: N_3  and  N_4
REMARK    4  A    between atoms: C_5  and  C_7
REMARK    5  A    between atoms: C_14  and  C_15
REMARK    6  A    between atoms: N_17  and  C_18
REMARK    7  A    between atoms: C_21  and  N_24
REMARK                            x       y       z     vdW  Elec       q    Type
REMARK                         _______ _______ _______ _____ _____    ______ ____
ROOT
ATOM      1  C   UNL     1       0.011   1.514   0.102  0.00  0.00    +0.062 C 
ATOM      2  C   UNL     1      -0.738   1.656  -1.198  0.00  0.00    +0.024 C 
ATOM      3  C   UNL     1      -2.087   1.700  -1.198  0.00  0.00    +0.087 C 
ENDROOT
BRANCH   3   4
ATOM      4  C   UNL     1      -2.803   1.437  -0.007  0.00  0.00    +0.243 C 
ATOM      5  O   UNL     1      -2.202   1.192   1.024  0.00  0.00    -0.270 OA
ATOM      6  N   UNL     1      -4.150   1.456  -0.013  0.00  0.00    -0.282 N 
ATOM      7  H   UNL     1      -4.628   1.713  -0.817  0.00  0.00    +0.155 HD
BRANCH   6   8
ATOM      8  C   UNL     1      -4.860   1.106   1.140  0.00  0.00    +0.034 A 
ATOM      9  C   UNL     1      -4.363   1.443   2.392  0.00  0.00    +0.025 A 
ATOM     10  C   UNL     1      -5.066   1.096   3.529  0.00  0.00    +0.034 A 
ATOM     11  C   UNL     1      -6.263   0.413   3.422  0.00  0.00    +0.126 A 
ATOM     12  C   UNL     1      -6.761   0.075   2.176  0.00  0.00    +0.034 A 
ATOM     13  C   UNL     1      -6.066   0.425   1.035  0.00  0.00    +0.025 A 
BRANCH  11  14
ATOM     14  N   UNL     1      -7.014   0.042   4.642  0.00  0.00    +0.056 N 
ATOM     15  O   UNL     1      -6.580   0.336   5.732  0.00  0.00    -0.126 OA
ATOM     16  O   UNL     1      -8.061  -0.555   4.550  0.00  0.00    -0.126 OA
ENDBRANCH  11  14
ENDBRANCH   6   8
ENDBRANCH   3   4
BRANCH   2  17
ATOM     17  N   UNL     1      -0.052   1.739  -2.377  0.00  0.00    -0.268 N 
ATOM     18  H   UNL     1       0.918   1.707  -2.377  0.00  0.00    +0.170 HD
BRANCH  17  19
ATOM     19  N   UNL     1      -0.748   1.871  -3.585  0.00  0.00    -0.233 N 
ATOM     20  C   UNL     1      -0.071   1.953  -4.748  0.00  0.00    +0.261 C 
ATOM     21  O   UNL     1       1.144   1.913  -4.748  0.00  0.00    -0.269 OA
ATOM     22  H   UNL     1      -1.718   1.902  -3.585  0.00  0.00    +0.173 HD
BRANCH  20  23
ATOM     23  C   UNL     1      -0.806   2.091  -6.023  0.00  0.00    +0.051 A 
ATOM     24  C   UNL     1      -2.201   2.143  -6.026  0.00  0.00    +0.014 A 
ATOM     25  C   UNL     1      -2.881   2.272  -7.219  0.00  0.00    +0.001 A 
ATOM     26  C   UNL     1      -2.183   2.350  -8.412  0.00  0.00    +0.001 A 
ATOM     27  C   UNL     1      -0.801   2.299  -8.416  0.00  0.00    +0.015 A 
ATOM     28  C   UNL     1      -0.108   2.177  -7.229  0.00  0.00    +0.026 A 
ATOM     29  I   UNL     1       1.986   2.109  -7.237  0.00  0.00    -0.043 I 
ENDBRANCH  20  23
ENDBRANCH  17  19
ENDBRANCH   2  17
TORSDOF 6
