REMARK  Name = ZINC63491696
REMARK  7 active torsions:
REMARK  status: ('A' for Active; 'I' for Inactive)
REMARK    1  A    between atoms: C_1  and  C_2
REMARK    2  A    between atoms: C_2  and  O_3
REMARK    3  A    between atoms: O_3  and  C_4
REMARK    4  A    between atoms: C_4  and  C_6
REMARK    5  A    between atoms: C_6  and  C_7
REMARK    6  A    between atoms: C_7  and  N_8
REMARK    7  A    between atoms: C_24  and  C_26
REMARK                            x       y       z     vdW  Elec       q    Type
REMARK                         _______ _______ _______ _____ _____    ______ ____
ROOT
ATOM      1  N   UNL     1       1.372  -4.484  -4.121  0.00  0.00    -0.299 N 
ATOM      2  C   UNL     1       1.736  -5.781  -4.117  0.00  0.00    +0.303 C 
ATOM      3  O   UNL     1       1.399  -6.505  -3.200  0.00  0.00    -0.253 OA
ATOM      4  N   UNL     1       2.474  -6.277  -5.130  0.00  0.00    -0.276 N 
ATOM      5  C   UNL     1       2.983  -5.373  -6.167  0.00  0.00    +0.114 C 
ATOM      6  C   UNL     1       2.477  -5.838  -7.545  0.00  0.00    +0.052 C 
ATOM      7  C   UNL     1       2.682  -7.331  -7.600  0.00  0.00    -0.035 C 
ATOM      8  C   UNL     1       3.282  -8.102  -8.499  0.00  0.00    -0.001 A 
ATOM      9  C   UNL     1       3.867  -7.800  -9.815  0.00  0.00    +0.010 A 
ATOM     10  C   UNL     1       4.429  -8.847 -10.476  0.00  0.00    +0.001 A 
ATOM     11  C   UNL     1       4.468 -10.148  -9.965  0.00  0.00    +0.002 A 
ATOM     12  C   UNL     1       3.948 -10.517  -8.767  0.00  0.00    +0.026 A 
ATOM     13  C   UNL     1       3.321  -9.505  -7.983  0.00  0.00    +0.043 A 
ATOM     14  N   UNL     1       2.729  -9.582  -6.828  0.00  0.00    -0.375 N 
ATOM     15  C   UNL     1       2.190  -8.262  -6.498  0.00  0.00    +0.131 C 
ATOM     16  C   UNL     1       2.766  -7.718  -5.181  0.00  0.00    +0.137 C 
ATOM     17  H   UNL     1       1.701  -3.890  -4.813  0.00  0.00    +0.150 HD
ATOM     18  H   UNL     1       2.657 -10.378  -6.279  0.00  0.00    +0.160 HD
ENDROOT
BRANCH  16  19
ATOM     19  C   UNL     1       2.116  -8.412  -4.011  0.00  0.00    +0.010 A 
ATOM     20  C   UNL     1       0.886  -9.024  -4.167  0.00  0.00    +0.008 A 
ATOM     21  C   UNL     1       0.289  -9.660  -3.095  0.00  0.00    +0.000 A 
ATOM     22  C   UNL     1       0.921  -9.686  -1.866  0.00  0.00    +0.003 A 
ATOM     23  C   UNL     1       2.151  -9.075  -1.708  0.00  0.00    +0.039 A 
ATOM     24  C   UNL     1       2.752  -8.442  -2.782  0.00  0.00    +0.128 A 
ATOM     25  F   UNL     1       3.957  -7.849  -2.630  0.00  0.00    -0.205 F 
ENDBRANCH  16  19
BRANCH   1  26
ATOM     26  C   UNL     1       0.479  -3.971  -3.079  0.00  0.00    +0.117 C 
BRANCH  26  27
ATOM     27  C   UNL     1       0.226  -2.480  -3.313  0.00  0.00    +0.139 C 
BRANCH  27  28
ATOM     28  C   UNL     1      -0.693  -1.952  -2.242  0.00  0.00    +0.309 C 
ATOM     29  O   UNL     1      -1.103  -2.692  -1.379  0.00  0.00    -0.251 OA
BRANCH  28  30
ATOM     30  O   UNL     1      -1.056  -0.660  -2.245  0.00  0.00    -0.465 OA
BRANCH  30  32
ATOM     31  C   UNL     1      -2.229   1.263  -1.369  0.00  0.00    +0.048 C 
ATOM     32  C   UNL     1      -1.929  -0.228  -1.200  0.00  0.00    +0.229 C 
ENDBRANCH  30  32
ENDBRANCH  28  30
ENDBRANCH  27  28
ENDBRANCH  26  27
ENDBRANCH   1  26
TORSDOF 6
