REMARK  Name = ZINC11881405
REMARK  15 active torsions:
REMARK  status: ('A' for Active; 'I' for Inactive)
REMARK    1  A    between atoms: C_1  and  C_2
REMARK    2  A    between atoms: C_2  and  C_3
REMARK    3  A    between atoms: C_3  and  C_4
REMARK    4  A    between atoms: C_3  and  C_6
REMARK    5  A    between atoms: C_4  and  C_5
REMARK    6  A    between atoms: C_6  and  N_73
REMARK    7  A    between atoms: C_12  and  C_16
REMARK    8  A    between atoms: C_16  and  C_18
REMARK    9  A    between atoms: C_16  and  N_22
REMARK   10  A    between atoms: C_18  and  C_19
REMARK   11  A    between atoms: C_19  and  C_20
REMARK   12  A    between atoms: C_19  and  C_21
REMARK   13  A    between atoms: C_23  and  C_25
REMARK   14  A    between atoms: C_27  and  C_32
REMARK   15  A    between atoms: C_29  and  C_31
REMARK                            x       y       z     vdW  Elec       q    Type
REMARK                         _______ _______ _______ _____ _____    ______ ____
ROOT
ATOM      1  C   UNL     1      -1.915  -0.527   1.504  0.00  0.00    -0.071 C 
ATOM      2  C   UNL     1      -3.242  -0.984   2.117  0.00  0.00    +0.058 C 
ATOM      3  C   UNL     1      -3.162  -0.839   3.615  0.00  0.00    +0.132 A 
ATOM      4  N   UNL     1      -3.522  -1.702   4.519  0.00  0.00    -0.134 NA
ATOM      5  N   UNL     1      -3.322  -1.206   5.691  0.00  0.00    -0.132 NA
ATOM      6  C   UNL     1      -2.818  -0.005   5.582  0.00  0.00    +0.154 A 
ATOM      7  N   UNL     1      -2.689   0.254   4.263  0.00  0.00    -0.315 N 
ATOM      8  C   UNL     1      -2.135   1.454   3.636  0.00  0.00    +0.106 C 
ATOM      9  C   UNL     1      -2.758   1.631   2.248  0.00  0.00    -0.057 C 
ATOM     10  N   UNL     1      -1.970   0.922   1.214  0.00  0.00    +0.381 N 
ATOM     11  H   UNL     1      -2.423   1.059   0.302  0.00  0.00    -0.082 HD
ENDROOT
BRANCH  10  12
ATOM     12  C   UNL     1      -0.605   1.474   1.157  0.00  0.00    -0.075 C 
BRANCH  12  13
ATOM     13  C   UNL     1       0.099   0.908  -0.078  0.00  0.00    -0.028 C 
BRANCH  13  15
ATOM     14  C   UNL     1       2.310   0.796   1.080  0.00  0.00    +0.004 C 
ATOM     15  C   UNL     1       1.550   1.393  -0.106  0.00  0.00    -0.002 C 
ENDBRANCH  13  15
BRANCH  13  16
ATOM     16  C   UNL     1      -0.623   1.384  -1.340  0.00  0.00    -0.002 C 
ATOM     17  C   UNL     1       0.001   0.716  -2.567  0.00  0.00    +0.004 C 
ENDBRANCH  13  16
ENDBRANCH  12  13
ENDBRANCH  10  12
BRANCH   6  18
ATOM     18  C   UNL     1      -2.450   0.918   6.715  0.00  0.00    +0.142 C 
BRANCH  18  19
ATOM     19  N   UNL     1      -3.523   0.919   7.712  0.00  0.00    -0.301 N 
ATOM     20  C   UNL     1      -3.686   1.982   8.525  0.00  0.00    +0.245 C 
ATOM     21  O   UNL     1      -2.942   2.939   8.431  0.00  0.00    -0.270 OA
ATOM     22  H   UNL     1      -4.117   0.156   7.787  0.00  0.00    +0.150 HD
BRANCH  20  23
ATOM     23  C   UNL     1      -4.769   1.984   9.531  0.00  0.00    +0.037 A 
ATOM     24  C   UNL     1      -5.629   0.889   9.637  0.00  0.00    +0.016 A 
ATOM     25  C   UNL     1      -6.634   0.895  10.582  0.00  0.00    -0.049 A 
ATOM     26  C   UNL     1      -6.799   1.987  11.415  0.00  0.00    +0.006 A 
ATOM     27  C   UNL     1      -5.954   3.078  11.311  0.00  0.00    -0.049 A 
ATOM     28  C   UNL     1      -4.941   3.082  10.374  0.00  0.00    +0.016 A 
ATOM     29  C   UNL     1      -6.141   4.263  12.222  0.00  0.00    +0.044 C 
ATOM     30  C   UNL     1      -7.559  -0.289  10.703  0.00  0.00    +0.044 C 
ENDBRANCH  20  23
ENDBRANCH  18  19
BRANCH  18  31
ATOM     31  C   UNL     1      -1.151   0.434   7.364  0.00  0.00    +0.033 C 
BRANCH  31  32
ATOM     32  C   UNL     1      -0.711   1.438   8.432  0.00  0.00    -0.015 C 
ATOM     33  C   UNL     1       0.517   0.895   9.167  0.00  0.00    +0.007 C 
ATOM     34  C   UNL     1      -0.359   2.770   7.766  0.00  0.00    +0.007 C 
ENDBRANCH  31  32
ENDBRANCH  18  31
ENDBRANCH   6  18
TORSDOF 9
