REMARK  Name = ZINC17133439
REMARK  13 active torsions:
REMARK  status: ('A' for Active; 'I' for Inactive)
REMARK    1  A    between atoms: C_1  and  C_2
REMARK    2  A    between atoms: C_5  and  N_9
REMARK    3  A    between atoms: C_10  and  C_12
REMARK    4  A    between atoms: C_12  and  O_13
REMARK    5  A    between atoms: O_13  and  C_14
REMARK    6  A    between atoms: C_14  and  C_16
REMARK    7  A    between atoms: C_17  and  C_29
REMARK    8  A    between atoms: C_18  and  C_28
REMARK    9  A    between atoms: C_20  and  N_21
REMARK   10  A    between atoms: C_22  and  C_24
REMARK   11  A    between atoms: C_24  and  C_25
REMARK   12  A    between atoms: C_24  and  C_26
REMARK   13  A    between atoms: C_24  and  C_27
REMARK                            x       y       z     vdW  Elec       q    Type
REMARK                         _______ _______ _______ _____ _____    ______ ____
ROOT
ATOM      1  C   UNL     1      -6.040   1.680  -0.380  0.00  0.00    +0.342 C 
ATOM      2  O   UNL     1      -6.210   2.884  -0.387  0.00  0.00    -0.245 OA
ENDROOT
BRANCH   1   3
ATOM      3  C   UNL     1      -7.189   0.778  -0.481  0.00  0.00    +0.091 A 
ATOM      4  C   UNL     1      -7.683   0.319  -1.758  0.00  0.00    -0.025 A 
ATOM      5  C   UNL     1      -8.744  -0.507  -1.745  0.00  0.00    -0.008 A 
ATOM      6  S   UNL     1      -9.104  -0.687  -0.011  0.00  0.00    -0.078 S 
ATOM      7  C   UNL     1      -7.856   0.316   0.649  0.00  0.00    +0.086 A 
ATOM      8  C   UNL     1      -9.456  -1.131  -2.917  0.00  0.00    +0.052 C 
ATOM      9  C   UNL     1      -7.037   0.748  -3.050  0.00  0.00    +0.045 C 
BRANCH   7  10
ATOM     10  N   UNL     1      -7.588   0.594   1.980  0.00  0.00    -0.279 N 
ATOM     11  C   UNL     1      -8.351   0.049   2.949  0.00  0.00    +0.223 C 
ATOM     12  O   UNL     1      -9.271  -0.684   2.656  0.00  0.00    -0.275 OA
ATOM     13  H   UNL     1      -6.852   1.180   2.215  0.00  0.00    +0.155 HD
BRANCH  11  14
ATOM     14  C   UNL     1      -8.059   0.351   4.397  0.00  0.00    +0.039 C 
ATOM     15  C   UNL     1      -9.064  -0.387   5.284  0.00  0.00    +0.020 C 
ATOM     16  C   UNL     1      -6.642  -0.112   4.739  0.00  0.00    +0.020 C 
ATOM     17  C   UNL     1      -8.177   1.857   4.637  0.00  0.00    +0.020 C 
ENDBRANCH  11  14
ENDBRANCH   7  10
ENDBRANCH   1   3
BRANCH   1  18
ATOM     18  O   UNL     1      -4.793   1.175  -0.280  0.00  0.00    -0.452 OA
BRANCH  18  19
ATOM     19  C   UNL     1      -3.702   2.128  -0.184  0.00  0.00    +0.328 C 
BRANCH  19  21
ATOM     20  N   UNL     1      -1.237   2.069   0.019  0.00  0.00    -0.282 N 
ATOM     21  C   UNL     1      -2.394   1.385  -0.081  0.00  0.00    +0.255 C 
ATOM     22  O   UNL     1      -2.384   0.173  -0.088  0.00  0.00    -0.272 OA
ATOM     23  H   UNL     1      -1.251   3.035   0.105  0.00  0.00    +0.155 HD
BRANCH  20  28
ATOM     24  C   UNL     1       3.716  -0.696  -0.080  0.00  0.00    +0.044 C 
ATOM     25  C   UNL     1       2.401   0.038  -0.052  0.00  0.00    -0.049 A 
ATOM     26  C   UNL     1       1.283  -0.526  -0.640  0.00  0.00    +0.005 A 
ATOM     27  C   UNL     1       0.076   0.144  -0.617  0.00  0.00    +0.025 A 
ATOM     28  C   UNL     1      -0.016   1.385  -0.001  0.00  0.00    +0.048 A 
ATOM     29  C   UNL     1       1.108   1.950   0.589  0.00  0.00    +0.039 A 
ATOM     30  C   UNL     1       2.313   1.274   0.561  0.00  0.00    +0.020 A 
ATOM     31 BR   UNL     1       0.989   3.640   1.428  0.00  0.00    -0.048 Br
ENDBRANCH  20  28
ENDBRANCH  19  21
ENDBRANCH  18  19
ENDBRANCH   1  18
TORSDOF 7
