REMARK  Name = ZINC63280757
REMARK  2 active torsions:
REMARK  status: ('A' for Active; 'I' for Inactive)
REMARK    1  A    between atoms: C_6  and  C_11
REMARK    2  A    between atoms: C_17  and  C_20
REMARK                            x       y       z     vdW  Elec       q    Type
REMARK                         _______ _______ _______ _____ _____    ______ ____
ROOT
ATOM      1  C   UNL     1       3.631  -2.749  -1.285  0.00  0.00    +0.177 A 
ATOM      2  N   UNL     1       3.590  -2.273  -2.494  0.00  0.00    -0.129 NA
ATOM      3  N   UNL     1       4.077  -3.128  -3.323  0.00  0.00    -0.121 NA
ATOM      4  C   UNL     1       4.435  -4.195  -2.680  0.00  0.00    +0.211 A 
ATOM      5  N   UNL     1       4.208  -4.005  -1.341  0.00  0.00    -0.222 N 
ATOM      6  N   UNL     1       4.577  -4.978  -0.459  0.00  0.00    -0.263 N 
ATOM      7  C   UNL     1       4.730  -6.335  -1.049  0.00  0.00    +0.184 C 
ATOM      8  S   UNL     1       5.112  -5.838  -2.783  0.00  0.00    -0.056 S 
ATOM      9  H   UNL     1       5.406  -4.709   0.050  0.00  0.00    +0.168 HD
ENDROOT
BRANCH   1  15
ATOM     10  C   UNL     1      -0.016   1.348   0.009  0.00  0.00    +0.001 A 
ATOM     11  C   UNL     1       1.166   2.101   0.002  0.00  0.00    +0.002 A 
ATOM     12  C   UNL     1       2.391   1.535  -0.013  0.00  0.00    +0.026 A 
ATOM     13  C   UNL     1       2.529   0.120  -0.022  0.00  0.00    +0.043 A 
ATOM     14  N   UNL     1       3.587  -0.654  -0.037  0.00  0.00    -0.371 N 
ATOM     15  C   UNL     1       3.143  -2.053  -0.041  0.00  0.00    +0.173 C 
ATOM     16  C   UNL     1       1.631  -2.008  -0.025  0.00  0.00    +0.015 C 
ATOM     17  C   UNL     1       1.295  -0.698  -0.014  0.00  0.00    -0.004 A 
ATOM     18  C   UNL     1       0.002  -0.004   0.002  0.00  0.00    +0.010 A 
ATOM     19  H   UNL     1       4.509  -0.353  -0.045  0.00  0.00    +0.161 HD
ENDBRANCH   1  15
BRANCH   7  20
ATOM     20  C   UNL     1       3.446  -7.120  -0.974  0.00  0.00    +0.003 A 
ATOM     21  C   UNL     1       2.254  -6.472  -0.707  0.00  0.00    +0.008 A 
ATOM     22  C   UNL     1       1.077  -7.192  -0.638  0.00  0.00    +0.000 A 
ATOM     23  C   UNL     1       1.090  -8.561  -0.837  0.00  0.00    +0.001 A 
ATOM     24  C   UNL     1       2.280  -9.209  -1.105  0.00  0.00    +0.020 A 
ATOM     25  C   UNL     1       3.459  -8.488  -1.179  0.00  0.00    +0.047 A 
ATOM     26 CL   UNL     1       4.954  -9.301  -1.521  0.00  0.00    -0.083 Cl
ENDBRANCH   7  20
TORSDOF 2
