REMARK  Name = ZINC67235819
REMARK  7 active torsions:
REMARK  status: ('A' for Active; 'I' for Inactive)
REMARK    1  A    between atoms: C_1  and  C_2
REMARK    2  A    between atoms: C_12  and  S_14
REMARK    3  A    between atoms: S_14  and  C_15
REMARK    4  A    between atoms: C_15  and  C_16
REMARK    5  A    between atoms: N_18  and  C_19
REMARK    6  A    between atoms: N_18  and  C_26
REMARK    7  A    between atoms: C_19  and  C_20
REMARK                            x       y       z     vdW  Elec       q    Type
REMARK                         _______ _______ _______ _____ _____    ______ ____
ROOT
ATOM      1  C   UNL     1       0.321  -6.649  -4.274  0.00  0.00    +0.230 C 
ATOM      2  O   UNL     1       0.431  -7.765  -3.812  0.00  0.00    -0.274 OA
ATOM      3  N   UNL     1      -0.035  -6.486  -5.564  0.00  0.00    -0.266 N 
ENDROOT
BRANCH   3   4
ATOM      4  C   UNL     1      -0.056  -5.205  -6.127  0.00  0.00    +0.037 A 
ATOM      5  C   UNL     1       0.852  -4.867  -7.122  0.00  0.00    +0.024 A 
ATOM      6  C   UNL     1       0.829  -3.603  -7.676  0.00  0.00    +0.017 A 
ATOM      7  C   UNL     1      -0.098  -2.672  -7.241  0.00  0.00    +0.018 A 
ATOM      8  C   UNL     1      -1.003  -3.005  -6.250  0.00  0.00    +0.017 A 
ATOM      9  C   UNL     1      -0.988  -4.270  -5.695  0.00  0.00    +0.024 A 
ATOM     10 BR   UNL     1      -0.126  -0.941  -8.002  0.00  0.00    -0.050 Br
ENDBRANCH   3   4
BRANCH   1  11
ATOM     11  C   UNL     1       0.582  -5.445  -3.406  0.00  0.00    +0.173 C 
BRANCH  11  12
ATOM     12  S   UNL     1       1.190  -5.989  -1.786  0.00  0.00    -0.078 S 
BRANCH  12  24
ATOM     13  C   UNL     1       1.475   1.447  -0.116  0.00  0.00    +0.063 C 
ATOM     14  C   UNL     1       1.525  -0.059  -0.155  0.00  0.00    +0.016 A 
ATOM     15  C   UNL     1       1.177  -0.822  -1.211  0.00  0.00    +0.051 A 
ATOM     16  C   UNL     1       1.364  -2.174  -0.850  0.00  0.00    +0.097 A 
ATOM     17  C   UNL     1       1.839  -2.175   0.467  0.00  0.00    +0.130 A 
ATOM     18  N   UNL     1       1.934  -0.859   0.868  0.00  0.00    -0.353 N 
ATOM     19  H   UNL     1       2.239  -0.553   1.737  0.00  0.00    +0.166 HD
ATOM     20  C   UNL     1       2.115  -3.408   1.086  0.00  0.00    +0.276 A 
ATOM     21  O   UNL     1       2.529  -3.451   2.232  0.00  0.00    -0.266 OA
ATOM     22  N   UNL     1       1.910  -4.543   0.382  0.00  0.00    -0.300 N 
ATOM     23  H   UNL     1       2.094  -5.403   0.791  0.00  0.00    +0.171 HD
ATOM     24  C   UNL     1       1.445  -4.487  -0.900  0.00  0.00    +0.170 A 
ATOM     25  N   UNL     1       1.183  -3.345  -1.492  0.00  0.00    -0.222 NA
ENDBRANCH  12  24
ENDBRANCH  11  12
ENDBRANCH   1  11
BRANCH   3  26
ATOM     26  C   UNL     1      -0.400  -7.649  -6.376  0.00  0.00    +0.148 C 
BRANCH  26  27
ATOM     27  C   UNL     1      -1.882  -7.897  -6.261  0.00  0.00    -0.030 A 
ATOM     28  C   UNL     1      -2.370  -8.722  -5.265  0.00  0.00    +0.005 A 
ATOM     29  C   UNL     1      -3.729  -8.950  -5.159  0.00  0.00    +0.000 A 
ATOM     30  C   UNL     1      -4.601  -8.351  -6.049  0.00  0.00    +0.000 A 
ATOM     31  C   UNL     1      -4.114  -7.524  -7.044  0.00  0.00    +0.000 A 
ATOM     32  C   UNL     1      -2.755  -7.294  -7.147  0.00  0.00    +0.005 A 
ENDBRANCH  26  27
ENDBRANCH   3  26
TORSDOF 6
