REMARK  Name = ZINC65924957
REMARK  5 active torsions:
REMARK  status: ('A' for Active; 'I' for Inactive)
REMARK    1  A    between atoms: C_12  and  C_14
REMARK    2  A    between atoms: C_14  and  C_15
REMARK    3  A    between atoms: C_15  and  C_16
REMARK    4  A    between atoms: C_16  and  C_17
REMARK    5  A    between atoms: C_17  and  N_18
REMARK                            x       y       z     vdW  Elec       q    Type
REMARK                         _______ _______ _______ _____ _____    ______ ____
ROOT
ATOM      1  C   UNL     1      -0.019   1.527   0.010  0.00  0.00    +0.007 C 
ATOM      2  C   UNL     1       1.437   1.999  -0.001  0.00  0.00    -0.009 C 
ATOM      3  C   UNL     1       2.088   1.582   1.319  0.00  0.00    +0.008 C 
ATOM      4  C   UNL     1       2.102   0.085   1.445  0.00  0.00    +0.007 C 
ATOM      5  C   UNL     1       0.739  -0.545   1.211  0.00  0.00    +0.008 C 
ATOM      6  C   UNL     1       0.002  -0.004   0.002  0.00  0.00    -0.009 C 
ATOM      7  C   UNL     1       0.574  -0.480  -1.325  0.00  0.00    +0.026 C 
ATOM      8  C   UNL     1       2.026  -0.022  -1.472  0.00  0.00    +0.077 C 
ATOM      9  C   UNL     1       2.194   1.446  -1.186  0.00  0.00    +0.026 C 
ATOM     10  N   UNL     1       2.863  -0.892  -0.666  0.00  0.00    -0.298 N 
ATOM     11  C   UNL     1       3.201  -0.611   0.701  0.00  0.00    +0.111 C 
ATOM     12  C   UNL     1       3.346  -2.018  -1.228  0.00  0.00    +0.216 C 
ATOM     13  O   UNL     1       3.079  -2.283  -2.380  0.00  0.00    -0.276 OA
ENDROOT
BRANCH  12  14
ATOM     14  C   UNL     1       4.219  -2.947  -0.423  0.00  0.00    +0.096 C 
BRANCH  14  15
ATOM     15  C   UNL     1       4.629  -4.139  -1.290  0.00  0.00    +0.011 C 
BRANCH  15  16
ATOM     16  C   UNL     1       5.515  -5.082  -0.473  0.00  0.00    +0.019 C 
BRANCH  16  17
ATOM     17  C   UNL     1       5.926  -6.274  -1.340  0.00  0.00    +0.106 C 
BRANCH  17  18
ATOM     18  N   UNL     1       6.774  -7.177  -0.558  0.00  0.00    -0.300 N 
ATOM     19  C   UNL     1       7.257  -8.303  -1.120  0.00  0.00    +0.297 C 
ATOM     20  O   UNL     1       6.989  -8.569  -2.276  0.00  0.00    -0.253 OA
ATOM     21  N   UNL     1       8.037  -9.134  -0.401  0.00  0.00    -0.313 N 
ATOM     22  H   UNL     1       6.988  -6.965   0.364  0.00  0.00    +0.150 HD
ATOM     23  H   UNL     1       8.251  -8.921   0.521  0.00  0.00    +0.146 HD
ATOM     24  H   UNL     1       8.385  -9.944  -0.805  0.00  0.00    +0.146 HD
ENDBRANCH  17  18
ENDBRANCH  16  17
ENDBRANCH  15  16
ENDBRANCH  14  15
ENDBRANCH  12  14
TORSDOF 5
