REMARK  Name = ZINC12340563
REMARK  6 active torsions:
REMARK  status: ('A' for Active; 'I' for Inactive)
REMARK    1  A    between atoms: C_4  and  O_7
REMARK    2  A    between atoms: O_7  and  C_8
REMARK    3  A    between atoms: C_13  and  N_14
REMARK    4  A    between atoms: N_14  and  S_15
REMARK    5  A    between atoms: S_15  and  C_18
REMARK    6  A    between atoms: C_21  and  C_23
REMARK                            x       y       z     vdW  Elec       q    Type
REMARK                         _______ _______ _______ _____ _____    ______ ____
ROOT
ATOM      1  N   UNL     1      -1.604   3.102  -1.496  0.00  0.00    -0.212 N 
ATOM      2  H   UNL     1      -1.523   4.014  -1.816  0.00  0.00    +0.174 HD
ENDROOT
BRANCH   1   8
ATOM      3  C   UNL     1      -1.711   2.120  -3.704  0.00  0.00    +0.151 A 
ATOM      4  C   UNL     1      -2.164   1.121  -4.551  0.00  0.00    +0.048 A 
ATOM      5  C   UNL     1      -2.959   0.103  -4.056  0.00  0.00    +0.004 A 
ATOM      6  C   UNL     1      -3.305   0.079  -2.718  0.00  0.00    +0.002 A 
ATOM      7  C   UNL     1      -2.852   1.068  -1.865  0.00  0.00    +0.028 A 
ATOM      8  C   UNL     1      -2.059   2.096  -2.355  0.00  0.00    +0.090 A 
BRANCH   3   9
ATOM      9  O   UNL     1      -0.929   3.121  -4.189  0.00  0.00    -0.454 OA
BRANCH   9  13
ATOM     10  C   UNL     1      -2.713   6.753  -4.993  0.00  0.00    +0.000 A 
ATOM     11  C   UNL     1      -1.341   6.620  -5.098  0.00  0.00    +0.004 A 
ATOM     12  C   UNL     1      -0.741   5.405  -4.829  0.00  0.00    +0.046 A 
ATOM     13  C   UNL     1      -1.517   4.317  -4.454  0.00  0.00    +0.129 A 
ATOM     14  C   UNL     1      -2.894   4.452  -4.354  0.00  0.00    +0.046 A 
ATOM     15  C   UNL     1      -3.488   5.671  -4.619  0.00  0.00    +0.004 A 
ENDBRANCH   9  13
ENDBRANCH   3   9
ENDBRANCH   1   8
BRANCH   1  16
ATOM     16  S   UNL     1      -1.204   2.736   0.069  0.00  0.00    +0.079 S 
ATOM     17  O   UNL     1      -2.323   2.060   0.627  0.00  0.00    -0.149 OA
ATOM     18  O   UNL     1      -0.669   3.922   0.640  0.00  0.00    -0.149 OA
BRANCH  16  19
ATOM     19  C   UNL     1       0.113   1.567   0.011  0.00  0.00    +0.146 A 
ATOM     20  C   UNL     1       1.452   1.792  -0.018  0.00  0.00    +0.037 A 
ATOM     21  C   UNL     1       2.314   0.721  -0.069  0.00  0.00    +0.021 A 
ATOM     22  C   UNL     1       1.778  -0.554  -0.088  0.00  0.00    +0.059 A 
ATOM     23  S   UNL     1       0.026  -0.216  -0.034  0.00  0.00    -0.065 S 
BRANCH  22  24
ATOM     24  C   UNL     1       2.471  -1.849  -0.141  0.00  0.00    +0.174 A 
ATOM     25  C   UNL     1       1.893  -3.095  -0.153  0.00  0.00    +0.073 A 
ATOM     26  C   UNL     1       2.991  -3.975  -0.210  0.00  0.00    +0.157 A 
ATOM     27  N   UNL     1       4.064  -3.235  -0.218  0.00  0.00    -0.086 NA
ATOM     28  O   UNL     1       3.801  -2.055  -0.181  0.00  0.00    -0.354 OA
ENDBRANCH  22  24
ENDBRANCH  16  19
ENDBRANCH   1  16
TORSDOF 6
