REMARK  Name = ZINC36575930
REMARK  12 active torsions:
REMARK  status: ('A' for Active; 'I' for Inactive)
REMARK    1  A    between atoms: C_1  and  C_2
REMARK    2  A    between atoms: C_2  and  C_3
REMARK    3  A    between atoms: C_3  and  N_4
REMARK    4  A    between atoms: N_4  and  C_5
REMARK    5  A    between atoms: C_5  and  C_7
REMARK    6  A    between atoms: C_5  and  C_14
REMARK    7  A    between atoms: C_10  and  C_13
REMARK    8  A    between atoms: N_16  and  C_17
REMARK    9  A    between atoms: C_17  and  S_18
REMARK   10  A    between atoms: S_18  and  C_21
REMARK   11  A    between atoms: C_24  and  C_27
REMARK   12  A    between atoms: C_28  and  C_30
REMARK                            x       y       z     vdW  Elec       q    Type
REMARK                         _______ _______ _______ _____ _____    ______ ____
ROOT
ATOM      1  C   UNL     1      -0.161  -2.680  -1.999  0.00  0.00    +0.192 C 
ENDROOT
BRANCH   1   2
ATOM      2  C   UNL     1      -0.059  -2.439  -3.483  0.00  0.00    -0.018 A 
ATOM      3  C   UNL     1       0.085  -1.152  -3.966  0.00  0.00    +0.006 A 
ATOM      4  C   UNL     1       0.178  -0.931  -5.328  0.00  0.00    +0.004 A 
ATOM      5  C   UNL     1       0.128  -1.997  -6.206  0.00  0.00    -0.050 A 
ATOM      6  C   UNL     1      -0.015  -3.284  -5.723  0.00  0.00    +0.004 A 
ATOM      7  C   UNL     1      -0.104  -3.506  -4.361  0.00  0.00    +0.006 A 
ATOM      8  C   UNL     1       0.229  -1.756  -7.690  0.00  0.00    +0.044 C 
ENDBRANCH   1   2
BRANCH   1   9
ATOM      9  C   UNL     1      -1.521  -2.249  -1.513  0.00  0.00    +0.239 C 
ATOM     10  O   UNL     1      -1.619  -1.357  -0.697  0.00  0.00    -0.273 OA
ATOM     11  N   UNL     1      -2.629  -2.856  -1.984  0.00  0.00    -0.294 N 
ATOM     12  H   UNL     1      -2.551  -3.569  -2.637  0.00  0.00    +0.150 HD
BRANCH  11  13
ATOM     13  C   UNL     1      -3.950  -2.437  -1.511  0.00  0.00    +0.278 C 
BRANCH  13  14
ATOM     14  S   UNL     1      -4.649  -1.223  -2.664  0.00  0.00    +0.013 S 
ATOM     15  O   UNL     1      -5.958  -0.854  -2.253  0.00  0.00    -0.168 OA
ATOM     16  O   UNL     1      -3.681  -0.231  -2.976  0.00  0.00    -0.168 OA
BRANCH  14  17
ATOM     17  C   UNL     1      -4.883  -2.110  -4.168  0.00  0.00    +0.090 A 
ATOM     18  C   UNL     1      -3.869  -2.160  -5.106  0.00  0.00    +0.027 A 
ATOM     19  C   UNL     1      -4.053  -2.856  -6.287  0.00  0.00    +0.005 A 
ATOM     20  C   UNL     1      -5.251  -3.502  -6.529  0.00  0.00    -0.050 A 
ATOM     21  C   UNL     1      -6.265  -3.453  -5.590  0.00  0.00    +0.005 A 
ATOM     22  C   UNL     1      -6.079  -2.760  -4.408  0.00  0.00    +0.027 A 
ATOM     23  C   UNL     1      -5.452  -4.260  -7.816  0.00  0.00    +0.044 C 
ENDBRANCH  14  17
ENDBRANCH  13  14
ENDBRANCH  11  13
ENDBRANCH   1   9
BRANCH   1  24
ATOM     24  N   UNL     1       0.872  -1.907  -1.307  0.00  0.00    -0.284 N 
ATOM     25  C   UNL     1       2.123  -2.398  -1.199  0.00  0.00    +0.237 C 
ATOM     26  O   UNL     1       2.392  -3.481  -1.675  0.00  0.00    -0.274 OA
BRANCH  25  27
ATOM     27  C   UNL     1       3.186  -1.603  -0.486  0.00  0.00    +0.159 C 
ATOM     28  C   UNL     1       3.772  -0.529  -1.429  0.00  0.00    +0.041 C 
ATOM     29  C   UNL     1       4.997  -1.263  -2.021  0.00  0.00    +0.098 C 
ATOM     30  C   UNL     1       5.345  -2.303  -0.979  0.00  0.00    +0.214 C 
ATOM     31  O   UNL     1       6.399  -2.900  -0.918  0.00  0.00    -0.276 OA
ATOM     32  N   UNL     1       4.315  -2.470  -0.129  0.00  0.00    -0.304 N 
ATOM     33  H   UNL     1       4.317  -3.083   0.623  0.00  0.00    +0.149 HD
ENDBRANCH  25  27
BRANCH  24  34
ATOM     34  C   UNL     1       0.547  -0.599  -0.732  0.00  0.00    +0.108 C 
BRANCH  34  36
ATOM     35  C   UNL     1      -0.257   0.568   1.326  0.00  0.00    +0.005 C 
ATOM     36  C   UNL     1       0.269  -0.755   0.765  0.00  0.00    +0.016 C 
ENDBRANCH  34  36
ENDBRANCH  24  34
ENDBRANCH   1  24
TORSDOF 9
