REMARK  Name = ZINC39940186
REMARK  10 active torsions:
REMARK  status: ('A' for Active; 'I' for Inactive)
REMARK    1  A    between atoms: C_1  and  C_2
REMARK    2  A    between atoms: C_5  and  S_8
REMARK    3  A    between atoms: S_8  and  N_11
REMARK    4  A    between atoms: C_17  and  C_19
REMARK    5  A    between atoms: C_19  and  C_20
REMARK    6  A    between atoms: C_20  and  C_21
REMARK    7  A    between atoms: C_21  and  O_23
REMARK    8  A    between atoms: O_23  and  C_24
REMARK    9  A    between atoms: C_24  and  C_25
REMARK   10  A    between atoms: C_25  and  C_27
REMARK                            x       y       z     vdW  Elec       q    Type
REMARK                         _______ _______ _______ _____ _____    ______ ____
ROOT
ATOM      1  N   UNL     1       1.651  -4.999  -0.034  0.00  0.00    -0.174 NA
ATOM      2  C   UNL     1       2.363  -5.199  -1.304  0.00  0.00    +0.128 C 
ATOM      3  C   UNL     1       3.624  -4.326  -1.301  0.00  0.00    +0.125 C 
ATOM      4  N   UNL     1       4.347  -4.550  -0.041  0.00  0.00    -0.299 N 
ATOM      5  C   UNL     1       3.635  -4.351   1.229  0.00  0.00    +0.125 C 
ATOM      6  C   UNL     1       2.375  -5.218   1.226  0.00  0.00    +0.128 C 
ATOM      7  C   UNL     1       5.640  -4.932  -0.050  0.00  0.00    +0.216 C 
ATOM      8  O   UNL     1       6.217  -5.094  -1.105  0.00  0.00    -0.276 OA
ENDROOT
BRANCH   1   9
ATOM      9  S   UNL     1       0.063  -4.530  -0.023  0.00  0.00    +0.061 S 
ATOM     10  O   UNL     1      -0.476  -4.950   1.223  0.00  0.00    -0.153 OA
ATOM     11  O   UNL     1      -0.490  -4.937  -1.267  0.00  0.00    -0.153 OA
BRANCH   9  16
ATOM     12  C   UNL     1      -0.018   1.503   0.010  0.00  0.00    +0.044 C 
ATOM     13  C   UNL     1       0.002  -0.004   0.002  0.00  0.00    -0.050 A 
ATOM     14  C   UNL     1       0.006  -0.689  -1.199  0.00  0.00    +0.005 A 
ATOM     15  C   UNL     1       0.025  -2.071  -1.206  0.00  0.00    +0.029 A 
ATOM     16  C   UNL     1       0.040  -2.768  -0.013  0.00  0.00    +0.105 A 
ATOM     17  C   UNL     1       0.037  -2.084   1.188  0.00  0.00    +0.029 A 
ATOM     18  C   UNL     1       0.023  -0.702   1.195  0.00  0.00    +0.005 A 
ENDBRANCH   9  16
ENDBRANCH   1   9
BRANCH   7  19
ATOM     19  C   UNL     1       6.368  -5.158   1.249  0.00  0.00    +0.107 C 
BRANCH  19  20
ATOM     20  C   UNL     1       7.809  -5.582   0.960  0.00  0.00    +0.130 C 
BRANCH  20  21
ATOM     21  C   UNL     1       8.537  -5.808   2.259  0.00  0.00    +0.308 C 
ATOM     22  O   UNL     1       7.963  -5.647   3.310  0.00  0.00    -0.251 OA
BRANCH  21  23
ATOM     23  O   UNL     1       9.825  -6.188   2.250  0.00  0.00    -0.457 OA
BRANCH  23  24
ATOM     24  C   UNL     1      10.452  -6.384   3.519  0.00  0.00    +0.311 C 
BRANCH  24  25
ATOM     25  C   UNL     1      11.884  -6.805   3.311  0.00  0.00    +0.199 C 
ATOM     26  O   UNL     1      12.325  -6.926   2.186  0.00  0.00    -0.289 OA
BRANCH  25  27
ATOM     27  C   UNL     1      12.713  -7.060   4.424  0.00  0.00    +0.026 C 
ATOM     28  C   UNL     1      14.041  -7.446   4.407  0.00  0.00    +0.006 A 
ATOM     29  C   UNL     1      14.956  -7.701   3.358  0.00  0.00    +0.010 A 
ATOM     30  C   UNL     1      16.225  -8.074   3.637  0.00  0.00    +0.001 A 
ATOM     31  C   UNL     1      16.695  -8.226   4.951  0.00  0.00    +0.002 A 
ATOM     32  C   UNL     1      15.903  -8.007   6.023  0.00  0.00    +0.026 A 
ATOM     33  C   UNL     1      14.506  -7.597   5.808  0.00  0.00    +0.043 A 
ATOM     34  N   UNL     1      13.541  -7.326   6.641  0.00  0.00    -0.380 N 
ATOM     35  C   UNL     1      12.338  -6.961   5.886  0.00  0.00    +0.152 C 
ATOM     36  H   UNL     1      13.610  -7.357   7.608  0.00  0.00    +0.160 HD
ENDBRANCH  25  27
ENDBRANCH  24  25
ENDBRANCH  23  24
ENDBRANCH  21  23
ENDBRANCH  20  21
ENDBRANCH  19  20
ENDBRANCH   7  19
TORSDOF 9
