REMARK  Name = ZINC25144573
REMARK  6 active torsions:
REMARK  status: ('A' for Active; 'I' for Inactive)
REMARK    1  A    between atoms: C_5  and  C_7
REMARK    2  A    between atoms: C_10  and  C_12
REMARK    3  A    between atoms: C_12  and  C_13
REMARK    4  A    between atoms: C_13  and  C_14
REMARK    5  A    between atoms: N_16  and  C_17
REMARK    6  A    between atoms: C_22  and  C_25
REMARK                            x       y       z     vdW  Elec       q    Type
REMARK                         _______ _______ _______ _____ _____    ______ ____
ROOT
ATOM      1  C   UNL     1      -0.019   1.526   0.010  0.00  0.00    +0.103 C 
ENDROOT
BRANCH   1   2
ATOM      2  C   UNL     1      -0.724   2.012   1.250  0.00  0.00    +0.214 C 
ATOM      3  O   UNL     1      -1.167   1.213   2.049  0.00  0.00    -0.276 OA
ATOM      4  N   UNL     1      -0.863   3.334   1.472  0.00  0.00    -0.312 N 
ATOM      5  H   UNL     1      -0.462   4.058   0.748  0.00  0.00    +0.149 HD
BRANCH   4   6
ATOM      6  C   UNL     1      -1.549   3.806   2.677  0.00  0.00    +0.073 C 
ATOM      7  C   UNL     1      -0.555   3.865   3.840  0.00  0.00    +0.022 C 
ATOM      8  C   UNL     1      -1.272   4.358   5.098  0.00  0.00    +0.002 C 
ATOM      9  C   UNL     1      -1.843   5.755   4.845  0.00  0.00    +0.012 C 
ATOM     10  C   UNL     1      -2.837   5.696   3.683  0.00  0.00    +0.095 C 
ATOM     11  C   UNL     1      -2.121   5.203   2.425  0.00  0.00    +0.034 C 
BRANCH  10  12
ATOM     12  C   UNL     1      -3.409   7.093   3.430  0.00  0.00    +0.393 C 
ATOM     13  F   UNL     1      -2.369   7.972   3.111  0.00  0.00    -0.170 F 
ATOM     14  F   UNL     1      -4.317   7.039   2.368  0.00  0.00    -0.170 F 
ATOM     15  F   UNL     1      -4.064   7.544   4.582  0.00  0.00    -0.170 F 
ENDBRANCH  10  12
ENDBRANCH   4   6
ENDBRANCH   1   2
BRANCH   1  16
ATOM     16  C   UNL     1       0.002  -0.004   0.002  0.00  0.00    +0.083 C 
BRANCH  16  20
ATOM     17  C   UNL     1       1.057  -1.166  -3.297  0.00  0.00    +0.138 A 
ATOM     18  C   UNL     1       2.261  -1.168  -2.666  0.00  0.00    +0.050 A 
ATOM     19  C   UNL     1       2.028  -0.733  -1.346  0.00  0.00    +0.045 A 
ATOM     20  C   UNL     1       0.707  -0.490  -1.238  0.00  0.00    +0.106 A 
ATOM     21  O   UNL     1       0.123  -0.758  -2.417  0.00  0.00    -0.460 OA
BRANCH  17  26
ATOM     22  C   UNL     1       1.362  -1.368  -7.035  0.00  0.00    +0.001 A 
ATOM     23  C   UNL     1       0.359  -2.271  -7.340  0.00  0.00    +0.003 A 
ATOM     24  C   UNL     1      -0.419  -2.816  -6.335  0.00  0.00    +0.039 A 
ATOM     25  C   UNL     1      -0.198  -2.462  -5.018  0.00  0.00    +0.134 A 
ATOM     26  C   UNL     1       0.814  -1.551  -4.704  0.00  0.00    +0.052 A 
ATOM     27  C   UNL     1       1.591  -1.002  -5.725  0.00  0.00    +0.014 A 
ATOM     28  F   UNL     1      -0.959  -2.994  -4.036  0.00  0.00    -0.205 F 
ENDBRANCH  17  26
ENDBRANCH  16  20
ENDBRANCH   1  16
TORSDOF 6
