REMARK  Name = ZINC06173134
REMARK  11 active torsions:
REMARK  status: ('A' for Active; 'I' for Inactive)
REMARK    1  A    between atoms: C_1  and  C_2
REMARK    2  A    between atoms: C_5  and  S_8
REMARK    3  A    between atoms: S_8  and  C_11
REMARK    4  A    between atoms: C_11  and  N_12
REMARK    5  A    between atoms: C_13  and  C_17
REMARK    6  A    between atoms: C_17  and  C_19
REMARK    7  A    between atoms: C_17  and  N_64
REMARK    8  A    between atoms: C_19  and  C_20
REMARK    9  A    between atoms: C_20  and  C_21
REMARK   10  A    between atoms: C_20  and  C_22
REMARK   11  A    between atoms: C_28  and  C_30
REMARK                            x       y       z     vdW  Elec       q    Type
REMARK                         _______ _______ _______ _____ _____    ______ ____
ROOT
ATOM      1  C   UNL     1       3.462   0.639   0.784  0.00  0.00    +0.003 C 
ENDROOT
BRANCH   1   9
ATOM      2  C   UNL     1       5.051  -1.188   0.785  0.00  0.00    -0.059 C 
ATOM      3  C   UNL     1       5.243  -2.652   0.377  0.00  0.00    +0.089 C 
ATOM      4  N   UNL     1       5.077  -2.756  -1.081  0.00  0.00    -0.299 N 
ATOM      5  C   UNL     1       3.873  -2.171  -1.688  0.00  0.00    +0.089 C 
ATOM      6  C   UNL     1       3.735  -0.725  -1.198  0.00  0.00    -0.059 C 
ATOM      7  C   UNL     1       6.005  -3.373  -1.840  0.00  0.00    +0.282 C 
ATOM      8  O   UNL     1       5.906  -3.357  -3.053  0.00  0.00    -0.267 OA
ATOM      9  N   UNL     1       3.741  -0.722   0.281  0.00  0.00    +0.388 N 
ATOM     10  H   UNL     1       3.009  -1.358   0.618  0.00  0.00    -0.081 HD
BRANCH   7  11
ATOM     11  C   UNL     1       7.132  -4.063  -1.204  0.00  0.00    +0.189 A 
ATOM     12  C   UNL     1       8.204  -4.610  -1.849  0.00  0.00    +0.054 A 
ATOM     13  C   UNL     1       9.032  -5.161  -0.859  0.00  0.00    +0.042 A 
ATOM     14  C   UNL     1       8.437  -4.929   0.332  0.00  0.00    +0.196 A 
ATOM     15  O   UNL     1       7.295  -4.262   0.120  0.00  0.00    -0.458 OA
ENDBRANCH   7  11
ENDBRANCH   1   9
BRANCH   1  17
ATOM     16  N   UNL     1       1.990   2.377  -0.364  0.00  0.00    -0.209 N 
ATOM     17  C   UNL     1       2.195   1.148   0.145  0.00  0.00    +0.140 A 
ATOM     18  N   UNL     1       1.080   0.481  -0.021  0.00  0.00    -0.115 NA
ATOM     19  N   UNL     1       0.234   1.259  -0.603  0.00  0.00    -0.023 NA
ATOM     20  N   UNL     1       0.780   2.405  -0.811  0.00  0.00    -0.042 NA
BRANCH  16  21
ATOM     21  C   UNL     1       2.958   3.476  -0.403  0.00  0.00    +0.318 C 
BRANCH  21  22
ATOM     22  S   UNL     1       2.806   4.470   1.107  0.00  0.00    +0.017 S 
ATOM     23  O   UNL     1       1.559   5.151   1.121  0.00  0.00    -0.168 OA
ATOM     24  O   UNL     1       3.233   3.717   2.234  0.00  0.00    -0.168 OA
BRANCH  22  29
ATOM     25  C   UNL     1       6.936   8.829   0.516  0.00  0.00    +0.044 C 
ATOM     26  C   UNL     1       5.905   7.740   0.664  0.00  0.00    -0.050 A 
ATOM     27  C   UNL     1       4.620   7.936   0.192  0.00  0.00    +0.005 A 
ATOM     28  C   UNL     1       3.674   6.938   0.327  0.00  0.00    +0.027 A 
ATOM     29  C   UNL     1       4.012   5.743   0.934  0.00  0.00    +0.090 A 
ATOM     30  C   UNL     1       5.295   5.549   1.411  0.00  0.00    +0.027 A 
ATOM     31  C   UNL     1       6.243   6.545   1.272  0.00  0.00    +0.005 A 
ENDBRANCH  22  29
ENDBRANCH  21  22
ENDBRANCH  16  21
ENDBRANCH   1  17
BRANCH   1  32
ATOM     32  C   UNL     1       3.279   0.576   2.301  0.00  0.00    -0.005 C 
BRANCH  32  33
ATOM     33  C   UNL     1       2.041  -0.260   2.631  0.00  0.00    -0.018 C 
ATOM     34  C   UNL     1       2.287  -1.716   2.229  0.00  0.00    +0.007 C 
ATOM     35  C   UNL     1       1.761  -0.186   4.134  0.00  0.00    +0.007 C 
ENDBRANCH  32  33
ENDBRANCH   1  32
TORSDOF 8
