REMARK  Name = ZINC03375238
REMARK  8 active torsions:
REMARK  status: ('A' for Active; 'I' for Inactive)
REMARK    1  A    between atoms: C_1  and  C_2
REMARK    2  A    between atoms: C_2  and  C_3
REMARK    3  A    between atoms: C_3  and  C_4
REMARK    4  A    between atoms: C_4  and  N_5
REMARK    5  A    between atoms: C_14  and  C_16
REMARK    6  A    between atoms: N_18  and  N_19
REMARK    7  A    between atoms: N_19  and  C_20
REMARK    8  A    between atoms: N_25  and  C_28
REMARK                            x       y       z     vdW  Elec       q    Type
REMARK                         _______ _______ _______ _____ _____    ______ ____
ROOT
ATOM      1  C   UNL     1      -5.229  -3.374   2.701  0.00  0.00    +0.278 C 
ATOM      2  O   UNL     1      -6.361  -3.790   2.856  0.00  0.00    -0.267 OA
ATOM      3  N   UNL     1      -4.450  -3.128   3.772  0.00  0.00    -0.245 N 
ATOM      4  H   UNL     1      -3.546  -2.796   3.649  0.00  0.00    +0.169 HD
ENDROOT
BRANCH   1  14
ATOM      5  N   UNL     1      -2.965  -2.460   0.020  0.00  0.00    -0.228 N 
ATOM      6  C   UNL     1      -3.611  -2.654  -1.149  0.00  0.00    +0.275 A 
ATOM      7  O   UNL     1      -3.063  -2.419  -2.210  0.00  0.00    -0.266 OA
ATOM      8  C   UNL     1      -4.992  -3.156  -1.110  0.00  0.00    +0.050 A 
ATOM      9  C   UNL     1      -5.743  -3.389  -2.258  0.00  0.00    +0.014 A 
ATOM     10  C   UNL     1      -7.033  -3.860  -2.136  0.00  0.00    +0.001 A 
ATOM     11  C   UNL     1      -7.585  -4.104  -0.886  0.00  0.00    +0.001 A 
ATOM     12  C   UNL     1      -6.857  -3.879   0.263  0.00  0.00    +0.011 A 
ATOM     13  C   UNL     1      -5.554  -3.404   0.164  0.00  0.00    +0.020 A 
ATOM     14  C   UNL     1      -4.709  -3.138   1.339  0.00  0.00    +0.155 A 
ATOM     15  N   UNL     1      -3.489  -2.694   1.163  0.00  0.00    -0.163 NA
BRANCH   5  16
ATOM     16  C   UNL     1      -1.589  -1.960  -0.024  0.00  0.00    +0.147 C 
BRANCH  16  17
ATOM     17  C   UNL     1      -1.601  -0.430   0.015  0.00  0.00    +0.023 C 
BRANCH  17  19
ATOM     18  C   UNL     1      -0.176   1.622   0.007  0.00  0.00    +0.004 C 
ATOM     19  C   UNL     1      -0.164   0.092  -0.031  0.00  0.00    -0.002 C 
ENDBRANCH  17  19
ENDBRANCH  16  17
ENDBRANCH   5  16
ENDBRANCH   1  14
BRANCH   3  20
ATOM     20  N   UNL     1      -4.931  -3.346   5.032  0.00  0.00    -0.228 NA
ATOM     21  H   UNL     1      -5.783  -2.829   5.188  0.00  0.00    +0.145 HD
BRANCH  20  22
ATOM     22  C   UNL     1      -3.921  -3.014   6.046  0.00  0.00    +0.168 C 
ATOM     23  C   UNL     1      -2.639  -3.843   5.826  0.00  0.00    +0.126 C 
ATOM     24  C   UNL     1      -1.580  -2.794   5.562  0.00  0.00    +0.228 C 
ATOM     25  O   UNL     1      -0.410  -3.018   5.336  0.00  0.00    -0.275 OA
ATOM     26  N   UNL     1      -2.140  -1.579   5.618  0.00  0.00    -0.209 N 
ATOM     27  C   UNL     1      -3.455  -1.584   5.886  0.00  0.00    +0.245 C 
ATOM     28  O   UNL     1      -4.159  -0.601   5.984  0.00  0.00    -0.273 OA
BRANCH  26  29
ATOM     29  C   UNL     1      -1.412  -0.398   5.415  0.00  0.00    +0.044 A 
ATOM     30  C   UNL     1      -0.439  -0.015   6.328  0.00  0.00    +0.025 A 
ATOM     31  C   UNL     1       0.276   1.149   6.126  0.00  0.00    +0.022 A 
ATOM     32  C   UNL     1       0.024   1.933   5.014  0.00  0.00    +0.041 A 
ATOM     33  C   UNL     1      -0.945   1.554   4.102  0.00  0.00    +0.022 A 
ATOM     34  C   UNL     1      -1.659   0.388   4.297  0.00  0.00    +0.025 A 
ATOM     35 CL   UNL     1       0.925   3.396   4.763  0.00  0.00    -0.084 Cl
ENDBRANCH  26  29
ENDBRANCH  20  22
ENDBRANCH   3  20
TORSDOF 7
