REMARK  Name = ZINC41761666
REMARK  6 active torsions:
REMARK  status: ('A' for Active; 'I' for Inactive)
REMARK    1  A    between atoms: C_1  and  C_2
REMARK    2  A    between atoms: C_8  and  N_10
REMARK    3  A    between atoms: N_10  and  C_11
REMARK    4  A    between atoms: C_11  and  C_12
REMARK    5  A    between atoms: C_11  and  C_13
REMARK    6  A    between atoms: C_11  and  C_21
REMARK                            x       y       z     vdW  Elec       q    Type
REMARK                         _______ _______ _______ _____ _____    ______ ____
ROOT
ATOM      1  C   UNL     1       0.765  -0.524   3.640  0.00  0.00    +0.060 C 
ATOM      2  C   UNL     1       2.130   0.137   3.434  0.00  0.00    +0.007 C 
ENDROOT
BRANCH   1   3
ATOM      3  C   UNL     1       0.108   0.052   4.868  0.00  0.00    -0.028 A 
ATOM      4  C   UNL     1      -1.087   0.737   4.756  0.00  0.00    +0.024 A 
ATOM      5  C   UNL     1      -1.690   1.265   5.883  0.00  0.00    +0.041 A 
ATOM      6  C   UNL     1      -1.096   1.109   7.123  0.00  0.00    +0.021 A 
ATOM      7  C   UNL     1       0.099   0.425   7.235  0.00  0.00    +0.021 A 
ATOM      8  C   UNL     1       0.699  -0.109   6.109  0.00  0.00    +0.043 A 
ATOM      9 CL   UNL     1       2.197  -0.975   6.251  0.00  0.00    -0.083 Cl
ATOM     10 CL   UNL     1      -3.192   2.125   5.742  0.00  0.00    -0.084 Cl
ENDBRANCH   1   3
BRANCH   1  11
ATOM     11  N   UNL     1      -0.083  -0.272   2.468  0.00  0.00    +0.395 N 
ATOM     12  H   UNL     1      -0.319   0.709   2.427  0.00  0.00    -0.083 HD
ATOM     13  H   UNL     1      -0.928  -0.818   2.540  0.00  0.00    -0.083 HD
BRANCH  11  20
ATOM     14  C   UNL     1      -0.299   1.339   0.068  0.00  0.00    +0.006 C 
ATOM     15  C   UNL     1      -0.142  -0.182   0.021  0.00  0.00    -0.028 C 
ATOM     16  C   UNL     1       0.614  -0.578  -1.249  0.00  0.00    +0.002 C 
ATOM     17  C   UNL     1       0.770  -2.099  -1.296  0.00  0.00    +0.000 C 
ATOM     18  C   UNL     1       1.554  -2.569  -0.069  0.00  0.00    -0.002 C 
ATOM     19  C   UNL     1       0.799  -2.173   1.201  0.00  0.00    -0.015 C 
ATOM     20  C   UNL     1       0.642  -0.652   1.248  0.00  0.00    -0.067 C 
ENDBRANCH  11  20
ENDBRANCH   1  11
BRANCH   1  21
ATOM     21  C   UNL     1       0.948  -2.009   3.818  0.00  0.00    +0.349 C 
ATOM     22  O   UNL     1       2.058  -2.466   4.030  0.00  0.00    -0.248 OA
ATOM     23  O   UNL     1      -0.015  -2.754   3.751  0.00  0.00    -0.248 OA
ENDBRANCH   1  21
TORSDOF 4
