REMARK  Name = ZINC09603478
REMARK  9 active torsions:
REMARK  status: ('A' for Active; 'I' for Inactive)
REMARK    1  A    between atoms: C_1  and  C_2
REMARK    2  A    between atoms: C_2  and  C_4
REMARK    3  A    between atoms: C_2  and  N_19
REMARK    4  A    between atoms: C_16  and  C_17
REMARK    5  A    between atoms: C_16  and  C_18
REMARK    6  A    between atoms: N_19  and  C_20
REMARK    7  A    between atoms: C_25  and  C_26
REMARK    8  A    between atoms: N_28  and  C_29
REMARK    9  A    between atoms: C_29  and  C_30
REMARK                            x       y       z     vdW  Elec       q    Type
REMARK                         _______ _______ _______ _____ _____    ______ ____
ROOT
ATOM      1  C   UNL     1       0.372  -0.991   0.804  0.00  0.00    +0.038 C 
ATOM      2  C   UNL     1       1.618  -0.621   1.611  0.00  0.00    +0.154 C 
ENDROOT
BRANCH   2   3
ATOM      3  C   UNL     1       2.543   0.204   0.754  0.00  0.00    +0.241 C 
ATOM      4  O   UNL     1       3.186  -0.324  -0.128  0.00  0.00    -0.273 OA
ATOM      5  N   UNL     1       2.657   1.530   0.969  0.00  0.00    -0.254 N 
ATOM      6  C   UNL     1       1.838   2.186   1.902  0.00  0.00    +0.059 A 
ATOM      7  C   UNL     1       0.564   1.727   2.181  0.00  0.00    +0.025 A 
ATOM      8  C   UNL     1      -0.223   2.401   3.098  0.00  0.00    +0.002 A 
ATOM      9  C   UNL     1       0.265   3.524   3.740  0.00  0.00    +0.002 A 
ATOM     10  C   UNL     1       1.538   3.988   3.466  0.00  0.00    +0.025 A 
ATOM     11  C   UNL     1       2.333   3.320   2.547  0.00  0.00    +0.055 A 
ATOM     12  N   UNL     1       3.627   3.768   2.261  0.00  0.00    -0.282 N 
ATOM     13  C   UNL     1       4.293   3.307   1.186  0.00  0.00    +0.241 C 
ATOM     14  O   UNL     1       5.430   3.676   0.982  0.00  0.00    -0.273 OA
ATOM     15  C   UNL     1       3.643   2.336   0.234  0.00  0.00    +0.113 C 
ATOM     16  C   UNL     1       4.709   1.417  -0.368  0.00  0.00    +0.042 C 
ATOM     17  C   UNL     1       2.941   3.107  -0.886  0.00  0.00    +0.042 C 
ATOM     18  H   UNL     1       4.049   4.419   2.844  0.00  0.00    +0.155 HD
ENDBRANCH   2   3
BRANCH   2  19
ATOM     19  N   UNL     1       2.305  -1.843   2.036  0.00  0.00    -0.333 N 
ATOM     20  H   UNL     1       3.037  -2.197   1.506  0.00  0.00    +0.147 HD
BRANCH  19  21
ATOM     21  C   UNL     1       1.910  -2.494   3.197  0.00  0.00    +0.040 A 
ATOM     22  C   UNL     1       0.783  -2.066   3.888  0.00  0.00    +0.024 A 
ATOM     23  C   UNL     1       0.392  -2.715   5.042  0.00  0.00    +0.002 A 
ATOM     24  C   UNL     1       1.118  -3.795   5.520  0.00  0.00    +0.001 A 
ATOM     25  C   UNL     1       2.238  -4.233   4.849  0.00  0.00    +0.015 A 
ATOM     26  C   UNL     1       2.644  -3.590   3.676  0.00  0.00    +0.057 A 
BRANCH  26  27
ATOM     27  C   UNL     1       3.838  -4.058   2.949  0.00  0.00    +0.246 C 
ATOM     28  O   UNL     1       4.250  -3.433   1.991  0.00  0.00    -0.270 OA
ATOM     29  N   UNL     1       4.473  -5.178   3.347  0.00  0.00    -0.309 N 
ATOM     30  H   UNL     1       4.144  -5.677   4.111  0.00  0.00    +0.149 HD
BRANCH  29  31
ATOM     31  C   UNL     1       5.660  -5.643   2.624  0.00  0.00    +0.136 C 
BRANCH  31  32
ATOM     32  C   UNL     1       6.183  -6.925   3.275  0.00  0.00    +0.135 C 
ATOM     33  C   UNL     1       7.505  -7.365   2.608  0.00  0.00    +0.035 C 
ATOM     34  C   UNL     1       7.417  -8.907   2.580  0.00  0.00    +0.031 C 
ATOM     35  C   UNL     1       6.051  -9.217   3.232  0.00  0.00    +0.160 C 
ATOM     36  O   UNL     1       5.269  -8.018   3.038  0.00  0.00    -0.375 OA
ENDBRANCH  31  32
ENDBRANCH  29  31
ENDBRANCH  26  27
ENDBRANCH  19  21
ENDBRANCH   2  19
TORSDOF 6
