REMARK  Name = ZINC36582865
REMARK  19 active torsions:
REMARK  status: ('A' for Active; 'I' for Inactive)
REMARK    1  A    between atoms: C_1  and  C_2
REMARK    2  A    between atoms: C_2  and  C_3
REMARK    3  A    between atoms: C_3  and  C_4
REMARK    4  A    between atoms: C_4  and  C_5
REMARK    5  A    between atoms: C_5  and  C_7
REMARK    6  A    between atoms: C_5  and  C_9
REMARK    7  A    between atoms: C_7  and  C_8
REMARK    8  A    between atoms: N_11  and  C_12
REMARK    9  A    between atoms: N_11  and  C_35
REMARK   10  A    between atoms: C_12  and  C_14
REMARK   11  A    between atoms: C_12  and  C_21
REMARK   12  A    between atoms: C_17  and  C_20
REMARK   13  A    between atoms: N_23  and  C_24
REMARK   14  A    between atoms: C_24  and  S_25
REMARK   15  A    between atoms: S_25  and  C_28
REMARK   16  A    between atoms: C_31  and  C_34
REMARK   17  A    between atoms: C_35  and  C_36
REMARK   18  A    between atoms: C_35  and  C_37
REMARK   19  A    between atoms: C_35  and  C_38
REMARK                            x       y       z     vdW  Elec       q    Type
REMARK                         _______ _______ _______ _____ _____    ______ ____
ROOT
ATOM      1  C   UNL     1      -5.324  -6.162  -0.275  0.00  0.00    +0.193 C 
ENDROOT
BRANCH   1   2
ATOM      2  C   UNL     1      -6.374  -6.229   0.804  0.00  0.00    -0.018 A 
ATOM      3  C   UNL     1      -7.310  -5.219   0.921  0.00  0.00    +0.006 A 
ATOM      4  C   UNL     1      -8.273  -5.281   1.911  0.00  0.00    +0.004 A 
ATOM      5  C   UNL     1      -8.300  -6.353   2.784  0.00  0.00    -0.050 A 
ATOM      6  C   UNL     1      -7.364  -7.363   2.666  0.00  0.00    +0.004 A 
ATOM      7  C   UNL     1      -6.404  -7.304   1.673  0.00  0.00    +0.006 A 
ATOM      8  C   UNL     1      -9.349  -6.420   3.864  0.00  0.00    +0.044 C 
ENDBRANCH   1   2
BRANCH   1   9
ATOM      9  C   UNL     1      -5.855  -6.799  -1.533  0.00  0.00    +0.239 C 
ATOM     10  O   UNL     1      -5.835  -6.185  -2.579  0.00  0.00    -0.273 OA
ATOM     11  N   UNL     1      -6.353  -8.051  -1.496  0.00  0.00    -0.294 N 
ATOM     12  H   UNL     1      -6.369  -8.542  -0.660  0.00  0.00    +0.150 HD
BRANCH  11  13
ATOM     13  C   UNL     1      -6.870  -8.670  -2.719  0.00  0.00    +0.278 C 
BRANCH  13  14
ATOM     14  S   UNL     1      -5.568  -9.675  -3.485  0.00  0.00    +0.013 S 
ATOM     15  O   UNL     1      -6.072 -10.333  -4.639  0.00  0.00    -0.168 OA
ATOM     16  O   UNL     1      -4.353  -8.940  -3.543  0.00  0.00    -0.168 OA
BRANCH  14  17
ATOM     17  C   UNL     1      -5.256 -10.969  -2.329  0.00  0.00    +0.090 A 
ATOM     18  C   UNL     1      -4.304 -10.798  -1.342  0.00  0.00    +0.027 A 
ATOM     19  C   UNL     1      -4.060 -11.813  -0.435  0.00  0.00    +0.005 A 
ATOM     20  C   UNL     1      -4.767 -12.998  -0.517  0.00  0.00    -0.050 A 
ATOM     21  C   UNL     1      -5.720 -13.168  -1.504  0.00  0.00    +0.005 A 
ATOM     22  C   UNL     1      -5.967 -12.151  -2.408  0.00  0.00    +0.027 A 
ATOM     23  C   UNL     1      -4.500 -14.105   0.471  0.00  0.00    +0.044 C 
ENDBRANCH  14  17
ENDBRANCH  13  14
ENDBRANCH  11  13
ENDBRANCH   1   9
BRANCH   1  26
ATOM     24  C   UNL     1      -5.879  -3.958  -1.153  0.00  0.00    +0.220 C 
ATOM     25  O   UNL     1      -6.920  -4.417  -1.573  0.00  0.00    -0.275 OA
ATOM     26  N   UNL     1      -4.987  -4.762  -0.542  0.00  0.00    -0.281 N 
BRANCH  26  27
ATOM     27  C   UNL     1      -3.679  -4.234  -0.144  0.00  0.00    +0.030 C 
ATOM     28  C   UNL     1      -3.860  -3.230   0.996  0.00  0.00    +0.031 C 
ATOM     29  C   UNL     1      -2.787  -5.385   0.327  0.00  0.00    +0.031 C 
ATOM     30  C   UNL     1      -3.025  -3.538  -1.338  0.00  0.00    +0.031 C 
ENDBRANCH  26  27
BRANCH  24  31
ATOM     31  C   UNL     1      -5.584  -2.489  -1.316  0.00  0.00    +0.075 C 
BRANCH  31  32
ATOM     32  C   UNL     1      -6.764  -1.670  -0.789  0.00  0.00    +0.009 C 
ATOM     33  C   UNL     1      -6.850  -1.819   0.731  0.00  0.00    +0.004 C 
ENDBRANCH  31  32
BRANCH  31  34
ATOM     34  C   UNL     1      -5.364  -2.174  -2.797  0.00  0.00    +0.013 C 
BRANCH  34  35
ATOM     35  C   UNL     1      -4.942  -0.711  -2.950  0.00  0.00    +0.000 C 
BRANCH  35  37
ATOM     36  C   UNL     1      -4.301   1.067  -4.583  0.00  0.00    +0.004 C 
ATOM     37  C   UNL     1      -4.723  -0.396  -4.431  0.00  0.00    -0.003 C 
ENDBRANCH  35  37
ENDBRANCH  34  35
ENDBRANCH  31  34
ENDBRANCH  24  31
ENDBRANCH   1  26
TORSDOF 12
