REMARK  Name = ZINC08996773
REMARK  15 active torsions:
REMARK  status: ('A' for Active; 'I' for Inactive)
REMARK    1  A    between atoms: C_1  and  C_2
REMARK    2  A    between atoms: C_2  and  C_3
REMARK    3  A    between atoms: C_2  and  C_4
REMARK    4  A    between atoms: C_7  and  C_10
REMARK    5  A    between atoms: C_13  and  C_14
REMARK    6  A    between atoms: C_13  and  O_24
REMARK    7  A    between atoms: C_17  and  O_20
REMARK    8  A    between atoms: O_20  and  C_21
REMARK    9  A    between atoms: C_21  and  C_22
REMARK   10  A    between atoms: C_21  and  C_23
REMARK   11  A    between atoms: N_29  and  C_30
REMARK   12  A    between atoms: C_30  and  C_31
REMARK   13  A    between atoms: C_31  and  N_67
REMARK   14  A    between atoms: C_32  and  N_67
REMARK   15  A    between atoms: C_33  and  N_67
REMARK                            x       y       z     vdW  Elec       q    Type
REMARK                         _______ _______ _______ _____ _____    ______ ____
ROOT
ATOM      1  C   UNL     1      -5.192   1.778   1.079  0.00  0.00    +0.144 C 
ATOM      2  C   UNL     1      -3.782   2.308   0.951  0.00  0.00    +0.071 C 
ATOM      3  C   UNL     1      -2.620   1.565   0.873  0.00  0.00    +0.133 C 
ATOM      4  C   UNL     1      -3.891   3.706   0.934  0.00  0.00    +0.249 C 
ATOM      5  O   UNL     1      -2.966   4.493   0.846  0.00  0.00    -0.282 OA
ATOM      6  C   UNL     1      -5.332   4.061   1.037  0.00  0.00    +0.288 C 
ATOM      7  O   UNL     1      -5.771   5.193   1.048  0.00  0.00    -0.266 OA
ATOM      8  N   UNL     1      -6.076   2.946   1.124  0.00  0.00    -0.285 N 
ENDROOT
BRANCH   1  12
ATOM      9  C   UNL     1      -6.152  -0.654  -2.299  0.00  0.00    -0.045 A 
ATOM     10  C   UNL     1      -5.806  -1.245  -1.098  0.00  0.00    +0.004 A 
ATOM     11  C   UNL     1      -5.496  -0.458  -0.005  0.00  0.00    +0.006 A 
ATOM     12  C   UNL     1      -5.530   0.920  -0.113  0.00  0.00    -0.022 A 
ATOM     13  C   UNL     1      -5.881   1.511  -1.313  0.00  0.00    +0.006 A 
ATOM     14  C   UNL     1      -6.187   0.724  -2.407  0.00  0.00    +0.004 A 
BRANCH   9  16
ATOM     15  C   UNL     1      -7.920  -1.214  -3.946  0.00  0.00    +0.012 C 
ATOM     16  C   UNL     1      -6.490  -1.512  -3.491  0.00  0.00    +0.013 C 
ATOM     17  C   UNL     1      -5.518  -1.205  -4.632  0.00  0.00    +0.012 C 
ENDBRANCH   9  16
ENDBRANCH   1  12
BRANCH   3  18
ATOM     18  C   UNL     1      -1.338   2.231   0.594  0.00  0.00    +0.017 A 
ATOM     19  C   UNL     1      -1.224   3.107  -0.492  0.00  0.00    +0.015 A 
ATOM     20  C   UNL     1      -0.025   3.732  -0.745  0.00  0.00    +0.046 A 
ATOM     21  C   UNL     1       1.075   3.489   0.071  0.00  0.00    +0.121 A 
ATOM     22  C   UNL     1       0.968   2.616   1.148  0.00  0.00    +0.046 A 
ATOM     23  C   UNL     1      -0.227   1.986   1.410  0.00  0.00    +0.015 A 
BRANCH  21  24
ATOM     24  O   UNL     1       2.256   4.108  -0.183  0.00  0.00    -0.489 OA
BRANCH  24  25
ATOM     25  C   UNL     1       2.332   4.897  -1.372  0.00  0.00    +0.167 C 
ATOM     26  C   UNL     1       1.787   6.298  -1.090  0.00  0.00    +0.051 C 
ATOM     27  C   UNL     1       3.790   4.997  -1.825  0.00  0.00    +0.051 C 
ENDBRANCH  24  25
ENDBRANCH  21  24
ENDBRANCH   3  18
BRANCH   3  28
ATOM     28  O   UNL     1      -2.661   0.227   1.053  0.00  0.00    -0.506 OA
ATOM     29  H   UNL     1      -1.738  -0.149   0.963  0.00  0.00    +0.292 HD
ENDBRANCH   3  28
BRANCH   8  30
ATOM     30  C   UNL     1      -7.536   2.904   1.245  0.00  0.00    +0.090 C 
BRANCH  30  31
ATOM     31  C   UNL     1      -7.926   2.923   2.724  0.00  0.00    -0.060 C 
BRANCH  31  34
ATOM     32  C   UNL     1      -9.796   2.659   4.240  0.00  0.00    -0.097 C 
ATOM     33  C   UNL     1      -9.997   4.105   2.308  0.00  0.00    -0.097 C 
ATOM     34  N   UNL     1      -9.398   2.858   2.830  0.00  0.00    +0.377 N 
ATOM     35  H   UNL     1      -9.739   2.066   2.272  0.00  0.00    -0.083 HD
ENDBRANCH  31  34
ENDBRANCH  30  31
ENDBRANCH   8  30
TORSDOF 9
