REMARK  Name = ZINC60343125
REMARK  12 active torsions:
REMARK  status: ('A' for Active; 'I' for Inactive)
REMARK    1  A    between atoms: C_1  and  C_2
REMARK    2  A    between atoms: C_2  and  C_4
REMARK    3  A    between atoms: C_2  and  N_27
REMARK    4  A    between atoms: N_10  and  C_11
REMARK    5  A    between atoms: C_11  and  C_12
REMARK    6  A    between atoms: C_21  and  S_23
REMARK    7  A    between atoms: S_23  and  N_26
REMARK    8  A    between atoms: C_28  and  O_30
REMARK    9  A    between atoms: O_30  and  C_31
REMARK   10  A    between atoms: C_31  and  C_32
REMARK   11  A    between atoms: C_31  and  C_33
REMARK   12  A    between atoms: C_31  and  C_34
REMARK                            x       y       z     vdW  Elec       q    Type
REMARK                         _______ _______ _______ _____ _____    ______ ____
ROOT
ATOM      1  C   UNL     1       0.718  -0.497  -1.257  0.00  0.00    -0.047 C 
ATOM      2  C   UNL     1       2.188  -0.074  -1.206  0.00  0.00    -0.014 C 
ATOM      3  C   UNL     1       2.900  -0.570  -2.467  0.00  0.00    -0.003 C 
ATOM      4  C   UNL     1       2.179  -0.017  -3.700  0.00  0.00    -0.019 C 
ATOM      5  C   UNL     1       0.710  -0.443  -3.659  0.00  0.00    -0.078 C 
ATOM      6  N   UNL     1       0.079   0.085  -2.443  0.00  0.00    +0.388 N 
ATOM      7  H   UNL     1       0.181   1.088  -2.420  0.00  0.00    -0.081 HD
ENDROOT
BRANCH   1   9
ATOM      8  C   UNL     1      -0.019   1.526   0.010  0.00  0.00    +0.026 C 
ATOM      9  C   UNL     1       0.002  -0.004   0.002  0.00  0.00    +0.060 C 
BRANCH   9  10
ATOM     10  N   UNL     1       0.711  -0.489   1.189  0.00  0.00    -0.280 N 
ATOM     11  C   UNL     1       0.051  -0.633   2.355  0.00  0.00    +0.401 C 
ATOM     12  O   UNL     1      -1.131  -0.361   2.423  0.00  0.00    -0.226 OA
ATOM     13  H   UNL     1       1.654  -0.707   1.135  0.00  0.00    +0.152 HD
BRANCH  11  14
ATOM     14  O   UNL     1       0.702  -1.079   3.446  0.00  0.00    -0.445 OA
BRANCH  14  15
ATOM     15  C   UNL     1      -0.059  -1.208   4.649  0.00  0.00    +0.107 C 
ATOM     16  C   UNL     1      -1.206  -2.195   4.423  0.00  0.00    +0.055 C 
ATOM     17  C   UNL     1       0.844  -1.724   5.771  0.00  0.00    +0.055 C 
ATOM     18  C   UNL     1      -0.629   0.157   5.040  0.00  0.00    +0.055 C 
ENDBRANCH  14  15
ENDBRANCH  11  14
ENDBRANCH   9  10
ENDBRANCH   1   9
BRANCH   6  19
ATOM     19  C   UNL     1      -1.349  -0.259  -2.446  0.00  0.00    +0.020 C 
BRANCH  19  20
ATOM     20  C   UNL     1      -2.031   0.438  -3.595  0.00  0.00    +0.203 C 
ATOM     21  O   UNL     1      -1.391   1.152  -4.337  0.00  0.00    -0.277 OA
ATOM     22  N   UNL     1      -3.353   0.269  -3.796  0.00  0.00    -0.272 N 
ATOM     23  C   UNL     1      -4.231  -0.560  -2.966  0.00  0.00    +0.118 C 
ATOM     24  C   UNL     1      -5.626  -0.428  -3.597  0.00  0.00    +0.056 C 
ATOM     25  C   UNL     1      -5.425   0.497  -4.776  0.00  0.00    -0.023 A 
ATOM     26  C   UNL     1      -4.090   0.864  -4.826  0.00  0.00    +0.040 A 
ATOM     27  C   UNL     1      -3.661   1.727  -5.836  0.00  0.00    +0.026 A 
ATOM     28  C   UNL     1      -4.558   2.208  -6.766  0.00  0.00    +0.030 A 
ATOM     29  C   UNL     1      -5.889   1.839  -6.705  0.00  0.00    +0.105 A 
ATOM     30  C   UNL     1      -6.319   0.978  -5.713  0.00  0.00    +0.034 A 
BRANCH  29  31
ATOM     31  S   UNL     1      -7.032   2.456  -7.896  0.00  0.00    +0.056 S 
ATOM     32  O   UNL     1      -8.318   2.394  -7.295  0.00  0.00    -0.153 OA
ATOM     33  O   UNL     1      -6.483   3.667  -8.396  0.00  0.00    -0.153 OA
BRANCH  31  34
ATOM     34  N   UNL     1      -7.048   1.386  -9.160  0.00  0.00    -0.204 NA
ATOM     35  H   UNL     1      -7.854   1.270  -9.687  0.00  0.00    +0.144 HD
ATOM     36  H   UNL     1      -6.252   0.875  -9.373  0.00  0.00    +0.144 HD
ENDBRANCH  31  34
ENDBRANCH  29  31
ENDBRANCH  19  20
ENDBRANCH   6  19
TORSDOF 8
