REMARK  Name = ZINC13047852
REMARK  12 active torsions:
REMARK  status: ('A' for Active; 'I' for Inactive)
REMARK    1  A    between atoms: C_1  and  C_2
REMARK    2  A    between atoms: C_2  and  C_4
REMARK    3  A    between atoms: C_2  and  S_17
REMARK    4  A    between atoms: N_6  and  C_7
REMARK    5  A    between atoms: C_7  and  C_8
REMARK    6  A    between atoms: S_17  and  C_18
REMARK    7  A    between atoms: C_22  and  C_34
REMARK    8  A    between atoms: N_28  and  C_29
REMARK    9  A    between atoms: C_29  and  C_30
REMARK   10  A    between atoms: C_30  and  C_31
REMARK   11  A    between atoms: C_31  and  O_32
REMARK   12  A    between atoms: O_32  and  C_33
REMARK                            x       y       z     vdW  Elec       q    Type
REMARK                         _______ _______ _______ _____ _____    ______ ____
ROOT
ATOM      1  C   UNL     1      10.615  -3.005  -0.216  0.00  0.00    +0.173 A 
ATOM      2  N   UNL     1      10.107  -2.719  -1.390  0.00  0.00    -0.223 NA
ATOM      3  C   UNL     1      10.727  -3.080  -2.538  0.00  0.00    +0.080 A 
ATOM      4  C   UNL     1      10.185  -2.770  -3.788  0.00  0.00    +0.043 A 
ATOM      5  C   UNL     1      10.854  -3.167  -4.939  0.00  0.00    +0.065 A 
ATOM      6  C   UNL     1      12.061  -3.872  -4.852  0.00  0.00    +0.016 A 
ATOM      7  C   UNL     1      12.599  -4.181  -3.636  0.00  0.00    +0.016 A 
ATOM      8  C   UNL     1      11.945  -3.793  -2.468  0.00  0.00    +0.065 A 
ATOM      9  C   UNL     1      12.490  -4.105  -1.137  0.00  0.00    +0.262 A 
ATOM     10  O   UNL     1      13.535  -4.716  -1.011  0.00  0.00    -0.267 OA
ATOM     11  N   UNL     1      11.786  -3.689  -0.059  0.00  0.00    -0.287 N 
ENDROOT
BRANCH   5  12
ATOM     12  C   UNL     1      10.287  -2.842  -6.267  0.00  0.00    +0.387 C 
ATOM     13  O   UNL     1       9.241  -2.230  -6.348  0.00  0.00    -0.241 OA
ATOM     14  O   UNL     1      10.932  -3.224  -7.386  0.00  0.00    -0.241 OA
ENDBRANCH   5  12
BRANCH   1  15
ATOM     15  S   UNL     1       9.743  -2.489   1.225  0.00  0.00    -0.075 S 
BRANCH  15  17
ATOM     16  C   UNL     1       8.809  -0.436  -0.316  0.00  0.00    +0.029 C 
ATOM     17  C   UNL     1       8.326  -1.665   0.457  0.00  0.00    +0.137 C 
BRANCH  17  18
ATOM     18  C   UNL     1       7.355  -1.236   1.526  0.00  0.00    +0.226 C 
ATOM     19  O   UNL     1       7.746  -1.037   2.657  0.00  0.00    -0.275 OA
ATOM     20  N   UNL     1       6.051  -1.073   1.226  0.00  0.00    -0.310 N 
ATOM     21  H   UNL     1       5.738  -1.231   0.322  0.00  0.00    +0.149 HD
BRANCH  20  22
ATOM     22  C   UNL     1       5.107  -0.655   2.265  0.00  0.00    +0.139 C 
BRANCH  22  23
ATOM     23  C   UNL     1       3.725  -0.548   1.674  0.00  0.00    -0.027 A 
ATOM     24  C   UNL     1       2.885  -1.646   1.677  0.00  0.00    +0.009 A 
ATOM     25  C   UNL     1       1.617  -1.553   1.135  0.00  0.00    +0.050 A 
ATOM     26  C   UNL     1       1.183  -0.356   0.589  0.00  0.00    +0.166 A 
ATOM     27  C   UNL     1       2.028   0.751   0.586  0.00  0.00    +0.167 A 
ATOM     28  C   UNL     1       3.298   0.650   1.131  0.00  0.00    +0.054 A 
ATOM     29  O   UNL     1       1.376   1.797  -0.001  0.00  0.00    -0.453 OA
ATOM     30  C   UNL     1      -0.018   1.436   0.010  0.00  0.00    +0.466 C 
ATOM     31  O   UNL     1       0.002  -0.004   0.002  0.00  0.00    -0.453 OA
ENDBRANCH  22  23
ENDBRANCH  20  22
ENDBRANCH  17  18
ENDBRANCH  15  17
ENDBRANCH   1  15
BRANCH  11  32
ATOM     32  C   UNL     1      12.285  -3.975   1.289  0.00  0.00    +0.129 C 
BRANCH  32  33
ATOM     33  C   UNL     1      11.731  -5.319   1.763  0.00  0.00    +0.050 C 
BRANCH  33  34
ATOM     34  C   UNL     1      12.252  -5.618   3.171  0.00  0.00    +0.161 C 
BRANCH  34  35
ATOM     35  O   UNL     1      11.734  -6.874   3.614  0.00  0.00    -0.383 OA
ATOM     36  C   UNL     1      12.162  -7.249   4.924  0.00  0.00    +0.193 C 
ENDBRANCH  34  35
ENDBRANCH  33  34
ENDBRANCH  32  33
ENDBRANCH  11  32
TORSDOF 10
