REMARK  Name = ZINC00657073
REMARK  11 active torsions:
REMARK  status: ('A' for Active; 'I' for Inactive)
REMARK    1  A    between atoms: C_1  and  C_2
REMARK    2  A    between atoms: C_5  and  C_8
REMARK    3  A    between atoms: C_8  and  N_9
REMARK    4  A    between atoms: C_10  and  C_12
REMARK    5  A    between atoms: C_12  and  N_13
REMARK    6  A    between atoms: N_13  and  C_14
REMARK    7  A    between atoms: N_13  and  S_28
REMARK    8  A    between atoms: C_15  and  C_27
REMARK    9  A    between atoms: N_16  and  C_26
REMARK   10  A    between atoms: N_17  and  C_20
REMARK   11  A    between atoms: S_28  and  C_31
REMARK                            x       y       z     vdW  Elec       q    Type
REMARK                         _______ _______ _______ _____ _____    ______ ____
ROOT
ATOM      1  N   UNL     1      -2.333   1.893   0.379  0.00  0.00    -0.187 N 
ENDROOT
BRANCH   1   2
ATOM      2  C   UNL     1      -0.994   2.335   0.420  0.00  0.00    +0.138 A 
ATOM      3  C   UNL     1      -0.537   3.526  -0.020  0.00  0.00    +0.061 A 
ATOM      4  N   UNL     1       0.820   3.573   0.189  0.00  0.00    -0.282 N 
ATOM      5  N   UNL     1       1.211   2.368   0.787  0.00  0.00    -0.216 N 
ATOM      6  C   UNL     1       0.109   1.605   0.936  0.00  0.00    +0.295 A 
ATOM      7  O   UNL     1       0.068   0.489   1.421  0.00  0.00    -0.264 OA
ATOM      8  C   UNL     1       1.704   4.690  -0.153  0.00  0.00    +0.171 C 
ATOM      9  C   UNL     1      -1.373   4.615  -0.642  0.00  0.00    +0.067 C 
BRANCH   5  10
ATOM     10  C   UNL     1       2.512   2.018   1.161  0.00  0.00    +0.067 A 
ATOM     11  C   UNL     1       3.562   2.184   0.268  0.00  0.00    +0.028 A 
ATOM     12  C   UNL     1       4.847   1.842   0.643  0.00  0.00    +0.002 A 
ATOM     13  C   UNL     1       5.086   1.325   1.902  0.00  0.00    +0.000 A 
ATOM     14  C   UNL     1       4.042   1.153   2.793  0.00  0.00    +0.002 A 
ATOM     15  C   UNL     1       2.756   1.498   2.426  0.00  0.00    +0.028 A 
ENDBRANCH   5  10
ENDBRANCH   1   2
BRANCH   1  16
ATOM     16  S   UNL     1      -2.706   0.339   0.812  0.00  0.00    +0.075 S 
ATOM     17  O   UNL     1      -4.001   0.072   0.291  0.00  0.00    -0.150 OA
ATOM     18  O   UNL     1      -1.574  -0.456   0.487  0.00  0.00    -0.150 OA
BRANCH  16  19
ATOM     19  C   UNL     1      -2.854   0.309   2.568  0.00  0.00    +0.109 A 
ATOM     20  C   UNL     1      -1.748   0.037   3.350  0.00  0.00    +0.029 A 
ATOM     21  C   UNL     1      -1.863   0.019   4.728  0.00  0.00    +0.002 A 
ATOM     22  C   UNL     1      -3.087   0.261   5.322  0.00  0.00    +0.000 A 
ATOM     23  C   UNL     1      -4.195   0.526   4.540  0.00  0.00    +0.002 A 
ATOM     24  C   UNL     1      -4.079   0.551   3.163  0.00  0.00    +0.029 A 
ENDBRANCH  16  19
ENDBRANCH   1  16
BRANCH   1  25
ATOM     25  C   UNL     1      -3.393   2.809  -0.047  0.00  0.00    +0.227 C 
BRANCH  25  27
ATOM     26  N   UNL     1      -4.425   3.550  -2.170  0.00  0.00    -0.310 N 
ATOM     27  C   UNL     1      -3.509   2.781  -1.549  0.00  0.00    +0.232 C 
ATOM     28  O   UNL     1      -2.777   2.065  -2.200  0.00  0.00    -0.274 OA
ATOM     29  H   UNL     1      -5.010   4.122  -1.649  0.00  0.00    +0.149 HD
BRANCH  26  30
ATOM     30  C   UNL     1      -4.537   3.522  -3.630  0.00  0.00    +0.139 C 
BRANCH  30  35
ATOM     31  C   UNL     1      -8.720   7.137  -5.311  0.00  0.00    +0.044 C 
ATOM     32  C   UNL     1      -7.629   6.194  -4.873  0.00  0.00    -0.050 A 
ATOM     33  C   UNL     1      -6.330   6.650  -4.750  0.00  0.00    +0.003 A 
ATOM     34  C   UNL     1      -5.329   5.785  -4.348  0.00  0.00    +0.005 A 
ATOM     35  C   UNL     1      -5.628   4.465  -4.068  0.00  0.00    -0.030 A 
ATOM     36  C   UNL     1      -6.926   4.008  -4.197  0.00  0.00    +0.005 A 
ATOM     37  C   UNL     1      -7.928   4.873  -4.594  0.00  0.00    +0.003 A 
ENDBRANCH  30  35
ENDBRANCH  26  30
ENDBRANCH  25  27
ENDBRANCH   1  25
TORSDOF 8
