REMARK  Name = ZINC21994019
REMARK  11 active torsions:
REMARK  status: ('A' for Active; 'I' for Inactive)
REMARK    1  A    between atoms: C_1  and  N_2
REMARK    2  A    between atoms: N_2  and  C_3
REMARK    3  A    between atoms: N_2  and  C_4
REMARK    4  A    between atoms: C_4  and  C_5
REMARK    5  A    between atoms: C_5  and  C_6
REMARK    6  A    between atoms: C_6  and  N_7
REMARK    7  A    between atoms: C_16  and  S_17
REMARK    8  A    between atoms: S_17  and  C_18
REMARK    9  A    between atoms: C_18  and  C_19
REMARK   10  A    between atoms: N_21  and  C_22
REMARK   11  A    between atoms: C_23  and  C_27
REMARK                            x       y       z     vdW  Elec       q    Type
REMARK                         _______ _______ _______ _____ _____    ______ ____
ROOT
ATOM      1  N   UNL     1       1.885  -7.956  -0.056  0.00  0.00    -0.287 N 
ATOM      2  C   UNL     1       2.701  -9.025  -0.075  0.00  0.00    +0.263 A 
ATOM      3  O   UNL     1       2.240 -10.154  -0.077  0.00  0.00    -0.267 OA
ATOM      4  C   UNL     1       4.117  -8.820  -0.088  0.00  0.00    +0.076 A 
ATOM      5  C   UNL     1       5.179  -9.827  -0.104  0.00  0.00    -0.023 A 
ATOM      6  C   UNL     1       6.450  -9.376  -0.114  0.00  0.00    -0.004 A 
ATOM      7  S   UNL     1       6.311  -7.609  -0.102  0.00  0.00    -0.073 S 
ATOM      8  C   UNL     1       4.541  -7.480  -0.085  0.00  0.00    +0.117 A 
ATOM      9  N   UNL     1       3.682  -6.468  -0.071  0.00  0.00    -0.216 NA
ATOM     10  C   UNL     1       2.382  -6.685  -0.059  0.00  0.00    +0.173 A 
ATOM     11  C   UNL     1       7.704 -10.195  -0.130  0.00  0.00    +0.043 C 
ATOM     12  C   UNL     1       7.343 -11.641   0.238  0.00  0.00    +0.005 C 
ATOM     13  C   UNL     1       6.129 -12.071  -0.590  0.00  0.00    +0.005 C 
ATOM     14  C   UNL     1       4.883 -11.324  -0.111  0.00  0.00    +0.037 C 
ENDROOT
BRANCH   1  15
ATOM     15  C   UNL     1       0.434  -8.159  -0.037  0.00  0.00    +0.125 C 
BRANCH  15  16
ATOM     16  C   UNL     1      -0.090  -8.226  -1.473  0.00  0.00    +0.003 C 
BRANCH  16  17
ATOM     17  C   UNL     1      -1.605  -8.438  -1.454  0.00  0.00    -0.078 C 
BRANCH  17  19
ATOM     18  C   UNL     1      -3.511  -8.939  -2.861  0.00  0.00    -0.097 C 
ATOM     19  N   UNL     1      -2.109  -8.502  -2.832  0.00  0.00    +0.376 N 
ATOM     20  C   UNL     1      -1.946  -7.211  -3.513  0.00  0.00    -0.097 C 
ATOM     21  H   UNL     1      -1.511  -9.249  -3.376  0.00  0.00    -0.083 HD
ENDBRANCH  17  19
ENDBRANCH  16  17
ENDBRANCH  15  16
ENDBRANCH   1  15
BRANCH  10  22
ATOM     22  S   UNL     1       1.273  -5.316  -0.041  0.00  0.00    -0.078 S 
BRANCH  22  23
ATOM     23  C   UNL     1       2.459  -3.950  -0.044  0.00  0.00    +0.173 C 
BRANCH  23  24
ATOM     24  C   UNL     1       1.715  -2.639  -0.029  0.00  0.00    +0.228 C 
ATOM     25  O   UNL     1       0.503  -2.630  -0.018  0.00  0.00    -0.275 OA
ATOM     26  N   UNL     1       2.398  -1.477  -0.029  0.00  0.00    -0.278 N 
ATOM     27  H   UNL     1       3.498  -1.485  -0.040  0.00  0.00    +0.155 HD
BRANCH  26  28
ATOM     28  C   UNL     1       1.713  -0.270  -0.016  0.00  0.00    +0.089 A 
ATOM     29  C   UNL     1       2.234   1.018  -0.014  0.00  0.00    +0.080 A 
ATOM     30  C   UNL     1       1.284   2.103   0.001  0.00  0.00    +0.028 A 
ATOM     31  C   UNL     1      -0.022   1.777   0.012  0.00  0.00    +0.048 A 
ATOM     32  S   UNL     1       0.002  -0.004   0.002  0.00  0.00    -0.081 S 
BRANCH  29  33
ATOM     33  C   UNL     1       3.646   1.256  -0.026  0.00  0.00    +0.102 C 
ATOM     34  N   UNL     1       4.766   1.446  -0.036  0.00  0.00    -0.191 NA
ENDBRANCH  29  33
ENDBRANCH  26  28
ENDBRANCH  23  24
ENDBRANCH  22  23
ENDBRANCH  10  22
TORSDOF 9
