REMARK  Name = ZINC20836722
REMARK  11 active torsions:
REMARK  status: ('A' for Active; 'I' for Inactive)
REMARK    1  A    between atoms: C_1  and  C_2
REMARK    2  A    between atoms: C_5  and  N_9
REMARK    3  A    between atoms: C_6  and  C_8
REMARK    4  A    between atoms: N_9  and  S_10
REMARK    5  A    between atoms: S_10  and  C_13
REMARK    6  A    between atoms: C_16  and  N_19
REMARK    7  A    between atoms: C_20  and  C_22
REMARK    8  A    between atoms: C_22  and  C_23
REMARK    9  A    between atoms: C_23  and  S_24
REMARK   10  A    between atoms: S_24  and  C_25
REMARK   11  A    between atoms: N_31  and  N_32
REMARK                            x       y       z     vdW  Elec       q    Type
REMARK                         _______ _______ _______ _____ _____    ______ ____
ROOT
ATOM      1  N   UNL     1       6.405  -3.283  -0.479  0.00  0.00    -0.285 N 
ATOM      2  C   UNL     1       7.271  -4.068   0.191  0.00  0.00    +0.218 C 
ATOM      3  O   UNL     1       6.879  -5.080   0.733  0.00  0.00    -0.275 OA
ATOM      4  H   UNL     1       6.705  -2.441  -0.855  0.00  0.00    +0.155 HD
ENDROOT
BRANCH   1   8
ATOM      5  C   UNL     1       2.438  -4.473  -0.936  0.00  0.00    +0.109 A 
ATOM      6  C   UNL     1       3.120  -4.775   0.229  0.00  0.00    +0.030 A 
ATOM      7  C   UNL     1       4.435  -4.382   0.383  0.00  0.00    +0.025 A 
ATOM      8  C   UNL     1       5.073  -3.683  -0.633  0.00  0.00    +0.033 A 
ATOM      9  C   UNL     1       4.386  -3.382  -1.802  0.00  0.00    +0.025 A 
ATOM     10  C   UNL     1       3.073  -3.783  -1.952  0.00  0.00    +0.030 A 
BRANCH   5  11
ATOM     11  S   UNL     1       0.761  -4.977  -1.129  0.00  0.00    +0.072 S 
ATOM     12  O   UNL     1       0.183  -4.103  -2.089  0.00  0.00    -0.150 OA
ATOM     13  O   UNL     1       0.230  -5.130   0.180  0.00  0.00    -0.150 OA
BRANCH  11  14
ATOM     14  N   UNL     1       0.778  -6.486  -1.812  0.00  0.00    -0.216 N 
ATOM     15  H   UNL     1       0.350  -6.635  -2.670  0.00  0.00    +0.174 HD
BRANCH  14  20
ATOM     16  C   UNL     1       3.337 -10.781   0.863  0.00  0.00    +0.044 C 
ATOM     17  C   UNL     1       2.657  -9.639   0.152  0.00  0.00    -0.050 A 
ATOM     18  C   UNL     1       1.991  -8.671   0.881  0.00  0.00    +0.005 A 
ATOM     19  C   UNL     1       1.367  -7.624   0.233  0.00  0.00    +0.025 A 
ATOM     20  C   UNL     1       1.409  -7.543  -1.153  0.00  0.00    +0.051 A 
ATOM     21  C   UNL     1       2.079  -8.517  -1.883  0.00  0.00    -0.028 A 
ATOM     22  C   UNL     1       2.706  -9.559  -1.228  0.00  0.00    +0.008 A 
ATOM     23  C   UNL     1       2.126  -8.434  -3.387  0.00  0.00    +0.046 C 
ENDBRANCH  14  20
ENDBRANCH  11  14
ENDBRANCH   5  11
ENDBRANCH   1   8
BRANCH   2  24
ATOM     24  C   UNL     1       8.728  -3.689   0.267  0.00  0.00    +0.107 C 
BRANCH  24  25
ATOM     25  C   UNL     1       9.487  -4.741   1.079  0.00  0.00    +0.086 C 
BRANCH  25  26
ATOM     26  S   UNL     1      11.240  -4.284   1.171  0.00  0.00    -0.086 S 
BRANCH  26  27
ATOM     27  C   UNL     1      11.967  -5.575   2.124  0.00  0.00    +0.190 A 
ATOM     28  N   UNL     1      13.285  -5.673   2.472  0.00  0.00    -0.303 N 
ATOM     29  H   UNL     1      13.984  -5.043   2.238  0.00  0.00    +0.171 HD
ATOM     30  C   UNL     1      13.444  -6.813   3.209  0.00  0.00    +0.235 A 
ATOM     31  N   UNL     1      12.275  -7.396   3.312  0.00  0.00    -0.111 NA
ATOM     32  N   UNL     1      11.338  -6.609   2.630  0.00  0.00    -0.121 NA
ATOM     33  N   UNL     1      14.636  -7.273   3.752  0.00  0.00    -0.205 N 
ATOM     34  H   UNL     1      15.455  -6.770   3.622  0.00  0.00    +0.177 HD
BRANCH  33  35
ATOM     35  N   UNL     1      14.656  -8.464   4.490  0.00  0.00    -0.189 NA
ATOM     36  C   UNL     1      15.755  -8.889   4.991  0.00  0.00    +0.037 C 
ATOM     37  C   UNL     1      17.109  -8.218   4.882  0.00  0.00    +0.052 C 
ATOM     38  C   UNL     1      18.113  -9.113   5.638  0.00  0.00    +0.006 C 
ATOM     39  C   UNL     1      17.440 -10.509   5.630  0.00  0.00    +0.006 C 
ATOM     40  C   UNL     1      15.941 -10.153   5.810  0.00  0.00    +0.052 C 
ENDBRANCH  33  35
ENDBRANCH  26  27
ENDBRANCH  25  26
ENDBRANCH  24  25
ENDBRANCH   2  24
TORSDOF 9
