REMARK  Name = ZINC08909159
REMARK  9 active torsions:
REMARK  status: ('A' for Active; 'I' for Inactive)
REMARK    1  A    between atoms: C_1  and  C_2
REMARK    2  A    between atoms: C_2  and  C_3
REMARK    3  A    between atoms: C_9  and  C_11
REMARK    4  A    between atoms: C_11  and  S_12
REMARK    5  A    between atoms: S_12  and  C_13
REMARK    6  A    between atoms: C_19  and  C_21
REMARK    7  A    between atoms: N_26  and  C_28
REMARK    8  A    between atoms: C_31  and  C_35
REMARK    9  A    between atoms: C_32  and  C_34
REMARK                            x       y       z     vdW  Elec       q    Type
REMARK                         _______ _______ _______ _____ _____    ______ ____
ROOT
ATOM      1  C   UNL     1      -6.766  -0.134  -6.373  0.00  0.00    +0.160 A 
ATOM      2  N   UNL     1      -6.018   0.840  -5.875  0.00  0.00    -0.133 NA
ATOM      3  N   UNL     1      -5.685   0.869  -4.659  0.00  0.00    -0.125 NA
ATOM      4  C   UNL     1      -6.061  -0.070  -3.806  0.00  0.00    +0.189 A 
ATOM      5  S   UNL     1      -7.006  -1.125  -4.902  0.00  0.00    -0.024 S 
ATOM      6  N   UNL     1      -5.793  -0.203  -2.446  0.00  0.00    -0.263 N 
ATOM      7  C   UNL     1      -5.042   0.720  -1.813  0.00  0.00    +0.224 C 
ATOM      8  O   UNL     1      -4.600   1.667  -2.429  0.00  0.00    -0.275 OA
ATOM      9  H   UNL     1      -6.146  -0.961  -1.954  0.00  0.00    +0.157 HD
ENDROOT
BRANCH   7  10
ATOM     10  C   UNL     1      -4.752   0.576  -0.342  0.00  0.00    +0.102 C 
ATOM     11  C   UNL     1      -3.967  -0.725  -0.057  0.00  0.00    +0.110 C 
ATOM     12  C   UNL     1      -2.516  -0.297  -0.084  0.00  0.00    +0.221 C 
ATOM     13  O   UNL     1      -1.571  -1.050  -0.184  0.00  0.00    -0.275 OA
ATOM     14  N   UNL     1      -2.427   1.041   0.019  0.00  0.00    -0.271 N 
ATOM     15  C   UNL     1      -3.755   1.655   0.140  0.00  0.00    +0.127 C 
BRANCH  14  16
ATOM     16  C   UNL     1      -1.224   1.754   0.017  0.00  0.00    +0.037 A 
ATOM     17  C   UNL     1      -1.238   3.143   0.014  0.00  0.00    +0.024 A 
ATOM     18  C   UNL     1      -0.049   3.845   0.007  0.00  0.00    +0.005 A 
ATOM     19  C   UNL     1       1.156   3.166   0.007  0.00  0.00    -0.047 A 
ATOM     20  C   UNL     1       1.174   1.783   0.016  0.00  0.00    -0.046 A 
ATOM     21  C   UNL     1      -0.013   1.076   0.023  0.00  0.00    +0.027 A 
ATOM     22  C   UNL     1       2.489   1.048   0.017  0.00  0.00    +0.044 C 
ATOM     23  C   UNL     1       2.452   3.934  -0.002  0.00  0.00    +0.044 C 
ENDBRANCH  14  16
ENDBRANCH   7  10
BRANCH   1  24
ATOM     24  S   UNL     1      -7.351  -0.385  -8.016  0.00  0.00    -0.088 S 
BRANCH  24  25
ATOM     25  C   UNL     1      -6.690   1.030  -8.939  0.00  0.00    +0.172 C 
BRANCH  25  32
ATOM     26  C   UNL     1      -7.714   1.947 -15.155  0.00  0.00    +0.103 A 
ATOM     27  N   UNL     1      -8.159   0.948 -14.419  0.00  0.00    -0.145 NA
ATOM     28  N   UNL     1      -7.883   0.882 -13.189  0.00  0.00    -0.126 NA
ATOM     29  C   UNL     1      -7.144   1.800 -12.588  0.00  0.00    +0.188 A 
ATOM     30  S   UNL     1      -6.814   2.873 -13.916  0.00  0.00    -0.035 S 
ATOM     31  N   UNL     1      -6.746   1.886 -11.259  0.00  0.00    -0.263 N 
ATOM     32  C   UNL     1      -7.122   0.937 -10.379  0.00  0.00    +0.229 C 
ATOM     33  O   UNL     1      -7.808   0.007 -10.748  0.00  0.00    -0.275 OA
ATOM     34  H   UNL     1      -6.197   2.630 -10.964  0.00  0.00    +0.157 HD
BRANCH  26  36
ATOM     35  C   UNL     1      -9.169   3.084 -16.809  0.00  0.00    +0.011 C 
ATOM     36  C   UNL     1      -7.913   2.232 -16.621  0.00  0.00    +0.061 C 
ENDBRANCH  26  36
ENDBRANCH  25  32
ENDBRANCH  24  25
ENDBRANCH   1  24
TORSDOF 6
