REMARK  Name = ZINC27376306
REMARK  9 active torsions:
REMARK  status: ('A' for Active; 'I' for Inactive)
REMARK    1  A    between atoms: C_3  and  S_28
REMARK    2  A    between atoms: C_6  and  C_7
REMARK    3  A    between atoms: C_7  and  C_8
REMARK    4  A    between atoms: C_8  and  N_9
REMARK    5  A    between atoms: C_10  and  C_12
REMARK    6  A    between atoms: C_12  and  N_13
REMARK    7  A    between atoms: N_16  and  C_19
REMARK    8  A    between atoms: C_19  and  C_20
REMARK    9  A    between atoms: S_28  and  N_31
REMARK                            x       y       z     vdW  Elec       q    Type
REMARK                         _______ _______ _______ _____ _____    ______ ____
ROOT
ATOM      1  N   UNL     1      -0.067   1.120  -2.437  0.00  0.00    -0.317 N 
ATOM      2  C   UNL     1      -0.543   1.446  -3.655  0.00  0.00    +0.196 C 
ATOM      3  O   UNL     1      -1.540   2.130  -3.753  0.00  0.00    -0.278 OA
ATOM      4  H   UNL     1       0.837   0.499  -2.348  0.00  0.00    +0.149 HD
ENDROOT
BRANCH   1   5
ATOM      5  C   UNL     1      -0.753   1.593  -1.232  0.00  0.00    +0.109 C 
BRANCH   5   6
ATOM      6  C   UNL     1      -0.013   1.086   0.008  0.00  0.00    +0.054 C 
BRANCH   6  12
ATOM      7  C   UNL     1      -0.360   2.779   1.819  0.00  0.00    +0.005 A 
ATOM      8  C   UNL     1      -1.010   3.227   2.953  0.00  0.00    +0.029 A 
ATOM      9  C   UNL     1      -2.012   2.463   3.523  0.00  0.00    +0.105 A 
ATOM     10  C   UNL     1      -2.366   1.254   2.955  0.00  0.00    +0.029 A 
ATOM     11  C   UNL     1      -1.719   0.808   1.818  0.00  0.00    +0.005 A 
ATOM     12  C   UNL     1      -0.718   1.572   1.248  0.00  0.00    -0.046 A 
BRANCH   9  13
ATOM     13  S   UNL     1      -2.837   3.032   4.972  0.00  0.00    +0.056 S 
ATOM     14  O   UNL     1      -2.695   4.446   4.992  0.00  0.00    -0.153 OA
ATOM     15  O   UNL     1      -4.107   2.394   4.993  0.00  0.00    -0.153 OA
BRANCH  13  16
ATOM     16  N   UNL     1      -1.995   2.453   6.274  0.00  0.00    -0.204 NA
ATOM     17  H   UNL     1      -2.480   2.788   7.203  0.00  0.00    +0.144 HD
ATOM     18  H   UNL     1      -0.963   2.834   6.242  0.00  0.00    +0.144 HD
ENDBRANCH  13  16
ENDBRANCH   9  13
ENDBRANCH   6  12
ENDBRANCH   5   6
ENDBRANCH   1   5
BRANCH   2  19
ATOM     19  C   UNL     1       0.162   0.960  -4.895  0.00  0.00    +0.019 C 
BRANCH  19  20
ATOM     20  N   UNL     1      -0.549   1.447  -6.085  0.00  0.00    +0.387 N 
ATOM     21  C   UNL     1      -1.884   0.841  -6.186  0.00  0.00    -0.063 C 
ATOM     22  C   UNL     1      -2.619   1.432  -7.391  0.00  0.00    +0.066 C 
ATOM     23  N   UNL     1      -1.837   1.182  -8.609  0.00  0.00    -0.298 NA
ATOM     24  C   UNL     1      -0.502   1.788  -8.508  0.00  0.00    +0.066 C 
ATOM     25  C   UNL     1       0.233   1.197  -7.304  0.00  0.00    -0.063 C 
ATOM     26  H   UNL     1      -0.676   2.534  -5.979  0.00  0.00    -0.081 HD
BRANCH  23  27
ATOM     27  C   UNL     1      -2.548   1.669  -9.800  0.00  0.00    +0.180 C 
BRANCH  27  28
ATOM     28  C   UNL     1      -3.798   0.853 -10.007  0.00  0.00    +0.230 C 
ATOM     29  O   UNL     1      -4.071  -0.045  -9.238  0.00  0.00    -0.274 OA
ATOM     30  N   UNL     1      -4.614   1.122 -11.045  0.00  0.00    -0.300 N 
ATOM     31  C   UNL     1      -4.300   2.211 -11.981  0.00  0.00    +0.108 C 
ATOM     32  C   UNL     1      -4.307   1.645 -13.409  0.00  0.00    +0.019 C 
ATOM     33  C   UNL     1      -5.649   0.957 -13.672  0.00  0.00    +0.003 C 
ATOM     34  C   UNL     1      -5.829  -0.205 -12.693  0.00  0.00    +0.019 C 
ATOM     35  C   UNL     1      -5.836   0.336 -11.260  0.00  0.00    +0.108 C 
ENDBRANCH  27  28
ENDBRANCH  23  27
ENDBRANCH  19  20
ENDBRANCH   2  19
TORSDOF 9
