REMARK  Name = ZINC12698019
REMARK  4 active torsions:
REMARK  status: ('A' for Active; 'I' for Inactive)
REMARK    1  A    between atoms: C_1  and  C_2
REMARK    2  A    between atoms: C_5  and  C_7
REMARK    3  A    between atoms: N_9  and  N_10
REMARK    4  A    between atoms: C_11  and  C_13
REMARK                            x       y       z     vdW  Elec       q    Type
REMARK                         _______ _______ _______ _____ _____    ______ ____
ROOT
ATOM      1  N   UNL     1       2.511   0.399   4.280  0.00  0.00    -0.230 N 
ATOM      2  C   UNL     1       3.138  -0.168   5.330  0.00  0.00    +0.267 C 
ATOM      3  O   UNL     1       3.208  -1.380   5.415  0.00  0.00    -0.268 OA
ATOM      4  H   UNL     1       2.455   1.365   4.213  0.00  0.00    +0.173 HD
ENDROOT
BRANCH   2   5
ATOM      5  C   UNL     1       3.735   0.675   6.370  0.00  0.00    +0.076 A 
ATOM      6  C   UNL     1       4.417   0.304   7.508  0.00  0.00    +0.024 A 
ATOM      7  C   UNL     1       4.860   1.331   8.346  0.00  0.00    -0.036 A 
ATOM      8  C   UNL     1       4.545   2.590   7.987  0.00  0.00    -0.006 A 
ATOM      9  S   UNL     1       3.779   2.450   6.493  0.00  0.00    -0.088 S 
ATOM     10  C   UNL     1       4.696   3.917   8.688  0.00  0.00    +0.043 C 
ATOM     11  C   UNL     1       5.314   3.773  10.079  0.00  0.00    +0.005 C 
ATOM     12  C   UNL     1       6.823   3.615   9.989  0.00  0.00    +0.000 C 
ATOM     13  C   UNL     1       7.258   2.769   8.809  0.00  0.00    +0.000 C 
ATOM     14  C   UNL     1       7.166   1.306   9.254  0.00  0.00    +0.005 C 
ATOM     15  C   UNL     1       5.706   0.972   9.560  0.00  0.00    +0.036 C 
ENDBRANCH   2   5
BRANCH   1  18
ATOM     16  C   UNL     1       1.314   0.159   2.237  0.00  0.00    +0.232 C 
ATOM     17  O   UNL     1       1.244   1.367   2.152  0.00  0.00    -0.274 OA
ATOM     18  N   UNL     1       1.940  -0.407   3.287  0.00  0.00    -0.234 N 
ATOM     19  H   UNL     1       1.996  -1.373   3.354  0.00  0.00    +0.173 HD
BRANCH  16  23
ATOM     20  C   UNL     1      -0.019   1.526   0.010  0.00  0.00    +0.008 C 
ATOM     21  C   UNL     1       0.002  -0.004   0.002  0.00  0.00    -0.001 C 
ATOM     22  C   UNL     1      -0.828  -0.728   1.065  0.00  0.00    +0.017 C 
ATOM     23  C   UNL     1       0.700  -0.708   1.168  0.00  0.00    +0.080 C 
ENDBRANCH  16  23
ENDBRANCH   1  18
TORSDOF 3
