REMARK  Name = ZINC39012043
REMARK  8 active torsions:
REMARK  status: ('A' for Active; 'I' for Inactive)
REMARK    1  A    between atoms: C_1  and  C_2
REMARK    2  A    between atoms: C_4  and  C_8
REMARK    3  A    between atoms: C_12  and  S_16
REMARK    4  A    between atoms: N_14  and  N_15
REMARK    5  A    between atoms: S_16  and  C_17
REMARK    6  A    between atoms: C_17  and  C_18
REMARK    7  A    between atoms: N_20  and  C_21
REMARK    8  A    between atoms: C_26  and  C_27
REMARK                            x       y       z     vdW  Elec       q    Type
REMARK                         _______ _______ _______ _____ _____    ______ ____
ROOT
ATOM      1  C   UNL     1       2.694  -4.436   2.017  0.00  0.00    +0.168 C 
ENDROOT
BRANCH   1   2
ATOM      2  C   UNL     1       4.039  -5.109   2.104  0.00  0.00    +0.227 C 
ATOM      3  O   UNL     1       4.158  -6.151   2.713  0.00  0.00    -0.275 OA
ATOM      4  N   UNL     1       5.111  -4.552   1.506  0.00  0.00    -0.284 N 
ATOM      5  H   UNL     1       5.002  -3.762   0.953  0.00  0.00    +0.155 HD
BRANCH   4   6
ATOM      6  C   UNL     1       6.381  -5.113   1.682  0.00  0.00    +0.045 A 
ATOM      7  C   UNL     1       6.655  -5.872   2.813  0.00  0.00    +0.025 A 
ATOM      8  C   UNL     1       7.909  -6.425   2.985  0.00  0.00    +0.022 A 
ATOM      9  C   UNL     1       8.892  -6.223   2.031  0.00  0.00    +0.042 A 
ATOM     10  C   UNL     1       8.621  -5.467   0.904  0.00  0.00    +0.034 A 
ATOM     11  C   UNL     1       7.367  -4.917   0.725  0.00  0.00    +0.077 A 
ATOM     12 CL   UNL     1      10.468  -6.918   2.251  0.00  0.00    -0.084 Cl
BRANCH  11  13
ATOM     13  C   UNL     1       7.071  -4.100  -0.506  0.00  0.00    +0.419 C 
ATOM     14  F   UNL     1       8.211  -4.046  -1.315  0.00  0.00    -0.166 F 
ATOM     15  F   UNL     1       6.022  -4.692  -1.218  0.00  0.00    -0.166 F 
ATOM     16  F   UNL     1       6.705  -2.804  -0.128  0.00  0.00    -0.166 F 
ENDBRANCH  11  13
ENDBRANCH   4   6
ENDBRANCH   1   2
BRANCH   1  17
ATOM     17  S   UNL     1       1.465  -5.422   2.916  0.00  0.00    -0.107 S 
BRANCH  17  21
ATOM     18  C   UNL     1      -0.958  -2.923   1.285  0.00  0.00    +0.244 C 
ATOM     19  N   UNL     1      -0.400  -2.289   2.487  0.00  0.00    -0.167 NA
ATOM     20  N   UNL     1       0.073  -3.131   3.257  0.00  0.00    -0.159 NA
ATOM     21  C   UNL     1      -0.078  -4.489   2.717  0.00  0.00    +0.272 C 
ATOM     22  N   UNL     1      -0.387  -4.293   1.277  0.00  0.00    -0.183 NA
BRANCH  18  26
ATOM     23  C   UNL     1       0.001   1.532   0.064  0.00  0.00    +0.067 C 
ATOM     24  C   UNL     1       0.015   0.025   0.048  0.00  0.00    +0.058 C 
ATOM     25  C   UNL     1      -1.077  -0.743   0.051  0.00  0.00    +0.029 C 
ATOM     26  C   UNL     1      -0.528  -2.158   0.032  0.00  0.00    +0.195 C 
ATOM     27  N   UNL     1       0.930  -1.948   0.020  0.00  0.00    -0.176 NA
ATOM     28  N   UNL     1       1.134  -0.732   0.024  0.00  0.00    -0.159 NA
ENDBRANCH  18  26
BRANCH  22  29
ATOM     29  N   UNL     1      -1.366  -5.263   0.815  0.00  0.00    -0.263 NA
ATOM     30  H   UNL     1      -0.978  -6.194   0.809  0.00  0.00    +0.137 HD
ATOM     31  H   UNL     1      -2.205  -5.225   1.375  0.00  0.00    +0.137 HD
ENDBRANCH  22  29
ENDBRANCH  17  21
ENDBRANCH   1  17
TORSDOF 7
