REMARK  Name = ZINC39664073
REMARK  8 active torsions:
REMARK  status: ('A' for Active; 'I' for Inactive)
REMARK    1  A    between atoms: C_1  and  O_2
REMARK    2  A    between atoms: O_2  and  C_3
REMARK    3  A    between atoms: C_6  and  C_9
REMARK    4  A    between atoms: C_9  and  C_11
REMARK    5  A    between atoms: C_9  and  N_32
REMARK    6  A    between atoms: C_11  and  N_12
REMARK    7  A    between atoms: C_13  and  C_15
REMARK    8  A    between atoms: C_26  and  C_28
REMARK                            x       y       z     vdW  Elec       q    Type
REMARK                         _______ _______ _______ _____ _____    ______ ____
ROOT
ATOM      1  N   UNL     1      -5.907  -4.960  -2.303  0.00  0.00    -0.316 N 
ATOM      2  C   UNL     1      -7.106  -4.346  -2.354  0.00  0.00    +0.218 C 
ATOM      3  O   UNL     1      -7.170  -3.135  -2.322  0.00  0.00    -0.275 OA
ATOM      4  H   UNL     1      -5.857  -5.928  -2.328  0.00  0.00    +0.149 HD
ENDROOT
BRANCH   2   5
ATOM      5  C   UNL     1      -8.368  -5.164  -2.451  0.00  0.00    +0.100 C 
ATOM      6  C   UNL     1      -9.546  -4.417  -1.787  0.00  0.00    +0.121 C 
ATOM      7  N   UNL     1     -10.217  -3.708  -2.902  0.00  0.00    -0.300 N 
ATOM      8  C   UNL     1     -10.174  -4.670  -4.029  0.00  0.00    +0.115 C 
ATOM      9  C   UNL     1      -8.786  -5.331  -3.922  0.00  0.00    -0.004 C 
ATOM     10  C   UNL     1      -8.877  -6.811  -4.281  0.00  0.00    -0.010 C 
ATOM     11  C   UNL     1      -9.236  -6.952  -5.763  0.00  0.00    -0.082 C 
ATOM     12  N   UNL     1      -8.212  -6.291  -6.581  0.00  0.00    +0.379 N 
ATOM     13  C   UNL     1      -8.196  -4.851  -6.297  0.00  0.00    -0.082 C 
ATOM     14  C   UNL     1      -7.792  -4.622  -4.837  0.00  0.00    -0.010 C 
ATOM     15  C   UNL     1     -10.746  -2.469  -2.893  0.00  0.00    +0.219 C 
ATOM     16  O   UNL     1     -11.266  -2.024  -3.894  0.00  0.00    -0.275 OA
ATOM     17  H   UNL     1      -7.308  -6.685  -6.369  0.00  0.00    -0.086 HD
ATOM     18  H   UNL     1      -8.419  -6.437  -7.558  0.00  0.00    -0.086 HD
BRANCH  15  19
ATOM     19  C   UNL     1     -10.691  -1.635  -1.639  0.00  0.00    +0.075 C 
ATOM     20  C   UNL     1     -11.811  -1.958  -0.635  0.00  0.00    +0.013 C 
ATOM     21  C   UNL     1     -11.911  -0.445  -0.379  0.00  0.00    +0.001 C 
ATOM     22  C   UNL     1     -11.338  -0.248  -1.792  0.00  0.00    +0.013 C 
ENDBRANCH  15  19
ENDBRANCH   2   5
BRANCH   1  23
ATOM     23  C   UNL     1      -4.681  -4.165  -2.208  0.00  0.00    +0.093 C 
BRANCH  23  24
ATOM     24  C   UNL     1      -3.480  -5.097  -2.035  0.00  0.00    -0.020 C 
BRANCH  24  28
ATOM     25  C   UNL     1      -3.778  -7.121   1.717  0.00  0.00    +0.120 A 
ATOM     26  C   UNL     1      -4.155  -7.766   0.548  0.00  0.00    +0.046 A 
ATOM     27  C   UNL     1      -4.058  -7.109  -0.663  0.00  0.00    +0.005 A 
ATOM     28  C   UNL     1      -3.586  -5.811  -0.712  0.00  0.00    -0.059 A 
ATOM     29  C   UNL     1      -3.209  -5.166   0.452  0.00  0.00    +0.005 A 
ATOM     30  C   UNL     1      -3.310  -5.816   1.667  0.00  0.00    +0.046 A 
BRANCH  25  32
ATOM     31  C   UNL     1      -4.364  -9.107   2.886  0.00  0.00    +0.277 C 
ATOM     32  O   UNL     1      -3.873  -7.765   2.910  0.00  0.00    -0.495 OA
ENDBRANCH  25  32
ENDBRANCH  24  28
BRANCH  24  33
ATOM     33  N   UNL     1      -2.240  -4.311  -2.070  0.00  0.00    +0.385 N 
ATOM     34  C   UNL     1      -1.063  -5.202  -1.908  0.00  0.00    -0.078 C 
ATOM     35  C   UNL     1       0.096  -4.373  -2.514  0.00  0.00    -0.020 C 
ATOM     36  C   UNL     1      -0.575  -3.667  -3.715  0.00  0.00    -0.020 C 
ATOM     37  C   UNL     1      -2.081  -3.669  -3.392  0.00  0.00    -0.078 C 
ATOM     38  H   UNL     1      -2.251  -3.611  -1.342  0.00  0.00    -0.081 HD
ENDBRANCH  24  33
ENDBRANCH  23  24
ENDBRANCH   1  23
TORSDOF 7
