REMARK  Name = ZINC03230829
REMARK  7 active torsions:
REMARK  status: ('A' for Active; 'I' for Inactive)
REMARK    1  A    between atoms: C_1  and  O_2
REMARK    2  A    between atoms: O_2  and  C_3
REMARK    3  A    between atoms: C_6  and  C_9
REMARK    4  A    between atoms: C_9  and  C_30
REMARK    5  A    between atoms: C_10  and  C_28
REMARK    6  A    between atoms: N_12  and  C_25
REMARK    7  A    between atoms: C_25  and  C_26
REMARK                            x       y       z     vdW  Elec       q    Type
REMARK                         _______ _______ _______ _____ _____    ______ ____
ROOT
ATOM      1  C   UNL     1      -1.546   6.613   1.623  0.00  0.00    +0.195 C 
ATOM      2  C   UNL     1      -1.434   7.279   0.267  0.00  0.00    +0.104 C 
ATOM      3  C   UNL     1      -2.299   8.320  -0.008  0.00  0.00    +0.141 C 
ATOM      4  N   UNL     1      -2.449   9.113  -1.117  0.00  0.00    -0.254 N 
ATOM      5  C   UNL     1      -3.464  10.005  -0.865  0.00  0.00    +0.208 C 
ATOM      6  N   UNL     1      -3.933   9.796   0.329  0.00  0.00    -0.138 NA
ATOM      7  N   UNL     1      -3.222   8.732   0.914  0.00  0.00    -0.126 N 
ATOM      8  C   UNL     1      -3.345   8.162   2.124  0.00  0.00    +0.329 C 
ATOM      9  O   UNL     1      -4.192   8.591   2.883  0.00  0.00    -0.250 OA
ATOM     10  N   UNL     1      -2.576   7.139   2.535  0.00  0.00    -0.276 N 
ATOM     11  N   UNL     1      -3.916  10.974  -1.745  0.00  0.00    -0.297 N 
ATOM     12  C   UNL     1      -5.351  11.279  -1.864  0.00  0.00    +0.136 C 
ATOM     13  C   UNL     1      -5.529  12.800  -1.736  0.00  0.00    +0.179 C 
ATOM     14  O   UNL     1      -4.663  13.453  -2.667  0.00  0.00    -0.377 OA
ATOM     15  C   UNL     1      -3.272  13.220  -2.434  0.00  0.00    +0.179 C 
ATOM     16  C   UNL     1      -2.977  11.724  -2.593  0.00  0.00    +0.136 C 
ATOM     17  H   UNL     1      -2.697   6.755   3.417  0.00  0.00    +0.152 HD
ENDROOT
BRANCH   1  21
ATOM     18  C   UNL     1      -2.338   2.460   0.995  0.00  0.00    +0.120 A 
ATOM     19  C   UNL     1      -3.230   3.236   1.722  0.00  0.00    +0.046 A 
ATOM     20  C   UNL     1      -2.969   4.576   1.929  0.00  0.00    +0.010 A 
ATOM     21  C   UNL     1      -1.826   5.148   1.402  0.00  0.00    -0.010 A 
ATOM     22  C   UNL     1      -0.938   4.379   0.672  0.00  0.00    +0.010 A 
ATOM     23  C   UNL     1      -1.191   3.037   0.468  0.00  0.00    +0.046 A 
BRANCH  18  25
ATOM     24  C   UNL     1      -3.789   0.614   1.367  0.00  0.00    +0.277 C 
ATOM     25  O   UNL     1      -2.590   1.140   0.795  0.00  0.00    -0.495 OA
ENDBRANCH  18  25
ENDBRANCH   1  21
BRANCH   1  26
ATOM     26  C   UNL     1      -0.191   6.731   2.323  0.00  0.00    +0.420 C 
ATOM     27  F   UNL     1       0.802   6.165   1.516  0.00  0.00    -0.168 F 
ATOM     28  F   UNL     1       0.102   8.081   2.546  0.00  0.00    -0.168 F 
ATOM     29  F   UNL     1      -0.237   6.056   3.547  0.00  0.00    -0.168 F 
ENDBRANCH   1  26
BRANCH   2  30
ATOM     30  C   UNL     1      -0.466   6.844  -0.696  0.00  0.00    +0.101 C 
ATOM     31  N   UNL     1       0.301   6.500  -1.459  0.00  0.00    -0.191 NA
ENDBRANCH   2  30
BRANCH   4  32
ATOM     32  C   UNL     1      -1.666   9.025  -2.352  0.00  0.00    +0.141 C 
BRANCH  32  33
ATOM     33  C   UNL     1      -2.269   7.979  -3.255  0.00  0.00    -0.015 C 
ATOM     34  C   UNL     1      -2.611   8.291  -4.481  0.00  0.00    +0.005 C 
ENDBRANCH  32  33
ENDBRANCH   4  32
TORSDOF 6
