REMARK  Name = ZINC41022810
REMARK  14 active torsions:
REMARK  status: ('A' for Active; 'I' for Inactive)
REMARK    1  A    between atoms: C_1  and  C_2
REMARK    2  A    between atoms: C_2  and  C_3
REMARK    3  A    between atoms: C_3  and  C_4
REMARK    4  A    between atoms: C_4  and  O_5
REMARK    5  A    between atoms: O_5  and  C_6
REMARK    6  A    between atoms: C_9  and  C_12
REMARK    7  A    between atoms: C_14  and  C_26
REMARK    8  A    between atoms: C_15  and  C_25
REMARK    9  A    between atoms: C_20  and  S_22
REMARK   10  A    between atoms: S_22  and  C_23
REMARK   11  A    between atoms: C_23  and  C_24
REMARK   12  A    between atoms: N_28  and  C_29
REMARK   13  A    between atoms: C_33  and  C_36
REMARK   14  A    between atoms: C_34  and  C_35
REMARK                            x       y       z     vdW  Elec       q    Type
REMARK                         _______ _______ _______ _____ _____    ______ ____
ROOT
ATOM      1  C   UNL     1       1.789  -8.145  -3.038  0.00  0.00    +0.177 C 
ATOM      2  C   UNL     1       3.255  -8.482  -3.098  0.00  0.00    +0.060 C 
ATOM      3  C   UNL     1       3.875  -8.852  -4.228  0.00  0.00    +0.018 C 
ATOM      4  N   UNL     1       3.210  -8.964  -5.425  0.00  0.00    -0.287 N 
ATOM      5  C   UNL     1       1.822  -8.939  -5.389  0.00  0.00    +0.219 A 
ATOM      6  N   UNL     1       1.142  -8.563  -4.279  0.00  0.00    -0.220 N 
ATOM      7  N   UNL     1      -0.214  -8.662  -4.588  0.00  0.00    -0.141 NA
ATOM      8  C   UNL     1      -0.288  -9.075  -5.835  0.00  0.00    +0.210 A 
ATOM      9  N   UNL     1       0.953  -9.241  -6.315  0.00  0.00    -0.187 NA
ATOM     10  C   UNL     1       5.350  -9.156  -4.184  0.00  0.00    +0.061 C 
ATOM     11  H   UNL     1       3.691  -9.056  -6.262  0.00  0.00    +0.155 HD
ENDROOT
BRANCH   1  15
ATOM     12  C   UNL     1       1.317  -3.928  -2.534  0.00  0.00    +0.121 A 
ATOM     13  C   UNL     1       0.812  -4.802  -1.583  0.00  0.00    +0.046 A 
ATOM     14  C   UNL     1       0.965  -6.165  -1.748  0.00  0.00    +0.009 A 
ATOM     15  C   UNL     1       1.622  -6.658  -2.860  0.00  0.00    -0.018 A 
ATOM     16  C   UNL     1       2.127  -5.789  -3.810  0.00  0.00    +0.009 A 
ATOM     17  C   UNL     1       1.971  -4.425  -3.652  0.00  0.00    +0.046 A 
BRANCH  12  18
ATOM     18  O   UNL     1       1.167  -2.587  -2.374  0.00  0.00    -0.492 OA
BRANCH  18  19
ATOM     19  C   UNL     1       0.484  -2.146  -1.200  0.00  0.00    +0.229 C 
BRANCH  19  20
ATOM     20  C   UNL     1       0.413  -0.617  -1.194  0.00  0.00    +0.041 C 
BRANCH  20  22
ATOM     21  C   UNL     1      -0.391   1.383   0.070  0.00  0.00    +0.004 C 
ATOM     22  C   UNL     1      -0.319  -0.145   0.064  0.00  0.00    -0.000 C 
ENDBRANCH  20  22
ENDBRANCH  19  20
ENDBRANCH  18  19
ENDBRANCH  12  18
ENDBRANCH   1  15
BRANCH   2  23
ATOM     23  C   UNL     1       4.014  -8.405  -1.907  0.00  0.00    +0.248 C 
ATOM     24  O   UNL     1       3.908  -9.274  -1.060  0.00  0.00    -0.270 OA
ATOM     25  N   UNL     1       4.854  -7.370  -1.709  0.00  0.00    -0.281 N 
ATOM     26  H   UNL     1       4.893  -6.647  -2.354  0.00  0.00    +0.155 HD
BRANCH  25  27
ATOM     27  C   UNL     1       5.670  -7.339  -0.574  0.00  0.00    +0.037 A 
ATOM     28  C   UNL     1       5.209  -7.858   0.629  0.00  0.00    +0.023 A 
ATOM     29  C   UNL     1       6.018  -7.826   1.748  0.00  0.00    +0.002 A 
ATOM     30  C   UNL     1       7.285  -7.277   1.672  0.00  0.00    +0.004 A 
ATOM     31  C   UNL     1       7.747  -6.760   0.476  0.00  0.00    -0.046 A 
ATOM     32  C   UNL     1       6.946  -6.795  -0.649  0.00  0.00    -0.026 A 
ATOM     33  C   UNL     1       7.452  -6.236  -1.954  0.00  0.00    +0.046 C 
ATOM     34  C   UNL     1       9.129  -6.163   0.397  0.00  0.00    +0.044 C 
ENDBRANCH  25  27
ENDBRANCH   2  23
BRANCH   8  35
ATOM     35  S   UNL     1      -1.779  -9.366  -6.729  0.00  0.00    -0.085 S 
BRANCH  35  36
ATOM     36  C   UNL     1      -1.211  -9.911  -8.363  0.00  0.00    +0.074 C 
ATOM     37  C   UNL     1      -2.421 -10.201  -9.253  0.00  0.00    +0.016 C 
ENDBRANCH  35  36
ENDBRANCH   8  35
TORSDOF 9
