REMARK  Name = ZINC59333973
REMARK  9 active torsions:
REMARK  status: ('A' for Active; 'I' for Inactive)
REMARK    1  A    between atoms: C_1  and  C_2
REMARK    2  A    between atoms: C_2  and  C_4
REMARK    3  A    between atoms: C_2  and  N_11
REMARK    4  A    between atoms: N_11  and  C_12
REMARK    5  A    between atoms: N_11  and  C_31
REMARK    6  A    between atoms: C_12  and  C_13
REMARK    7  A    between atoms: N_15  and  C_16
REMARK    8  A    between atoms: C_20  and  S_22
REMARK    9  A    between atoms: S_22  and  N_25
REMARK                            x       y       z     vdW  Elec       q    Type
REMARK                         _______ _______ _______ _____ _____    ______ ____
ROOT
ATOM      1  C   UNL     1      -3.273   0.226  -1.510  0.00  0.00    +0.201 C 
ATOM      2  O   UNL     1      -3.904  -0.356  -0.653  0.00  0.00    -0.278 OA
ATOM      3  N   UNL     1      -3.911   0.761  -2.570  0.00  0.00    -0.287 N 
ATOM      4  H   UNL     1      -3.401   1.159  -3.292  0.00  0.00    +0.155 HD
ENDROOT
BRANCH   3   5
ATOM      5  C   UNL     1      -5.309   0.741  -2.628  0.00  0.00    +0.035 A 
ATOM      6  C   UNL     1      -6.056   0.874  -1.465  0.00  0.00    +0.023 A 
ATOM      7  C   UNL     1      -7.435   0.854  -1.526  0.00  0.00    +0.004 A 
ATOM      8  C   UNL     1      -8.073   0.701  -2.744  0.00  0.00    +0.029 A 
ATOM      9  C   UNL     1      -7.332   0.568  -3.904  0.00  0.00    +0.114 A 
ATOM     10  C   UNL     1      -5.952   0.594  -3.850  0.00  0.00    +0.052 A 
BRANCH   9  11
ATOM     11  S   UNL     1      -8.149   0.372  -5.453  0.00  0.00    +0.100 S 
ATOM     12  O   UNL     1      -7.229  -0.278  -6.318  0.00  0.00    -0.146 OA
ATOM     13  O   UNL     1      -9.435  -0.160  -5.169  0.00  0.00    -0.146 OA
BRANCH  11  14
ATOM     14  N   UNL     1      -8.391   1.889  -6.073  0.00  0.00    -0.118 NA
ATOM     15  C   UNL     1      -8.978   2.034  -7.216  0.00  0.00    +0.117 C 
ATOM     16  C   UNL     1      -9.252   3.359  -7.892  0.00  0.00    +0.074 C 
ATOM     17  C   UNL     1      -9.561   2.983  -9.359  0.00  0.00    +0.026 C 
ATOM     18  C   UNL     1     -10.065   1.530  -9.222  0.00  0.00    +0.103 C 
ATOM     19  N   UNL     1      -9.440   1.011  -7.999  0.00  0.00    -0.331 N 
ATOM     20  H   UNL     1      -9.366   0.070  -7.774  0.00  0.00    +0.147 HD
ENDBRANCH  11  14
ENDBRANCH   9  11
ENDBRANCH   3   5
BRANCH   1  21
ATOM     21  C   UNL     1      -1.776   0.352  -1.388  0.00  0.00    +0.020 C 
BRANCH  21  22
ATOM     22  N   UNL     1      -1.327  -0.308  -0.155  0.00  0.00    +0.392 N 
ATOM     23  H   UNL     1      -1.859   0.044   0.627  0.00  0.00    -0.080 HD
BRANCH  22  24
ATOM     24  C   UNL     1      -1.532  -1.758  -0.274  0.00  0.00    -0.067 C 
ATOM     25  C   UNL     1      -2.526  -2.412   0.688  0.00  0.00    -0.017 C 
ATOM     26  C   UNL     1      -1.024  -2.638   0.870  0.00  0.00    -0.017 C 
ENDBRANCH  22  24
BRANCH  22  28
ATOM     27  C   UNL     1       0.845  -0.142  -1.274  0.00  0.00    -0.008 C 
ATOM     28  C   UNL     1       0.099  -0.030   0.058  0.00  0.00    -0.038 C 
BRANCH  28  29
ATOM     29  C   UNL     1       0.263   1.363   0.609  0.00  0.00    -0.043 A 
ATOM     30  C   UNL     1      -0.786   2.260   0.545  0.00  0.00    +0.003 A 
ATOM     31  C   UNL     1      -0.636   3.537   1.050  0.00  0.00    +0.000 A 
ATOM     32  C   UNL     1       0.564   3.919   1.621  0.00  0.00    +0.001 A 
ATOM     33  C   UNL     1       1.614   3.023   1.686  0.00  0.00    +0.020 A 
ATOM     34  C   UNL     1       1.463   1.742   1.185  0.00  0.00    +0.043 A 
ATOM     35 CL   UNL     1       2.779   0.614   1.272  0.00  0.00    -0.083 Cl
ENDBRANCH  28  29
ENDBRANCH  22  28
ENDBRANCH  21  22
ENDBRANCH   1  21
TORSDOF 8
