REMARK  Name = ZINC23354125
REMARK  10 active torsions:
REMARK  status: ('A' for Active; 'I' for Inactive)
REMARK    1  A    between atoms: C_1  and  C_2
REMARK    2  A    between atoms: C_2  and  C_3
REMARK    3  A    between atoms: C_2  and  C_4
REMARK    4  A    between atoms: C_2  and  N_28
REMARK    5  A    between atoms: C_4  and  N_5
REMARK    6  A    between atoms: N_5  and  C_6
REMARK    7  A    between atoms: C_12  and  C_16
REMARK    8  A    between atoms: N_14  and  C_15
REMARK    9  A    between atoms: N_18  and  C_19
REMARK   10  A    between atoms: C_19  and  C_20
REMARK                            x       y       z     vdW  Elec       q    Type
REMARK                         _______ _______ _______ _____ _____    ______ ____
ROOT
ATOM      1  C   UNL     1      -2.790  -2.410  -1.218  0.00  0.00    -0.067 C 
ATOM      2  C   UNL     1      -3.178  -1.628  -2.476  0.00  0.00    -0.009 C 
ATOM      3  C   UNL     1      -4.657  -1.876  -2.801  0.00  0.00    +0.054 C 
ATOM      4  C   UNL     1      -4.901  -3.364  -2.791  0.00  0.00    +0.043 A 
ATOM      5  C   UNL     1      -4.059  -4.264  -2.227  0.00  0.00    +0.004 A 
ATOM      6  C   UNL     1      -4.645  -5.524  -2.434  0.00  0.00    +0.150 A 
ATOM      7  N   UNL     1      -5.774  -5.313  -3.089  0.00  0.00    -0.166 NA
ATOM      8  N   UNL     1      -5.934  -4.052  -3.302  0.00  0.00    -0.270 N 
ATOM      9  C   UNL     1      -7.077  -3.457  -4.001  0.00  0.00    +0.172 C 
ATOM     10  C   UNL     1      -2.772  -3.912  -1.533  0.00  0.00    +0.023 C 
ENDROOT
BRANCH   6  11
ATOM     11  C   UNL     1      -4.105  -6.830  -2.004  0.00  0.00    +0.265 C 
ATOM     12  O   UNL     1      -3.049  -6.883  -1.406  0.00  0.00    -0.268 OA
ATOM     13  N   UNL     1      -4.784  -7.962  -2.276  0.00  0.00    -0.306 N 
ATOM     14  H   UNL     1      -5.627  -7.919  -2.753  0.00  0.00    +0.149 HD
BRANCH  13  15
ATOM     15  C   UNL     1      -4.249  -9.257  -1.849  0.00  0.00    +0.142 C 
BRANCH  15  16
ATOM     16  C   UNL     1      -5.191 -10.354  -2.272  0.00  0.00    +0.005 A 
ATOM     17  C   UNL     1      -6.076 -10.896  -1.359  0.00  0.00    +0.008 A 
ATOM     18  C   UNL     1      -6.941 -11.902  -1.747  0.00  0.00    +0.000 A 
ATOM     19  C   UNL     1      -6.922 -12.368  -3.049  0.00  0.00    +0.003 A 
ATOM     20  C   UNL     1      -6.038 -11.828  -3.963  0.00  0.00    +0.038 A 
ATOM     21  C   UNL     1      -5.175 -10.816  -3.577  0.00  0.00    +0.128 A 
ATOM     22  F   UNL     1      -4.314 -10.284  -4.472  0.00  0.00    -0.205 F 
ENDBRANCH  15  16
ENDBRANCH  13  15
ENDBRANCH   6  11
BRANCH   1  23
ATOM     23  N   UNL     1      -1.456  -1.987  -0.771  0.00  0.00    +0.382 N 
ATOM     24  H   UNL     1      -0.798  -2.093  -1.529  0.00  0.00    -0.085 HD
ATOM     25  H   UNL     1      -1.166  -2.559   0.008  0.00  0.00    -0.085 HD
BRANCH  23  26
ATOM     26  C   UNL     1      -1.502  -0.579  -0.355  0.00  0.00    -0.060 C 
BRANCH  26  28
ATOM     27  C   UNL     1       0.929  -0.278  -0.846  0.00  0.00    +0.025 C 
ATOM     28  C   UNL     1      -0.149  -0.177   0.235  0.00  0.00    +0.001 C 
ATOM     29  C   UNL     1      -0.224   1.263   0.748  0.00  0.00    +0.025 C 
BRANCH  28  30
ATOM     30  N   UNL     1       0.186  -1.076   1.347  0.00  0.00    -0.295 NA
ATOM     31  C   UNL     1      -0.826  -1.000   2.410  0.00  0.00    +0.113 C 
ATOM     32  C   UNL     1      -0.470  -1.993   3.519  0.00  0.00    +0.175 C 
ATOM     33  O   UNL     1       0.846  -1.709   4.003  0.00  0.00    -0.377 OA
ATOM     34  C   UNL     1       1.857  -1.775   2.994  0.00  0.00    +0.175 C 
ATOM     35  C   UNL     1       1.524  -0.779   1.880  0.00  0.00    +0.113 C 
ENDBRANCH  28  30
ENDBRANCH  26  28
ENDBRANCH  23  26
ENDBRANCH   1  23
TORSDOF 7
