REMARK  Name = ZINC08869638
REMARK  5 active torsions:
REMARK  status: ('A' for Active; 'I' for Inactive)
REMARK    1  A    between atoms: C_11  and  C_13
REMARK    2  A    between atoms: N_15  and  C_16
REMARK    3  A    between atoms: C_17  and  C_25
REMARK    4  A    between atoms: N_27  and  C_28
REMARK    5  A    between atoms: C_28  and  C_29
REMARK                            x       y       z     vdW  Elec       q    Type
REMARK                         _______ _______ _______ _____ _____    ______ ____
ROOT
ATOM      1  C   UNL     1       3.509   6.232   0.001  0.00  0.00    +0.085 A 
ATOM      2  C   UNL     1       3.657   7.613   0.007  0.00  0.00    +0.069 A 
ATOM      3  C   UNL     1       5.009   8.143  -0.003  0.00  0.00    -0.023 A 
ATOM      4  C   UNL     1       5.991   7.216  -0.019  0.00  0.00    -0.004 A 
ATOM      5  S   UNL     1       5.145   5.661  -0.011  0.00  0.00    -0.077 S 
ATOM      6  C   UNL     1       7.468   7.464  -0.034  0.00  0.00    +0.043 C 
ATOM      7  C   UNL     1       7.707   8.934  -0.407  0.00  0.00    +0.005 C 
ATOM      8  C   UNL     1       6.789   9.815   0.444  0.00  0.00    +0.005 C 
ATOM      9  C   UNL     1       5.336   9.632   0.003  0.00  0.00    +0.037 C 
ENDROOT
BRANCH   1  12
ATOM     10  C   UNL     1       2.394   4.146   0.001  0.00  0.00    +0.284 C 
ATOM     11  O   UNL     1       3.470   3.581  -0.013  0.00  0.00    -0.266 OA
ATOM     12  N   UNL     1       2.339   5.492   0.009  0.00  0.00    -0.273 N 
ATOM     13  H   UNL     1       1.480   5.943   0.020  0.00  0.00    +0.156 HD
BRANCH  10  24
ATOM     14  C   UNL     1      -3.619   3.447   0.036  0.00  0.00    +0.023 A 
ATOM     15  C   UNL     1      -2.407   4.103   0.047  0.00  0.00    +0.048 A 
ATOM     16  C   UNL     1      -1.222   3.374   0.032  0.00  0.00    +0.140 A 
ATOM     17  C   UNL     1      -1.282   1.970   0.019  0.00  0.00    +0.065 A 
ATOM     18  C   UNL     1      -2.514   1.318   0.020  0.00  0.00    +0.035 A 
ATOM     19  C   UNL     1      -3.676   2.060   0.029  0.00  0.00    +0.042 A 
ATOM     20 CL   UNL     1      -5.215   1.257   0.031  0.00  0.00    -0.084 Cl
ATOM     21  C   UNL     1      -0.014   1.214   0.009  0.00  0.00    +0.193 A 
ATOM     22  O   UNL     1       0.002  -0.004   0.002  0.00  0.00    -0.287 OA
ATOM     23  C   UNL     1       1.227   2.001   0.001  0.00  0.00    +0.103 A 
ATOM     24  C   UNL     1       1.142   3.354   0.009  0.00  0.00    +0.194 A 
ATOM     25  O   UNL     1      -0.031   4.003   0.024  0.00  0.00    -0.450 OA
ENDBRANCH  10  24
ENDBRANCH   1  12
BRANCH   2  26
ATOM     26  C   UNL     1       2.491   8.502   0.023  0.00  0.00    +0.247 C 
ATOM     27  O   UNL     1       2.018   8.866   1.084  0.00  0.00    -0.270 OA
ATOM     28  N   UNL     1       1.944   8.917  -1.136  0.00  0.00    -0.309 N 
ATOM     29  H   UNL     1       2.321   8.627  -1.982  0.00  0.00    +0.149 HD
BRANCH  28  30
ATOM     30  C   UNL     1       0.779   9.805  -1.120  0.00  0.00    +0.136 C 
BRANCH  30  31
ATOM     31  C   UNL     1       0.359  10.122  -2.557  0.00  0.00    +0.135 C 
ATOM     32  C   UNL     1      -0.866  11.057  -2.551  0.00  0.00    +0.035 C 
ATOM     33  C   UNL     1      -0.394  12.305  -3.336  0.00  0.00    +0.031 C 
ATOM     34  C   UNL     1       0.802  11.746  -4.147  0.00  0.00    +0.160 C 
ATOM     35  O   UNL     1       1.421  10.814  -3.236  0.00  0.00    -0.375 OA
ENDBRANCH  30  31
ENDBRANCH  28  30
ENDBRANCH   2  26
TORSDOF 5
