REMARK  Name = ZINC47152234
REMARK  9 active torsions:
REMARK  status: ('A' for Active; 'I' for Inactive)
REMARK    1  A    between atoms: C_3  and  N_31
REMARK    2  A    between atoms: C_6  and  C_7
REMARK    3  A    between atoms: N_11  and  C_15
REMARK    4  A    between atoms: C_15  and  C_16
REMARK    5  A    between atoms: C_16  and  C_17
REMARK    6  A    between atoms: C_17  and  C_18
REMARK    7  A    between atoms: N_20  and  C_21
REMARK    8  A    between atoms: C_24  and  S_27
REMARK    9  A    between atoms: S_27  and  N_30
REMARK                            x       y       z     vdW  Elec       q    Type
REMARK                         _______ _______ _______ _____ _____    ______ ____
ROOT
ATOM      1  C   UNL     1      -3.224  -5.203  -0.448  0.00  0.00    +0.115 C 
ENDROOT
BRANCH   1   6
ATOM      2  C   UNL     1      -1.707  -0.506   0.047  0.00  0.00    +0.028 C 
ATOM      3  C   UNL     1      -1.588  -1.850  -0.090  0.00  0.00    +0.077 C 
ATOM      4  C   UNL     1      -2.640  -2.882  -0.205  0.00  0.00    +0.258 C 
ATOM      5  O   UNL     1      -3.823  -2.595  -0.185  0.00  0.00    -0.269 OA
ATOM      6  N   UNL     1      -2.231  -4.133  -0.330  0.00  0.00    -0.255 N 
ATOM      7  C   UNL     1      -0.919  -4.447  -0.350  0.00  0.00    +0.121 C 
ATOM      8  S   UNL     1      -0.198  -5.992  -0.503  0.00  0.00    -0.027 S 
ATOM      9  S   UNL     1      -0.117  -2.860  -0.189  0.00  0.00    -0.061 S 
BRANCH   2  15
ATOM     10  C   UNL     1       0.705  -0.188  -0.471  0.00  0.00    +0.010 A 
ATOM     11  C   UNL     1       1.817   0.623  -0.563  0.00  0.00    +0.033 A 
ATOM     12  C   UNL     1       1.726   1.966  -0.241  0.00  0.00    +0.126 A 
ATOM     13  C   UNL     1       0.522   2.507   0.173  0.00  0.00    +0.033 A 
ATOM     14  C   UNL     1      -0.599   1.710   0.270  0.00  0.00    +0.010 A 
ATOM     15  C   UNL     1      -0.516   0.351  -0.053  0.00  0.00    -0.024 A 
BRANCH  12  16
ATOM     16  N   UNL     1       2.925   2.829  -0.342  0.00  0.00    +0.056 N 
ATOM     17  O   UNL     1       3.979   2.360  -0.703  0.00  0.00    -0.126 OA
ATOM     18  O   UNL     1       2.850   4.003  -0.062  0.00  0.00    -0.126 OA
ENDBRANCH  12  16
ENDBRANCH   2  15
ENDBRANCH   1   6
BRANCH   1  19
ATOM     19  C   UNL     1      -3.558  -5.428  -1.924  0.00  0.00    +0.029 C 
BRANCH  19  20
ATOM     20  C   UNL     1      -4.596  -6.546  -2.047  0.00  0.00    +0.097 C 
BRANCH  20  21
ATOM     21  C   UNL     1      -4.924  -6.768  -3.501  0.00  0.00    +0.217 C 
ATOM     22  O   UNL     1      -4.382  -6.098  -4.355  0.00  0.00    -0.275 OA
ATOM     23  N   UNL     1      -5.821  -7.710  -3.853  0.00  0.00    -0.285 N 
ATOM     24  H   UNL     1      -6.314  -8.190  -3.170  0.00  0.00    +0.155 HD
BRANCH  23  25
ATOM     25  C   UNL     1      -6.040  -7.998  -5.205  0.00  0.00    +0.033 A 
ATOM     26  C   UNL     1      -7.284  -8.448  -5.628  0.00  0.00    +0.025 A 
ATOM     27  C   UNL     1      -7.497  -8.731  -6.963  0.00  0.00    +0.030 A 
ATOM     28  C   UNL     1      -6.473  -8.565  -7.878  0.00  0.00    +0.105 A 
ATOM     29  C   UNL     1      -5.234  -8.117  -7.460  0.00  0.00    +0.030 A 
ATOM     30  C   UNL     1      -5.016  -7.827  -6.128  0.00  0.00    +0.025 A 
BRANCH  28  31
ATOM     31  S   UNL     1      -6.749  -8.927  -9.581  0.00  0.00    +0.056 S 
ATOM     32  O   UNL     1      -5.477  -9.212 -10.147  0.00  0.00    -0.153 OA
ATOM     33  O   UNL     1      -7.829  -9.850  -9.630  0.00  0.00    -0.153 OA
BRANCH  31  34
ATOM     34  N   UNL     1      -7.285  -7.533 -10.297  0.00  0.00    -0.204 NA
ATOM     35  H   UNL     1      -7.388  -6.726  -9.769  0.00  0.00    +0.144 HD
ATOM     36  H   UNL     1      -7.495  -7.524 -11.244  0.00  0.00    +0.144 HD
ENDBRANCH  31  34
ENDBRANCH  28  31
ENDBRANCH  23  25
ENDBRANCH  20  21
ENDBRANCH  19  20
ENDBRANCH   1  19
TORSDOF 9
