REMARK  Name = ZINC19214368
REMARK  7 active torsions:
REMARK  status: ('A' for Active; 'I' for Inactive)
REMARK    1  A    between atoms: C_1  and  C_2
REMARK    2  A    between atoms: C_5  and  N_9
REMARK    3  A    between atoms: C_7  and  C_8
REMARK    4  A    between atoms: C_14  and  N_19
REMARK    5  A    between atoms: C_20  and  C_22
REMARK    6  A    between atoms: C_23  and  C_28
REMARK    7  A    between atoms: C_25  and  C_27
REMARK                            x       y       z     vdW  Elec       q    Type
REMARK                         _______ _______ _______ _____ _____    ______ ____
ROOT
ATOM      1  N   UNL     1      -0.075   5.671   0.033  0.00  0.00    -0.236 N 
ATOM      2  C   UNL     1       0.811   6.473   0.652  0.00  0.00    +0.050 A 
ATOM      3  C   UNL     1       0.444   7.758   0.416  0.00  0.00    +0.014 A 
ATOM      4  C   UNL     1      -0.706   7.740  -0.372  0.00  0.00    +0.140 A 
ATOM      5  N   UNL     1      -1.017   6.488  -0.609  0.00  0.00    -0.174 NA
ATOM      6  C   UNL     1       1.189   8.961   0.939  0.00  0.00    +0.107 C 
ATOM      7  C   UNL     1       2.585   8.508   1.385  0.00  0.00    +0.027 C 
ATOM      8  C   UNL     1       2.458   7.286   2.299  0.00  0.00    +0.008 C 
ATOM      9  C   UNL     1       2.011   6.073   1.474  0.00  0.00    +0.056 C 
ENDROOT
BRANCH   1  14
ATOM     10  C   UNL     1       0.002  -0.004   0.002  0.00  0.00    +0.044 C 
ATOM     11  C   UNL     1      -0.018   1.503   0.010  0.00  0.00    -0.047 A 
ATOM     12  C   UNL     1       1.171   2.209   0.003  0.00  0.00    +0.006 A 
ATOM     13  C   UNL     1       1.155   3.590   0.010  0.00  0.00    +0.028 A 
ATOM     14  C   UNL     1      -0.056   4.269   0.025  0.00  0.00    +0.066 A 
ATOM     15  C   UNL     1      -1.248   3.558   0.033  0.00  0.00    +0.031 A 
ATOM     16  C   UNL     1      -1.226   2.176   0.020  0.00  0.00    -0.046 A 
ATOM     17  C   UNL     1      -2.519   1.403   0.021  0.00  0.00    +0.044 C 
ENDBRANCH   1  14
BRANCH   6  18
ATOM     18  N   UNL     1       1.312   9.965  -0.121  0.00  0.00    -0.302 N 
ATOM     19  C   UNL     1       0.312  10.843  -0.337  0.00  0.00    +0.282 C 
ATOM     20  O   UNL     1      -0.693  10.802   0.349  0.00  0.00    -0.267 OA
ATOM     21  H   UNL     1       2.219  10.002  -0.741  0.00  0.00    +0.150 HD
BRANCH  19  22
ATOM     22  C   UNL     1       0.434  11.848  -1.398  0.00  0.00    +0.212 A 
ATOM     23  C   UNL     1      -0.489  12.792  -1.735  0.00  0.00    +0.089 A 
ATOM     24  N   UNL     1       0.016  13.505  -2.748  0.00  0.00    -0.218 NA
ATOM     25  C   UNL     1       1.197  13.036  -3.049  0.00  0.00    +0.194 A 
ATOM     26  O   UNL     1       1.484  12.014  -2.236  0.00  0.00    -0.435 OA
ATOM     27  C   UNL     1       2.094  13.562  -4.140  0.00  0.00    +0.109 C 
ATOM     28  C   UNL     1      -1.833  12.998  -1.084  0.00  0.00    +0.070 C 
ENDBRANCH  19  22
ENDBRANCH   6  18
TORSDOF 3
