REMARK  Name = ZINC39211373
REMARK  16 active torsions:
REMARK  status: ('A' for Active; 'I' for Inactive)
REMARK    1  A    between atoms: C_1  and  C_2
REMARK    2  A    between atoms: C_2  and  O_3
REMARK    3  A    between atoms: O_3  and  C_4
REMARK    4  A    between atoms: C_7  and  N_13
REMARK    5  A    between atoms: C_8  and  N_10
REMARK    6  A    between atoms: C_14  and  C_16
REMARK    7  A    between atoms: C_16  and  O_17
REMARK    8  A    between atoms: O_17  and  C_18
REMARK    9  A    between atoms: C_18  and  C_20
REMARK   10  A    between atoms: C_20  and  C_22
REMARK   11  A    between atoms: C_20  and  N_25
REMARK   12  A    between atoms: C_22  and  C_23
REMARK   13  A    between atoms: C_22  and  C_24
REMARK   14  A    between atoms: N_25  and  S_26
REMARK   15  A    between atoms: S_26  and  C_29
REMARK   16  A    between atoms: C_32  and  C_35
REMARK                            x       y       z     vdW  Elec       q    Type
REMARK                         _______ _______ _______ _____ _____    ______ ____
ROOT
ATOM      1  O   UNL     1       0.472  -9.105   0.037  0.00  0.00    -0.454 OA
ENDROOT
BRANCH   1   2
ATOM      2  C   UNL     1       0.584 -10.436  -0.094  0.00  0.00    +0.327 C 
ATOM      3  O   UNL     1       1.128 -10.904  -1.066  0.00  0.00    -0.249 OA
BRANCH   2   4
ATOM      4  C   UNL     1       0.031 -11.347   0.971  0.00  0.00    +0.187 C 
BRANCH   4   5
ATOM      5  C   UNL     1      -1.475 -11.114   1.110  0.00  0.00    +0.012 C 
ATOM      6  C   UNL     1      -2.059 -12.127   2.096  0.00  0.00    +0.009 C 
ATOM      7  C   UNL     1      -1.726  -9.696   1.628  0.00  0.00    +0.009 C 
ENDBRANCH   4   5
BRANCH   4   8
ATOM      8  N   UNL     1       0.277 -12.742   0.597  0.00  0.00    -0.176 NA
ATOM      9  H   UNL     1      -0.328 -13.194  -0.011  0.00  0.00    +0.149 HD
BRANCH   8  10
ATOM     10  S   UNL     1       1.587 -13.546   1.213  0.00  0.00    +0.059 S 
ATOM     11  O   UNL     1       1.538 -14.865   0.687  0.00  0.00    -0.153 OA
ATOM     12  O   UNL     1       2.709 -12.693   1.030  0.00  0.00    -0.153 OA
BRANCH  10  13
ATOM     13  C   UNL     1       1.341 -13.688   2.952  0.00  0.00    +0.105 A 
ATOM     14  C   UNL     1       1.715 -12.654   3.790  0.00  0.00    +0.029 A 
ATOM     15  C   UNL     1       1.522 -12.765   5.154  0.00  0.00    +0.005 A 
ATOM     16  C   UNL     1       0.954 -13.910   5.680  0.00  0.00    -0.050 A 
ATOM     17  C   UNL     1       0.579 -14.944   4.843  0.00  0.00    +0.005 A 
ATOM     18  C   UNL     1       0.768 -14.831   3.478  0.00  0.00    +0.029 A 
ATOM     19  C   UNL     1       0.744 -14.032   7.168  0.00  0.00    +0.044 C 
ENDBRANCH  10  13
ENDBRANCH   8  10
ENDBRANCH   4   8
ENDBRANCH   2   4
ENDBRANCH   1   2
BRANCH   1  20
ATOM     20  C   UNL     1       1.019  -8.302  -1.011  0.00  0.00    +0.328 C 
BRANCH  20  22
ATOM     21  N   UNL     1       1.238  -5.896  -1.546  0.00  0.00    -0.281 N 
ATOM     22  C   UNL     1       0.802  -6.845  -0.693  0.00  0.00    +0.255 C 
ATOM     23  O   UNL     1       0.235  -6.525   0.331  0.00  0.00    -0.272 OA
ATOM     24  H   UNL     1       1.623  -6.151  -2.399  0.00  0.00    +0.155 HD
BRANCH  21  28
ATOM     25  C   UNL     1       0.937  -1.867  -0.515  0.00  0.00    +0.123 A 
ATOM     26  C   UNL     1       1.028  -2.832   0.478  0.00  0.00    +0.047 A 
ATOM     27  C   UNL     1       1.128  -4.166   0.137  0.00  0.00    +0.029 A 
ATOM     28  C   UNL     1       1.136  -4.543  -1.199  0.00  0.00    +0.064 A 
ATOM     29  C   UNL     1       1.044  -3.577  -2.192  0.00  0.00    +0.151 A 
ATOM     30  C   UNL     1       0.940  -2.243  -1.850  0.00  0.00    +0.080 A 
BRANCH  29  31
ATOM     31  N   UNL     1       1.053  -3.977  -3.617  0.00  0.00    +0.058 N 
ATOM     32  O   UNL     1       1.081  -3.133  -4.482  0.00  0.00    -0.126 OA
ATOM     33  O   UNL     1       1.032  -5.148  -3.916  0.00  0.00    -0.126 OA
ENDBRANCH  29  31
BRANCH  25  34
ATOM     34  O   UNL     1       0.838  -0.553  -0.179  0.00  0.00    -0.492 OA
BRANCH  34  36
ATOM     35  C   UNL     1       0.724   1.277   1.395  0.00  0.00    +0.048 C 
ATOM     36  C   UNL     1       0.841  -0.238   1.214  0.00  0.00    +0.225 C 
ENDBRANCH  34  36
ENDBRANCH  25  34
ENDBRANCH  21  28
ENDBRANCH  20  22
ENDBRANCH   1  20
TORSDOF 12
