REMARK  Name = ZINC14548081
REMARK  3 active torsions:
REMARK  status: ('A' for Active; 'I' for Inactive)
REMARK    1  A    between atoms: C_1  and  C_2
REMARK    2  A    between atoms: C_9  and  C_18
REMARK    3  A    between atoms: C_27  and  O_28
REMARK                            x       y       z     vdW  Elec       q    Type
REMARK                         _______ _______ _______ _____ _____    ______ ____
ROOT
ATOM      1  C   UNL     1       3.486   4.878  -2.060  0.00  0.00    +0.045 C 
ATOM      2  C   UNL     1       2.255   4.164  -1.563  0.00  0.00    -0.029 A 
ATOM      3  C   UNL     1       1.034   4.799  -1.613  0.00  0.00    +0.006 A 
ATOM      4  C   UNL     1      -0.104   4.156  -1.162  0.00  0.00    +0.020 A 
ATOM      5  C   UNL     1      -0.008   2.875  -0.650  0.00  0.00    +0.046 A 
ATOM      6  C   UNL     1       1.213   2.236  -0.587  0.00  0.00    -0.001 A 
ATOM      7  C   UNL     1       2.368   2.868  -1.056  0.00  0.00    +0.036 A 
ATOM      8  N   UNL     1       3.633   2.284  -1.054  0.00  0.00    -0.336 N 
ATOM      9  C   UNL     1       3.752   0.964  -0.416  0.00  0.00    +0.109 C 
ATOM     10  C   UNL     1       2.509   0.178  -0.781  0.00  0.00    +0.029 C 
ATOM     11  C   UNL     1       1.355   0.884  -0.004  0.00  0.00    +0.050 C 
ATOM     12  C   UNL     1       0.265  -0.121  -0.035  0.00  0.00    -0.023 C 
ATOM     13  C   UNL     1       0.808  -1.331  -0.106  0.00  0.00    -0.030 C 
ATOM     14  C   UNL     1       2.333  -1.215  -0.167  0.00  0.00    +0.033 C 
ATOM     15 CL   UNL     1      -1.435   2.064  -0.084  0.00  0.00    -0.083 Cl
ATOM     16  H   UNL     1       4.325   2.924  -0.695  0.00  0.00    +0.147 HD
ENDROOT
BRANCH   9  17
ATOM     17  C   UNL     1       3.840   1.120   1.080  0.00  0.00    +0.022 A 
ATOM     18  C   UNL     1       4.286   0.053   1.877  0.00  0.00    -0.009 A 
ATOM     19  C   UNL     1       4.670  -1.173   1.306  0.00  0.00    +0.009 A 
ATOM     20  C   UNL     1       5.103  -2.183   2.107  0.00  0.00    +0.001 A 
ATOM     21  C   UNL     1       5.177  -2.020   3.490  0.00  0.00    +0.001 A 
ATOM     22  C   UNL     1       4.818  -0.846   4.078  0.00  0.00    +0.008 A 
ATOM     23  C   UNL     1       4.366   0.220   3.282  0.00  0.00    -0.017 A 
ATOM     24  C   UNL     1       3.988   1.447   3.855  0.00  0.00    +0.012 A 
ATOM     25  C   UNL     1       3.555   2.459   3.057  0.00  0.00    +0.046 A 
ATOM     26  C   UNL     1       3.480   2.299   1.669  0.00  0.00    +0.122 A 
BRANCH  26  27
ATOM     27  O   UNL     1       3.043   3.328   0.898  0.00  0.00    -0.506 OA
ATOM     28  H   UNL     1       2.081   3.410   0.859  0.00  0.00    +0.292 HD
ENDBRANCH  26  27
ENDBRANCH   9  17
TORSDOF 2
