REMARK  Name = ZINC46085365
REMARK  5 active torsions:
REMARK  status: ('A' for Active; 'I' for Inactive)
REMARK    1  A    between atoms: C_1  and  C_2
REMARK    2  A    between atoms: C_2  and  C_21
REMARK    3  A    between atoms: N_3  and  N_4
REMARK    4  A    between atoms: C_13  and  C_15
REMARK    5  A    between atoms: N_29  and  C_30
REMARK                            x       y       z     vdW  Elec       q    Type
REMARK                         _______ _______ _______ _____ _____    ______ ____
ROOT
ATOM      1  N   UNL     1      -0.461  -2.034   1.131  0.00  0.00    -0.205 N 
ATOM      2  C   UNL     1      -0.353  -2.740   2.317  0.00  0.00    +0.236 A 
ATOM      3  N   UNL     1      -0.177  -2.068   3.439  0.00  0.00    -0.213 NA
ATOM      4  C   UNL     1      -0.067  -2.713   4.607  0.00  0.00    +0.077 A 
ATOM      5  C   UNL     1       0.119  -2.030   5.818  0.00  0.00    +0.028 A 
ATOM      6  C   UNL     1       0.225  -2.736   6.979  0.00  0.00    +0.002 A 
ATOM      7  C   UNL     1       0.150  -4.127   6.983  0.00  0.00    +0.001 A 
ATOM      8  C   UNL     1      -0.031  -4.822   5.824  0.00  0.00    +0.012 A 
ATOM      9  C   UNL     1      -0.143  -4.129   4.614  0.00  0.00    +0.026 A 
ATOM     10  C   UNL     1      -0.333  -4.798   3.379  0.00  0.00    +0.084 A 
ATOM     11  N   UNL     1      -0.435  -4.066   2.278  0.00  0.00    -0.213 NA
ATOM     12  H   UNL     1      -0.595  -2.507   0.295  0.00  0.00    +0.177 HD
ENDROOT
BRANCH  10  13
ATOM     13  C   UNL     1      -0.420  -6.275   3.321  0.00  0.00    +0.001 A 
ATOM     14  C   UNL     1      -1.198  -6.968   4.250  0.00  0.00    +0.010 A 
ATOM     15  C   UNL     1      -1.275  -8.344   4.190  0.00  0.00    +0.001 A 
ATOM     16  C   UNL     1      -0.584  -9.037   3.212  0.00  0.00    +0.000 A 
ATOM     17  C   UNL     1       0.188  -8.355   2.288  0.00  0.00    +0.001 A 
ATOM     18  C   UNL     1       0.269  -6.979   2.333  0.00  0.00    +0.010 A 
ENDBRANCH  10  13
BRANCH   1  21
ATOM     19  C   UNL     1      -0.608   1.540   0.071  0.00  0.00    +0.071 C 
ATOM     20  C   UNL     1      -0.579   0.034   0.041  0.00  0.00    +0.098 C 
ATOM     21  N   UNL     1      -0.379  -0.635   1.138  0.00  0.00    -0.181 NA
BRANCH  20  22
ATOM     22  C   UNL     1      -0.776  -0.678  -1.227  0.00  0.00    +0.157 A 
ATOM     23  N   UNL     1       0.187  -1.106  -2.013  0.00  0.00    -0.226 NA
ATOM     24  C   UNL     1      -0.348  -1.719  -3.095  0.00  0.00    +0.090 A 
ATOM     25  C   UNL     1       0.208  -2.341  -4.219  0.00  0.00    +0.030 A 
ATOM     26  C   UNL     1      -0.608  -2.884  -5.170  0.00  0.00    +0.002 A 
ATOM     27  C   UNL     1      -1.988  -2.826  -5.036  0.00  0.00    +0.002 A 
ATOM     28  C   UNL     1      -2.559  -2.218  -3.937  0.00  0.00    +0.028 A 
ATOM     29  C   UNL     1      -1.747  -1.661  -2.959  0.00  0.00    +0.069 A 
ATOM     30  N   UNL     1      -1.994  -1.004  -1.769  0.00  0.00    -0.326 N 
ATOM     31  C   UNL     1      -3.308  -0.707  -1.196  0.00  0.00    +0.151 C 
ENDBRANCH  20  22
ENDBRANCH   1  21
TORSDOF 3
