REMARK  Name = ZINC64392101
REMARK  4 active torsions:
REMARK  status: ('A' for Active; 'I' for Inactive)
REMARK    1  A    between atoms: C_6  and  C_7
REMARK    2  A    between atoms: C_7  and  N_8
REMARK    3  A    between atoms: C_14  and  C_21
REMARK    4  A    between atoms: C_24  and  C_27
REMARK                            x       y       z     vdW  Elec       q    Type
REMARK                         _______ _______ _______ _____ _____    ______ ____
ROOT
ATOM      1  N   UNL     1      -1.726  -1.017  -1.368  0.00  0.00    -0.256 N 
ATOM      2  C   UNL     1      -2.519  -0.112  -1.982  0.00  0.00    +0.265 A 
ATOM      3  O   UNL     1      -2.876   0.897  -1.406  0.00  0.00    -0.267 OA
ATOM      4  C   UNL     1      -2.940  -0.380  -3.369  0.00  0.00    +0.063 A 
ATOM      5  C   UNL     1      -3.756   0.504  -4.070  0.00  0.00    +0.016 A 
ATOM      6  C   UNL     1      -4.122   0.208  -5.367  0.00  0.00    +0.009 A 
ATOM      7  C   UNL     1      -3.682  -0.960  -5.971  0.00  0.00    +0.006 A 
ATOM      8  C   UNL     1      -2.873  -1.844  -5.287  0.00  0.00    +0.034 A 
ATOM      9  C   UNL     1      -2.494  -1.563  -3.983  0.00  0.00    +0.056 A 
ATOM     10  N   UNL     1      -1.681  -2.425  -3.260  0.00  0.00    -0.307 N 
ATOM     11  H   UNL     1      -1.366  -3.245  -3.671  0.00  0.00    +0.170 HD
ATOM     12  C   UNL     1      -1.322  -2.131  -1.999  0.00  0.00    +0.330 A 
ATOM     13  O   UNL     1      -0.605  -2.910  -1.401  0.00  0.00    -0.246 OA
ENDROOT
BRANCH   7  14
ATOM     14  C   UNL     1      -4.093  -1.267  -7.388  0.00  0.00    +0.274 C 
ATOM     15  N   UNL     1      -4.323  -0.023  -8.132  0.00  0.00    -0.339 N 
ATOM     16  C   UNL     1      -5.558   0.004  -8.527  0.00  0.00    +0.134 C 
ATOM     17  N   UNL     1      -6.236  -1.122  -8.128  0.00  0.00    -0.247 N 
ATOM     18  O   UNL     1      -5.350  -1.961  -7.402  0.00  0.00    -0.243 OA
ATOM     19  H   UNL     1      -7.169  -1.313  -8.312  0.00  0.00    +0.196 HD
ATOM     20  H   UNL     1      -3.661   0.666  -8.299  0.00  0.00    +0.164 HD
BRANCH  16  21
ATOM     21  C   UNL     1      -6.161   1.107  -9.309  0.00  0.00    +0.020 A 
ATOM     22  C   UNL     1      -5.374   1.854 -10.186  0.00  0.00    +0.013 A 
ATOM     23  C   UNL     1      -5.939   2.881 -10.912  0.00  0.00    +0.023 A 
ATOM     24  C   UNL     1      -7.286   3.172 -10.774  0.00  0.00    +0.076 A 
ATOM     25  C   UNL     1      -8.073   2.434  -9.903  0.00  0.00    +0.142 A 
ATOM     26  C   UNL     1      -7.518   1.400  -9.175  0.00  0.00    +0.051 A 
ATOM     27  F   UNL     1      -9.386   2.722  -9.772  0.00  0.00    -0.204 F 
ATOM     28 CL   UNL     1      -7.990   4.467 -11.691  0.00  0.00    -0.081 Cl
ENDBRANCH  16  21
ENDBRANCH   7  14
BRANCH   1  29
ATOM     29  C   UNL     1      -1.293  -0.775   0.010  0.00  0.00    +0.165 C 
BRANCH  29  35
ATOM     30  C   UNL     1      -0.017   1.378   0.010  0.00  0.00    +0.008 A 
ATOM     31  C   UNL     1       1.170   2.086   0.002  0.00  0.00    +0.038 A 
ATOM     32  C   UNL     1       2.379   1.410  -0.013  0.00  0.00    +0.123 A 
ATOM     33  C   UNL     1       2.396   0.026  -0.021  0.00  0.00    +0.038 A 
ATOM     34  C   UNL     1       1.208  -0.680  -0.013  0.00  0.00    +0.008 A 
ATOM     35  C   UNL     1       0.002  -0.004   0.002  0.00  0.00    -0.027 A 
ATOM     36  F   UNL     1       3.540   2.101  -0.021  0.00  0.00    -0.205 F 
ENDBRANCH  29  35
ENDBRANCH   1  29
TORSDOF 4
