REMARK  Name = ZINC13498570
REMARK  17 active torsions:
REMARK  status: ('A' for Active; 'I' for Inactive)
REMARK    1  A    between atoms: C_1  and  C_2
REMARK    2  A    between atoms: C_2  and  C_3
REMARK    3  A    between atoms: C_3  and  C_4
REMARK    4  A    between atoms: C_3  and  C_5
REMARK    5  A    between atoms: C_3  and  N_6
REMARK    6  A    between atoms: C_7  and  C_11
REMARK    7  A    between atoms: C_11  and  C_13
REMARK    8  A    between atoms: C_11  and  N_68
REMARK    9  A    between atoms: C_13  and  C_14
REMARK   10  A    between atoms: C_13  and  C_15
REMARK   11  A    between atoms: C_16  and  C_17
REMARK   12  A    between atoms: C_16  and  N_68
REMARK   13  A    between atoms: C_17  and  C_18
REMARK   14  A    between atoms: C_18  and  O_19
REMARK   15  A    between atoms: C_20  and  C_21
REMARK   16  A    between atoms: C_20  and  N_68
REMARK   17  A    between atoms: C_26  and  C_33
REMARK                            x       y       z     vdW  Elec       q    Type
REMARK                         _______ _______ _______ _____ _____    ______ ____
ROOT
ATOM      1  N   UNL     1       4.457   1.148  -1.082  0.00  0.00    +0.389 N 
ATOM      2  H   UNL     1       4.843   1.261  -2.026  0.00  0.00    -0.080 HD
ENDROOT
BRANCH   1   3
ATOM      3  C   UNL     1       2.999   0.930  -1.182  0.00  0.00    +0.006 C 
BRANCH   3   5
ATOM      4  N   UNL     1       1.748   2.698  -2.530  0.00  0.00    -0.225 N 
ATOM      5  C   UNL     1       2.311   2.255  -1.390  0.00  0.00    +0.139 A 
ATOM      6  N   UNL     1       2.147   3.200  -0.497  0.00  0.00    -0.115 NA
ATOM      7  N   UNL     1       1.510   4.170  -1.057  0.00  0.00    -0.023 NA
ATOM      8  N   UNL     1       1.267   3.869  -2.285  0.00  0.00    -0.043 NA
BRANCH   4   9
ATOM      9  C   UNL     1       1.688   1.981  -3.806  0.00  0.00    +0.061 C 
ATOM     10  C   UNL     1       0.813   0.736  -3.651  0.00  0.00    +0.036 C 
ATOM     11  C   UNL     1       3.100   1.564  -4.223  0.00  0.00    +0.036 C 
BRANCH   9  13
ATOM     12  C   UNL     1       1.027   2.148  -6.210  0.00  0.00    +0.006 C 
ATOM     13  C   UNL     1       1.089   2.896  -4.876  0.00  0.00    +0.026 C 
ENDBRANCH   9  13
ENDBRANCH   4   9
ENDBRANCH   3   5
BRANCH   3  14
ATOM     14  C   UNL     1       2.467   0.274   0.094  0.00  0.00    -0.024 C 
ATOM     15  C   UNL     1       2.878   1.111   1.307  0.00  0.00    +0.006 C 
ATOM     16  C   UNL     1       0.941   0.189   0.026  0.00  0.00    +0.006 C 
ENDBRANCH   3  14
ENDBRANCH   1   3
BRANCH   1  17
ATOM     17  C   UNL     1       5.099  -0.017  -0.437  0.00  0.00    -0.075 C 
BRANCH  17  18
ATOM     18  C   UNL     1       4.919  -1.242  -1.337  0.00  0.00    +0.009 C 
BRANCH  18  19
ATOM     19  C   UNL     1       5.504  -2.474  -0.644  0.00  0.00    +0.154 C 
BRANCH  19  20
ATOM     20  O   UNL     1       5.336  -3.618  -1.484  0.00  0.00    -0.395 OA
ATOM     21  H   UNL     1       5.685  -4.437  -1.107  0.00  0.00    +0.209 HD
ENDBRANCH  19  20
ENDBRANCH  18  19
ENDBRANCH  17  18
ENDBRANCH   1  17
BRANCH   1  22
ATOM     22  C   UNL     1       4.733   2.372  -0.301  0.00  0.00    -0.037 C 
BRANCH  22  23
ATOM     23  C   UNL     1       6.153   2.803  -0.563  0.00  0.00    +0.001 A 
ATOM     24  C   UNL     1       6.413   3.720  -1.528  0.00  0.00    +0.017 A 
ATOM     25  C   UNL     1       7.804   4.118  -1.758  0.00  0.00    -0.001 A 
ATOM     26  C   UNL     1       8.134   5.059  -2.738  0.00  0.00    +0.010 A 
ATOM     27  C   UNL     1       9.441   5.409  -2.928  0.00  0.00    +0.004 A 
ATOM     28  C   UNL     1      10.444   4.838  -2.156  0.00  0.00    -0.048 A 
ATOM     29  C   UNL     1      10.142   3.909  -1.184  0.00  0.00    +0.029 A 
ATOM     30  C   UNL     1       8.818   3.537  -0.973  0.00  0.00    +0.049 A 
ATOM     31  N   UNL     1       8.486   2.611  -0.008  0.00  0.00    -0.322 N 
ATOM     32  H   UNL     1       9.187   2.211   0.532  0.00  0.00    +0.169 HD
ATOM     33  C   UNL     1       7.206   2.256   0.200  0.00  0.00    +0.251 A 
ATOM     34  O   UNL     1       6.950   1.437   1.065  0.00  0.00    -0.268 OA
ATOM     35  C   UNL     1      11.879   5.240  -2.383  0.00  0.00    +0.044 C 
ENDBRANCH  22  23
ENDBRANCH   1  22
TORSDOF 11
