REMARK  Name = ZINC29719428
REMARK  11 active torsions:
REMARK  status: ('A' for Active; 'I' for Inactive)
REMARK    1  A    between atoms: C_1  and  C_2
REMARK    2  A    between atoms: C_2  and  C_3
REMARK    3  A    between atoms: C_3  and  C_5
REMARK    4  A    between atoms: C_3  and  N_6
REMARK    5  A    between atoms: C_7  and  C_9
REMARK    6  A    between atoms: C_9  and  C_11
REMARK    7  A    between atoms: C_9  and  N_12
REMARK    8  A    between atoms: N_12  and  C_13
REMARK    9  A    between atoms: C_16  and  N_19
REMARK   10  A    between atoms: N_22  and  C_23
REMARK   11  A    between atoms: C_23  and  C_24
REMARK                            x       y       z     vdW  Elec       q    Type
REMARK                         _______ _______ _______ _____ _____    ______ ____
ROOT
ATOM      1  C   UNL     1      -5.897   3.109  -0.222  0.00  0.00    +0.028 A 
ATOM      2  C   UNL     1      -5.935   1.723  -0.134  0.00  0.00    +0.025 A 
ATOM      3  C   UNL     1      -4.760   1.004  -0.054  0.00  0.00    +0.025 A 
ATOM      4  C   UNL     1      -3.539   1.665  -0.063  0.00  0.00    +0.035 A 
ATOM      5  C   UNL     1      -3.500   3.050  -0.145  0.00  0.00    +0.025 A 
ATOM      6  C   UNL     1      -4.676   3.770  -0.231  0.00  0.00    +0.025 A 
ENDROOT
BRANCH   4   7
ATOM      7  N   UNL     1      -2.345   0.934   0.018  0.00  0.00    -0.269 N 
ATOM      8  C   UNL     1      -2.253  -0.273  -0.574  0.00  0.00    +0.304 C 
ATOM      9  O   UNL     1      -3.229  -0.766  -1.106  0.00  0.00    -0.253 OA
ATOM     10  N   UNL     1      -1.078  -0.934  -0.576  0.00  0.00    -0.297 N 
ATOM     11  H   UNL     1      -1.484   1.346   0.565  0.00  0.00    +0.156 HD
ATOM     12  H   UNL     1      -0.194  -0.487  -0.099  0.00  0.00    +0.150 HD
BRANCH  10  13
ATOM     13  C   UNL     1      -0.979  -2.249  -1.215  0.00  0.00    +0.137 C 
BRANCH  13  14
ATOM     14  C   UNL     1       0.449  -2.780  -1.071  0.00  0.00    +0.135 C 
ATOM     15  C   UNL     1       0.609  -4.107  -1.844  0.00  0.00    +0.035 C 
ATOM     16  C   UNL     1       1.545  -4.951  -0.950  0.00  0.00    +0.031 C 
ATOM     17  C   UNL     1       1.839  -4.034   0.257  0.00  0.00    +0.160 C 
ATOM     18  O   UNL     1       0.723  -3.119   0.306  0.00  0.00    -0.375 OA
ENDBRANCH  13  14
ENDBRANCH  10  13
ENDBRANCH   4   7
BRANCH   1  19
ATOM     19  N   UNL     1      -7.088   3.838  -0.303  0.00  0.00    -0.333 N 
ATOM     20  H   UNL     1      -8.055   3.314  -0.296  0.00  0.00    +0.147 HD
BRANCH  19  21
ATOM     21  C   UNL     1      -7.047   5.300  -0.396  0.00  0.00    +0.154 C 
ATOM     22  C   UNL     1      -6.867   5.713  -1.858  0.00  0.00    +0.038 C 
BRANCH  21  24
ATOM     23  N   UNL     1      -8.526   7.207   0.146  0.00  0.00    -0.311 N 
ATOM     24  C   UNL     1      -8.337   5.873   0.133  0.00  0.00    +0.233 C 
ATOM     25  O   UNL     1      -9.204   5.133   0.547  0.00  0.00    -0.274 OA
ATOM     26  H   UNL     1      -7.739   7.878  -0.229  0.00  0.00    +0.149 HD
BRANCH  23  27
ATOM     27  C   UNL     1      -9.779   7.764   0.661  0.00  0.00    +0.070 C 
ATOM     28  C   UNL     1      -9.687   7.910   2.181  0.00  0.00    +0.028 C 
BRANCH  27  30
ATOM     29  C   UNL     1     -10.240   8.976  -1.475  0.00  0.00    +0.005 C 
ATOM     30  C   UNL     1     -10.023   9.137   0.031  0.00  0.00    +0.018 C 
ENDBRANCH  27  30
ENDBRANCH  23  27
ENDBRANCH  21  24
ENDBRANCH  19  21
ENDBRANCH   1  19
TORSDOF 8
