REMARK  Name = ZINC09160365
REMARK  12 active torsions:
REMARK  status: ('A' for Active; 'I' for Inactive)
REMARK    1  A    between atoms: C_1  and  C_2
REMARK    2  A    between atoms: C_2  and  C_3
REMARK    3  A    between atoms: C_3  and  C_4
REMARK    4  A    between atoms: C_4  and  N_5
REMARK    5  A    between atoms: C_15  and  C_25
REMARK    6  A    between atoms: C_16  and  O_24
REMARK    7  A    between atoms: N_19  and  C_20
REMARK    8  A    between atoms: C_20  and  C_21
REMARK    9  A    between atoms: C_21  and  N_65
REMARK   10  A    between atoms: C_22  and  N_65
REMARK   11  A    between atoms: C_23  and  N_65
REMARK   12  A    between atoms: C_25  and  C_27
REMARK                            x       y       z     vdW  Elec       q    Type
REMARK                         _______ _______ _______ _____ _____    ______ ____
ROOT
ATOM      1  N   UNL     1       2.249  -2.438  -0.512  0.00  0.00    -0.269 N 
ATOM      2  C   UNL     1       2.084  -1.826  -1.756  0.00  0.00    +0.042 A 
ATOM      3  C   UNL     1       2.313  -2.305  -3.044  0.00  0.00    +0.024 A 
ATOM      4  C   UNL     1       2.071  -1.500  -4.137  0.00  0.00    +0.002 A 
ATOM      5  C   UNL     1       1.600  -0.211  -3.965  0.00  0.00    +0.000 A 
ATOM      6  C   UNL     1       1.371   0.273  -2.689  0.00  0.00    +0.008 A 
ATOM      7  C   UNL     1       1.611  -0.528  -1.595  0.00  0.00    +0.011 A 
ATOM      8  C   UNL     1       1.471  -0.318  -0.111  0.00  0.00    +0.174 C 
ATOM      9  C   UNL     1       1.911  -1.622   0.504  0.00  0.00    +0.253 C 
ATOM     10  O   UNL     1       1.953  -1.886   1.687  0.00  0.00    -0.272 OA
ATOM     11  C   UNL     1       0.052   0.009   0.265  0.00  0.00    +0.086 C 
ATOM     12  C   UNL     1       0.087   1.211   0.890  0.00  0.00    +0.189 C 
ATOM     13  C   UNL     1       1.485   1.691   0.940  0.00  0.00    +0.283 C 
ATOM     14  O   UNL     1       1.845   2.739   1.438  0.00  0.00    -0.267 OA
ATOM     15  N   UNL     1       2.300   0.793   0.352  0.00  0.00    -0.275 N 
ENDROOT
BRANCH  12  16
ATOM     16  O   UNL     1      -0.986   1.870   1.385  0.00  0.00    -0.502 OA
ATOM     17  H   UNL     1      -0.688   2.732   1.795  0.00  0.00    +0.292 HD
ENDBRANCH  12  16
BRANCH  11  18
ATOM     18  C   UNL     1      -1.137  -0.811   0.005  0.00  0.00    +0.231 C 
ATOM     19  O   UNL     1      -1.012  -1.980  -0.315  0.00  0.00    -0.283 OA
BRANCH  18  20
ATOM     20  C   UNL     1      -2.477  -0.223   0.130  0.00  0.00    +0.176 A 
ATOM     21  C   UNL     1      -3.647  -0.913   0.048  0.00  0.00    +0.061 A 
ATOM     22  C   UNL     1      -4.711   0.071   0.233  0.00  0.00    +0.021 A 
ATOM     23  C   UNL     1      -6.107   0.003   0.260  0.00  0.00    +0.011 A 
ATOM     24  C   UNL     1      -6.837   1.141   0.455  0.00  0.00    +0.001 A 
ATOM     25  C   UNL     1      -6.201   2.363   0.627  0.00  0.00    +0.004 A 
ATOM     26  C   UNL     1      -4.826   2.452   0.605  0.00  0.00    +0.047 A 
ATOM     27  C   UNL     1      -4.062   1.308   0.408  0.00  0.00    +0.136 A 
ATOM     28  O   UNL     1      -2.734   1.085   0.339  0.00  0.00    -0.452 OA
ENDBRANCH  18  20
ENDBRANCH  11  18
BRANCH   1  29
ATOM     29  C   UNL     1       2.733  -3.809  -0.333  0.00  0.00    +0.114 C 
BRANCH  29  30
ATOM     30  C   UNL     1       1.561  -4.784  -0.458  0.00  0.00    +0.019 C 
BRANCH  30  32
ATOM     31  C   UNL     1       0.871  -7.178  -0.273  0.00  0.00    +0.004 C 
ATOM     32  C   UNL     1       2.043  -6.203  -0.148  0.00  0.00    -0.002 C 
ENDBRANCH  30  32
ENDBRANCH  29  30
ENDBRANCH   1  29
BRANCH  15  33
ATOM     33  C   UNL     1       3.752   0.910   0.203  0.00  0.00    +0.091 C 
BRANCH  33  34
ATOM     34  C   UNL     1       4.074   1.616  -1.116  0.00  0.00    -0.060 C 
BRANCH  34  37
ATOM     35  C   UNL     1       6.153   0.411  -1.416  0.00  0.00    -0.097 C 
ATOM     36  C   UNL     1       5.876   2.608  -2.394  0.00  0.00    -0.097 C 
ATOM     37  N   UNL     1       5.542   1.745  -1.242  0.00  0.00    +0.377 N 
ATOM     38  H   UNL     1       5.913   2.174  -0.386  0.00  0.00    -0.083 HD
ENDBRANCH  34  37
ENDBRANCH  33  34
ENDBRANCH  15  33
TORSDOF 9
