REMARK  Name = ZINC39675226
REMARK  9 active torsions:
REMARK  status: ('A' for Active; 'I' for Inactive)
REMARK    1  A    between atoms: C_1  and  C_2
REMARK    2  A    between atoms: C_2  and  C_4
REMARK    3  A    between atoms: C_2  and  N_14
REMARK    4  A    between atoms: C_4  and  C_5
REMARK    5  A    between atoms: C_5  and  C_6
REMARK    6  A    between atoms: C_9  and  O_12
REMARK    7  A    between atoms: O_12  and  C_13
REMARK    8  A    between atoms: C_15  and  C_17
REMARK    9  A    between atoms: C_28  and  C_30
REMARK                            x       y       z     vdW  Elec       q    Type
REMARK                         _______ _______ _______ _____ _____    ______ ____
ROOT
ATOM      1  C   UNL     1      -3.458  -1.169  -1.130  0.00  0.00    +0.100 C 
ATOM      2  C   UNL     1      -3.481  -2.658  -0.720  0.00  0.00    +0.121 C 
ATOM      3  N   UNL     1      -4.545  -3.261  -1.556  0.00  0.00    -0.296 N 
ATOM      4  C   UNL     1      -4.388  -2.608  -2.878  0.00  0.00    +0.115 C 
ATOM      5  C   UNL     1      -4.054  -1.140  -2.547  0.00  0.00    -0.004 C 
ATOM      6  C   UNL     1      -5.322  -0.292  -2.571  0.00  0.00    -0.010 C 
ATOM      7  C   UNL     1      -5.864  -0.233  -4.001  0.00  0.00    -0.082 C 
ATOM      8  N   UNL     1      -4.848   0.346  -4.888  0.00  0.00    +0.379 N 
ATOM      9  C   UNL     1      -3.666  -0.524  -4.931  0.00  0.00    -0.082 C 
ATOM     10  C   UNL     1      -3.031  -0.596  -3.540  0.00  0.00    -0.010 C 
ATOM     11  C   UNL     1      -5.450  -4.192  -1.197  0.00  0.00    +0.249 C 
ATOM     12  O   UNL     1      -5.515  -4.563  -0.041  0.00  0.00    -0.270 OA
ATOM     13  H   UNL     1      -5.229   0.441  -5.817  0.00  0.00    -0.086 HD
ATOM     14  H   UNL     1      -4.581   1.256  -4.543  0.00  0.00    -0.086 HD
ENDROOT
BRANCH  11  15
ATOM     15  C   UNL     1      -6.363  -4.762  -2.207  0.00  0.00    +0.072 A 
ATOM     16  C   UNL     1      -5.922  -4.963  -3.517  0.00  0.00    +0.019 A 
ATOM     17  C   UNL     1      -6.778  -5.495  -4.456  0.00  0.00    +0.039 A 
ATOM     18  C   UNL     1      -8.078  -5.832  -4.104  0.00  0.00    +0.126 A 
ATOM     19  C   UNL     1      -8.523  -5.636  -2.807  0.00  0.00    +0.077 A 
ATOM     20  C   UNL     1      -7.672  -5.108  -1.855  0.00  0.00    +0.138 A 
ATOM     21  F   UNL     1      -8.105  -4.922  -0.589  0.00  0.00    -0.205 F 
ATOM     22  F   UNL     1      -8.912  -6.353  -5.030  0.00  0.00    -0.205 F 
ENDBRANCH  11  15
BRANCH   1  24
ATOM     23  N   UNL     1      -1.810   0.675  -1.062  0.00  0.00    -0.312 N 
ATOM     24  C   UNL     1      -2.043  -0.650  -1.145  0.00  0.00    +0.218 C 
ATOM     25  O   UNL     1      -1.114  -1.425  -1.231  0.00  0.00    -0.275 OA
ATOM     26  H   UNL     1      -2.554   1.295  -0.993  0.00  0.00    +0.149 HD
BRANCH  23  28
ATOM     27  C   UNL     1       0.035   1.336  -2.524  0.00  0.00    +0.028 C 
ATOM     28  C   UNL     1      -0.435   1.179  -1.076  0.00  0.00    +0.070 C 
BRANCH  28  29
ATOM     29  C   UNL     1      -0.382   2.537  -0.373  0.00  0.00    +0.026 C 
BRANCH  29  30
ATOM     30  C   UNL     1      -0.733   2.360   1.105  0.00  0.00    +0.037 C 
BRANCH  30  31
ATOM     31  C   UNL     1      -0.681   3.697   1.798  0.00  0.00    -0.047 A 
ATOM     32  C   UNL     1       0.502   4.136   2.363  0.00  0.00    +0.007 A 
ATOM     33  C   UNL     1       0.552   5.362   2.999  0.00  0.00    +0.046 A 
ATOM     34  C   UNL     1      -0.586   6.152   3.069  0.00  0.00    +0.120 A 
ATOM     35  C   UNL     1      -1.771   5.710   2.501  0.00  0.00    +0.046 A 
ATOM     36  C   UNL     1      -1.815   4.486   1.862  0.00  0.00    +0.007 A 
BRANCH  34  37
ATOM     37  O   UNL     1      -0.539   7.358   3.695  0.00  0.00    -0.495 OA
ATOM     38  C   UNL     1      -1.748   8.118   3.729  0.00  0.00    +0.277 C 
ENDBRANCH  34  37
ENDBRANCH  30  31
ENDBRANCH  29  30
ENDBRANCH  28  29
ENDBRANCH  23  28
ENDBRANCH   1  24
TORSDOF 7
