REMARK  Name = ZINC25460108
REMARK  10 active torsions:
REMARK  status: ('A' for Active; 'I' for Inactive)
REMARK    1  A    between atoms: C_1  and  O_2
REMARK    2  A    between atoms: O_2  and  C_3
REMARK    3  A    between atoms: C_3  and  C_5
REMARK    4  A    between atoms: C_6  and  C_22
REMARK    5  A    between atoms: N_7  and  C_19
REMARK    6  A    between atoms: C_11  and  C_13
REMARK    7  A    between atoms: C_22  and  S_23
REMARK    8  A    between atoms: S_23  and  C_24
REMARK    9  A    between atoms: N_30  and  C_31
REMARK   10  A    between atoms: C_31  and  C_32
REMARK                            x       y       z     vdW  Elec       q    Type
REMARK                         _______ _______ _______ _____ _____    ______ ____
ROOT
ATOM      1  C   UNL     1       4.885   5.132   1.113  0.00  0.00    +0.079 C 
ATOM      2  C   UNL     1       4.285   4.897  -0.074  0.00  0.00    +0.037 C 
ATOM      3  N   UNL     1       4.733   5.490  -1.219  0.00  0.00    -0.255 N 
ATOM      4  C   UNL     1       5.768   6.338  -1.261  0.00  0.00    +0.307 C 
ATOM      5  O   UNL     1       6.090   6.821  -2.329  0.00  0.00    -0.252 OA
ATOM      6  N   UNL     1       6.468   6.670  -0.158  0.00  0.00    -0.288 N 
ATOM      7  C   UNL     1       6.067   6.079   1.131  0.00  0.00    +0.144 C 
ATOM      8  H   UNL     1       7.319   7.365  -0.203  0.00  0.00    +0.151 HD
ENDROOT
BRANCH   7   9
ATOM      9  C   UNL     1       5.746   7.206   2.079  0.00  0.00    -0.023 A 
ATOM     10  C   UNL     1       4.942   8.251   1.664  0.00  0.00    +0.006 A 
ATOM     11  C   UNL     1       4.644   9.282   2.535  0.00  0.00    +0.000 A 
ATOM     12  C   UNL     1       5.158   9.273   3.818  0.00  0.00    +0.000 A 
ATOM     13  C   UNL     1       5.966   8.230   4.231  0.00  0.00    +0.000 A 
ATOM     14  C   UNL     1       6.261   7.197   3.362  0.00  0.00    +0.006 A 
ENDBRANCH   7   9
BRANCH   3  15
ATOM     15  C   UNL     1       4.038   5.186  -2.473  0.00  0.00    +0.083 C 
ATOM     16  C   UNL     1       3.697   6.358  -3.395  0.00  0.00    +0.025 C 
ATOM     17  C   UNL     1       2.588   5.655  -2.609  0.00  0.00    +0.025 C 
ENDBRANCH   3  15
BRANCH   1  18
ATOM     18  C   UNL     1       4.425   4.515   2.300  0.00  0.00    +0.339 C 
ATOM     19  O   UNL     1       3.567   3.654   2.245  0.00  0.00    -0.245 OA
BRANCH  18  21
ATOM     20  C   UNL     1       4.427   4.216   4.650  0.00  0.00    +0.280 C 
ATOM     21  O   UNL     1       4.938   4.881   3.493  0.00  0.00    -0.465 OA
ENDBRANCH  18  21
ENDBRANCH   1  18
BRANCH   2  22
ATOM     22  C   UNL     1       3.105   3.961  -0.136  0.00  0.00    +0.129 C 
BRANCH  22  23
ATOM     23  S   UNL     1       3.655   2.336  -0.711  0.00  0.00    -0.080 S 
BRANCH  23  24
ATOM     24  C   UNL     1       2.121   1.468  -0.689  0.00  0.00    +0.193 A 
ATOM     25  N   UNL     1       0.972   1.968  -0.336  0.00  0.00    -0.145 NA
ATOM     26  N   UNL     1       0.005   0.960  -0.458  0.00  0.00    -0.226 N 
ATOM     27  H   UNL     1      -1.045   1.173  -0.211  0.00  0.00    +0.194 HD
ATOM     28  C   UNL     1       0.634  -0.152  -0.891  0.00  0.00    +0.345 A 
ATOM     29  O   UNL     1       0.117  -1.234  -1.108  0.00  0.00    -0.245 OA
ATOM     30  N   UNL     1       1.939   0.151  -1.043  0.00  0.00    -0.266 N 
BRANCH  30  31
ATOM     31  C   UNL     1       2.985  -0.767  -1.500  0.00  0.00    +0.164 C 
BRANCH  31  32
ATOM     32  C   UNL     1       3.585  -1.476  -0.312  0.00  0.00    -0.028 A 
ATOM     33  C   UNL     1       4.676  -0.932   0.339  0.00  0.00    +0.005 A 
ATOM     34  C   UNL     1       5.223  -1.580   1.430  0.00  0.00    +0.000 A 
ATOM     35  C   UNL     1       4.685  -2.777   1.865  0.00  0.00    +0.000 A 
ATOM     36  C   UNL     1       3.597  -3.323   1.211  0.00  0.00    +0.000 A 
ATOM     37  C   UNL     1       3.047  -2.673   0.122  0.00  0.00    +0.005 A 
ENDBRANCH  31  32
ENDBRANCH  30  31
ENDBRANCH  23  24
ENDBRANCH  22  23
ENDBRANCH   2  22
TORSDOF 9
