REMARK  Name = ZINC39687580
REMARK  7 active torsions:
REMARK  status: ('A' for Active; 'I' for Inactive)
REMARK    1  A    between atoms: C_1  and  C_2
REMARK    2  A    between atoms: C_7  and  N_8
REMARK    3  A    between atoms: C_11  and  N_14
REMARK    4  A    between atoms: C_15  and  C_17
REMARK    5  A    between atoms: C_28  and  C_30
REMARK    6  A    between atoms: C_35  and  O_36
REMARK    7  A    between atoms: O_36  and  C_37
REMARK                            x       y       z     vdW  Elec       q    Type
REMARK                         _______ _______ _______ _____ _____    ______ ____
ROOT
ATOM      1  C   UNL     1       2.551   2.710   8.403  0.00  0.00    +0.100 C 
ATOM      2  C   UNL     1       3.926   2.017   8.267  0.00  0.00    +0.121 C 
ATOM      3  N   UNL     1       4.433   1.916   9.656  0.00  0.00    -0.296 N 
ATOM      4  C   UNL     1       3.236   1.575  10.462  0.00  0.00    +0.115 C 
ATOM      5  C   UNL     1       2.102   2.416   9.844  0.00  0.00    -0.004 C 
ATOM      6  C   UNL     1       0.799   1.623   9.840  0.00  0.00    -0.010 C 
ATOM      7  C   UNL     1       0.342   1.394  11.284  0.00  0.00    -0.082 C 
ATOM      8  N   UNL     1       0.147   2.688  11.948  0.00  0.00    +0.379 N 
ATOM      9  C   UNL     1       1.425   3.405  12.031  0.00  0.00    -0.082 C 
ATOM     10  C   UNL     1       1.929   3.719  10.619  0.00  0.00    -0.010 C 
ATOM     11  C   UNL     1       5.697   2.095  10.089  0.00  0.00    +0.250 C 
ATOM     12  O   UNL     1       6.589   2.306   9.290  0.00  0.00    -0.270 OA
ATOM     13  H   UNL     1      -0.513   3.240  11.421  0.00  0.00    -0.086 HD
ATOM     14  H   UNL     1      -0.212   2.536  12.879  0.00  0.00    -0.086 HD
ENDROOT
BRANCH  11  15
ATOM     15  C   UNL     1       5.998   2.035  11.532  0.00  0.00    +0.078 A 
ATOM     16  C   UNL     1       5.315   1.136  12.355  0.00  0.00    +0.017 A 
ATOM     17  C   UNL     1       5.601   1.085  13.702  0.00  0.00    +0.001 A 
ATOM     18  C   UNL     1       6.563   1.921  14.245  0.00  0.00    +0.004 A 
ATOM     19  C   UNL     1       7.245   2.814  13.443  0.00  0.00    +0.046 A 
ATOM     20  C   UNL     1       6.974   2.875  12.084  0.00  0.00    +0.132 A 
BRANCH  20  21
ATOM     21  O   UNL     1       7.647   3.749  11.294  0.00  0.00    -0.494 OA
ATOM     22  C   UNL     1       8.628   4.573  11.927  0.00  0.00    +0.277 C 
ENDBRANCH  20  21
ENDBRANCH  11  15
BRANCH   1  24
ATOM     23  N   UNL     1       0.583   2.894   6.917  0.00  0.00    -0.312 N 
ATOM     24  C   UNL     1       1.571   2.127   7.419  0.00  0.00    +0.218 C 
ATOM     25  O   UNL     1       1.670   0.967   7.078  0.00  0.00    -0.275 OA
ATOM     26  H   UNL     1       0.503   3.822   7.189  0.00  0.00    +0.149 HD
BRANCH  23  30
ATOM     27  N   UNL     1      -2.076   2.442   3.706  0.00  0.00    -0.316 N 
ATOM     28  C   UNL     1      -2.687   2.499   5.041  0.00  0.00    +0.108 C 
ATOM     29  C   UNL     1      -1.681   3.116   6.018  0.00  0.00    +0.041 C 
ATOM     30  C   UNL     1      -0.370   2.327   5.960  0.00  0.00    +0.076 C 
ATOM     31  C   UNL     1       0.214   2.410   4.548  0.00  0.00    +0.041 C 
ATOM     32  C   UNL     1      -0.773   1.780   3.553  0.00  0.00    +0.108 C 
BRANCH  27  39
ATOM     33  C   UNL     1      -4.015   0.855   2.359  0.00  0.00    +0.047 C 
ATOM     34  C   UNL     1      -3.676   2.256   1.920  0.00  0.00    -0.012 A 
ATOM     35  C   UNL     1      -4.314   2.824   0.832  0.00  0.00    +0.008 A 
ATOM     36  C   UNL     1      -3.971   4.118   0.463  0.00  0.00    +0.018 A 
ATOM     37  C   UNL     1      -3.009   4.794   1.187  0.00  0.00    +0.084 A 
ATOM     38  N   UNL     1      -2.416   4.227   2.221  0.00  0.00    -0.349 N 
ATOM     39  C   UNL     1      -2.721   2.998   2.607  0.00  0.00    +0.102 A 
ATOM     40  H   UNL     1      -1.744   4.725   2.712  0.00  0.00    +0.167 HD
ENDBRANCH  27  39
ENDBRANCH  23  30
ENDBRANCH   1  24
TORSDOF 5
