REMARK  Name = ZINC40019686
REMARK  16 active torsions:
REMARK  status: ('A' for Active; 'I' for Inactive)
REMARK    1  A    between atoms: C_1  and  C_2
REMARK    2  A    between atoms: C_2  and  C_3
REMARK    3  A    between atoms: C_3  and  C_4
REMARK    4  A    between atoms: C_4  and  N_5
REMARK    5  A    between atoms: N_5  and  C_6
REMARK    6  A    between atoms: N_5  and  C_10
REMARK    7  A    between atoms: C_6  and  C_7
REMARK    8  A    between atoms: C_7  and  C_8
REMARK    9  A    between atoms: C_8  and  C_9
REMARK   10  A    between atoms: C_10  and  C_11
REMARK   11  A    between atoms: C_11  and  C_12
REMARK   12  A    between atoms: C_12  and  N_13
REMARK   13  A    between atoms: C_14  and  C_32
REMARK   14  A    between atoms: C_16  and  C_21
REMARK   15  A    between atoms: C_21  and  C_23
REMARK   16  A    between atoms: C_36  and  N_38
REMARK                            x       y       z     vdW  Elec       q    Type
REMARK                         _______ _______ _______ _____ _____    ______ ____
ROOT
ATOM      1  N   UNL     1       3.679  -6.048   4.377  0.00  0.00    -0.284 N 
ATOM      2  C   UNL     1       5.094  -5.797   4.680  0.00  0.00    +0.145 C 
ATOM      3  C   UNL     1       5.336  -6.363   6.059  0.00  0.00    +0.079 C 
ATOM      4  C   UNL     1       4.159  -6.881   6.481  0.00  0.00    +0.249 C 
ATOM      5  C   UNL     1       3.136  -6.677   5.435  0.00  0.00    +0.288 C 
ATOM      6  O   UNL     1       1.976  -7.028   5.517  0.00  0.00    -0.266 OA
ATOM      7  O   UNL     1       3.950  -7.486   7.674  0.00  0.00    -0.282 OA
ENDROOT
BRANCH   2   8
ATOM      8  C   UNL     1       5.371  -4.316   4.670  0.00  0.00    -0.020 A 
ATOM      9  C   UNL     1       4.559  -3.456   5.387  0.00  0.00    +0.006 A 
ATOM     10  C   UNL     1       4.814  -2.098   5.378  0.00  0.00    +0.003 A 
ATOM     11  C   UNL     1       5.879  -1.598   4.653  0.00  0.00    +0.033 A 
ATOM     12  C   UNL     1       6.691  -2.458   3.937  0.00  0.00    +0.127 A 
ATOM     13  C   UNL     1       6.439  -3.817   3.949  0.00  0.00    +0.038 A 
BRANCH  12  14
ATOM     14  N   UNL     1       7.831  -1.923   3.159  0.00  0.00    +0.056 N 
ATOM     15  O   UNL     1       8.112  -0.749   3.227  0.00  0.00    -0.126 OA
ATOM     16  O   UNL     1       8.482  -2.661   2.456  0.00  0.00    -0.126 OA
ENDBRANCH  12  14
ENDBRANCH   2   8
BRANCH   3  17
ATOM     17  C   UNL     1       6.603  -6.354   6.799  0.00  0.00    +0.230 C 
ATOM     18  O   UNL     1       6.677  -5.783   7.873  0.00  0.00    -0.283 OA
BRANCH  17  19
ATOM     19  C   UNL     1       7.781  -7.033   6.245  0.00  0.00    +0.176 A 
ATOM     20  C   UNL     1       8.977  -7.171   6.881  0.00  0.00    +0.061 A 
ATOM     21  C   UNL     1       9.842  -7.906   5.960  0.00  0.00    +0.021 A 
ATOM     22  C   UNL     1      11.164  -8.355   6.016  0.00  0.00    +0.011 A 
ATOM     23  C   UNL     1      11.694  -9.034   4.954  0.00  0.00    +0.001 A 
ATOM     24  C   UNL     1      10.927  -9.278   3.823  0.00  0.00    +0.004 A 
ATOM     25  C   UNL     1       9.621  -8.843   3.748  0.00  0.00    +0.047 A 
ATOM     26  C   UNL     1       9.060  -8.151   4.815  0.00  0.00    +0.136 A 
ATOM     27  O   UNL     1       7.841  -7.620   5.032  0.00  0.00    -0.452 OA
ENDBRANCH  17  19
ENDBRANCH   3  17
BRANCH   1  28
ATOM     28  C   UNL     1       2.982  -5.674   3.144  0.00  0.00    +0.107 C 
BRANCH  28  29
ATOM     29  C   UNL     1       2.395  -4.270   3.297  0.00  0.00    +0.000 C 
BRANCH  29  30
ATOM     30  C   UNL     1       1.666  -3.879   2.009  0.00  0.00    -0.077 C 
BRANCH  30  31
ATOM     31  N   UNL     1       1.039  -2.562   2.182  0.00  0.00    +0.380 N 
ATOM     32  H   UNL     1       0.439  -2.579   2.993  0.00  0.00    -0.082 HD
BRANCH  31  33
ATOM     33  C   UNL     1       2.082  -1.544   2.364  0.00  0.00    -0.079 C 
BRANCH  33  34
ATOM     34  C   UNL     1       1.428  -0.194   2.667  0.00  0.00    -0.019 C 
BRANCH  34  36
ATOM     35  C   UNL     1       1.861   2.217   3.160  0.00  0.00    +0.004 C 
ATOM     36  C   UNL     1       2.514   0.867   2.857  0.00  0.00    -0.005 C 
ENDBRANCH  34  36
ENDBRANCH  33  34
ENDBRANCH  31  33
BRANCH  31  37
ATOM     37  C   UNL     1       0.242  -2.240   0.990  0.00  0.00    -0.079 C 
BRANCH  37  38
ATOM     38  C   UNL     1      -0.931  -3.215   0.882  0.00  0.00    -0.019 C 
BRANCH  38  39
ATOM     39  C   UNL     1      -1.750  -2.892  -0.369  0.00  0.00    -0.005 C 
ATOM     40  C   UNL     1      -2.924  -3.867  -0.477  0.00  0.00    +0.004 C 
ENDBRANCH  38  39
ENDBRANCH  37  38
ENDBRANCH  31  37
ENDBRANCH  30  31
ENDBRANCH  29  30
ENDBRANCH  28  29
ENDBRANCH   1  28
TORSDOF 14
