REMARK  Name = ZINC12983435
REMARK  8 active torsions:
REMARK  status: ('A' for Active; 'I' for Inactive)
REMARK    1  A    between atoms: C_1  and  N_2
REMARK    2  A    between atoms: N_2  and  C_3
REMARK    3  A    between atoms: C_8  and  C_9
REMARK    4  A    between atoms: N_11  and  C_12
REMARK    5  A    between atoms: C_12  and  C_13
REMARK    6  A    between atoms: C_18  and  C_20
REMARK    7  A    between atoms: C_20  and  N_63
REMARK    8  A    between atoms: C_24  and  C_27
REMARK                            x       y       z     vdW  Elec       q    Type
REMARK                         _______ _______ _______ _____ _____    ______ ____
ROOT
ATOM      1  C   UNL     1       0.222  11.062  -4.698  0.00  0.00    +0.138 C 
ATOM      2  N   UNL     1       1.004  10.315  -3.710  0.00  0.00    -0.275 N 
ATOM      3  C   UNL     1       0.399   9.798  -2.623  0.00  0.00    +0.203 C 
ATOM      4  O   UNL     1       1.047   9.180  -1.805  0.00  0.00    -0.277 OA
ENDROOT
BRANCH   2   5
ATOM      5  C   UNL     1       2.374  10.139  -3.895  0.00  0.00    +0.048 A 
ATOM      6  C   UNL     1       2.848   9.031  -4.584  0.00  0.00    +0.024 A 
ATOM      7  C   UNL     1       4.205   8.861  -4.771  0.00  0.00    +0.002 A 
ATOM      8  C   UNL     1       5.104   9.786  -4.264  0.00  0.00    +0.001 A 
ATOM      9  C   UNL     1       4.651  10.889  -3.573  0.00  0.00    +0.015 A 
ATOM     10  C   UNL     1       3.281  11.077  -3.381  0.00  0.00    +0.058 A 
BRANCH  10  11
ATOM     11  C   UNL     1       2.790  12.256  -2.641  0.00  0.00    +0.246 C 
ATOM     12  O   UNL     1       1.596  12.416  -2.476  0.00  0.00    -0.270 OA
ATOM     13  N   UNL     1       3.665  13.155  -2.149  0.00  0.00    -0.304 N 
ATOM     14  H   UNL     1       4.617  13.027  -2.281  0.00  0.00    +0.149 HD
BRANCH  13  15
ATOM     15  C   UNL     1       3.178  14.325  -1.415  0.00  0.00    +0.179 C 
BRANCH  15  16
ATOM     16  C   UNL     1       4.349  15.166  -0.975  0.00  0.00    +0.122 A 
ATOM     17  C   UNL     1       4.906  16.168  -1.678  0.00  0.00    +0.046 A 
ATOM     18  C   UNL     1       5.968  16.676  -0.895  0.00  0.00    +0.041 A 
ATOM     19  C   UNL     1       5.995  15.955   0.239  0.00  0.00    +0.195 A 
ATOM     20  O   UNL     1       5.009  15.045   0.188  0.00  0.00    -0.466 OA
ENDBRANCH  15  16
ENDBRANCH  13  15
ENDBRANCH  10  11
ENDBRANCH   2   5
BRANCH   3  21
ATOM     21  C   UNL     1      -1.082   9.989  -2.423  0.00  0.00    +0.019 C 
BRANCH  21  27
ATOM     22  C   UNL     1      -0.898  10.002  -0.009  0.00  0.00    -0.078 C 
ATOM     23  C   UNL     1      -1.462   9.390   1.275  0.00  0.00    -0.018 C 
ATOM     24  C   UNL     1      -1.148   7.892   1.303  0.00  0.00    +0.006 C 
ATOM     25  C   UNL     1      -1.740   7.231   0.055  0.00  0.00    +0.028 C 
ATOM     26  C   UNL     1      -1.168   7.905  -1.194  0.00  0.00    -0.068 C 
ATOM     27  N   UNL     1      -1.526   9.339  -1.172  0.00  0.00    +0.386 N 
ATOM     28  H   UNL     1      -2.546   9.426  -1.095  0.00  0.00    -0.081 HD
BRANCH  25  29
ATOM     29  C   UNL     1      -1.385   5.767   0.045  0.00  0.00    +0.081 A 
ATOM     30  N   UNL     1      -0.201   5.223   0.031  0.00  0.00    -0.244 NA
ATOM     31  C   UNL     1      -0.017   3.886   0.022  0.00  0.00    +0.078 A 
ATOM     32  C   UNL     1       1.190   3.152   0.007  0.00  0.00    +0.029 A 
ATOM     33  C   UNL     1       1.176   1.792   0.001  0.00  0.00    +0.002 A 
ATOM     34  C   UNL     1      -0.013   1.076   0.008  0.00  0.00    +0.001 A 
ATOM     35  C   UNL     1      -1.215   1.757   0.017  0.00  0.00    +0.017 A 
ATOM     36  C   UNL     1      -1.212   3.130   0.030  0.00  0.00    +0.039 A 
ATOM     37  S   UNL     1      -2.454   4.399   0.048  0.00  0.00    -0.072 S 
ENDBRANCH  25  29
ENDBRANCH  21  27
ENDBRANCH   3  21
TORSDOF 7
