REMARK  Name = ZINC09836378
REMARK  8 active torsions:
REMARK  status: ('A' for Active; 'I' for Inactive)
REMARK    1  A    between atoms: C_1  and  C_2
REMARK    2  A    between atoms: C_2  and  C_4
REMARK    3  A    between atoms: C_2  and  S_19
REMARK    4  A    between atoms: N_6  and  C_7
REMARK    5  A    between atoms: S_19  and  C_20
REMARK    6  A    between atoms: C_23  and  C_28
REMARK    7  A    between atoms: N_24  and  C_25
REMARK    8  A    between atoms: C_28  and  C_29
REMARK                            x       y       z     vdW  Elec       q    Type
REMARK                         _______ _______ _______ _____ _____    ______ ____
ROOT
ATOM      1  C   UNL     1      -2.217   0.126  -2.159  0.00  0.00    +0.029 C 
ATOM      2  C   UNL     1      -2.354   1.237  -1.117  0.00  0.00    +0.137 C 
ENDROOT
BRANCH   2   3
ATOM      3  C   UNL     1      -3.581   2.059  -1.416  0.00  0.00    +0.230 C 
ATOM      4  O   UNL     1      -3.485   3.078  -2.067  0.00  0.00    -0.274 OA
ATOM      5  N   UNL     1      -4.786   1.661  -0.962  0.00  0.00    -0.285 N 
ATOM      6  H   UNL     1      -4.854   0.884  -0.386  0.00  0.00    +0.155 HD
BRANCH   5   7
ATOM      7  C   UNL     1      -5.939   2.370  -1.321  0.00  0.00    +0.035 A 
ATOM      8  C   UNL     1      -7.134   1.691  -1.532  0.00  0.00    +0.025 A 
ATOM      9  C   UNL     1      -8.274   2.384  -1.886  0.00  0.00    +0.029 A 
ATOM     10  C   UNL     1      -8.228   3.763  -2.033  0.00  0.00    +0.067 A 
ATOM     11  C   UNL     1      -7.030   4.448  -1.821  0.00  0.00    +0.069 A 
ATOM     12  C   UNL     1      -5.888   3.749  -1.461  0.00  0.00    +0.051 A 
ATOM     13  N   UNL     1      -7.294   5.798  -2.039  0.00  0.00    -0.306 N 
ATOM     14  H   UNL     1      -6.651   6.521  -1.967  0.00  0.00    +0.170 HD
ATOM     15  C   UNL     1      -8.593   5.929  -2.368  0.00  0.00    +0.325 A 
ATOM     16  O   UNL     1      -9.149   6.981  -2.622  0.00  0.00    -0.247 OA
ATOM     17  N   UNL     1      -9.184   4.720  -2.373  0.00  0.00    -0.306 N 
ATOM     18  H   UNL     1     -10.116   4.543  -2.578  0.00  0.00    +0.170 HD
ENDBRANCH   5   7
ENDBRANCH   2   3
BRANCH   2  19
ATOM     19  S   UNL     1      -0.889   2.299  -1.171  0.00  0.00    -0.074 S 
BRANCH  19  20
ATOM     20  C   UNL     1       0.341   1.150  -0.649  0.00  0.00    +0.193 A 
ATOM     21  N   UNL     1       0.148  -0.109  -0.332  0.00  0.00    -0.122 NA
ATOM     22  N   UNL     1       1.266  -0.652  -0.003  0.00  0.00    -0.133 NA
ATOM     23  C   UNL     1       2.230   0.220  -0.090  0.00  0.00    +0.139 A 
ATOM     24  N   UNL     1       1.676   1.399  -0.505  0.00  0.00    -0.303 N 
BRANCH  24  25
ATOM     25  C   UNL     1       2.370   2.667  -0.745  0.00  0.00    +0.091 C 
ATOM     26  C   UNL     1       1.518   3.936  -0.820  0.00  0.00    +0.027 C 
ATOM     27  C   UNL     1       2.140   3.354  -2.092  0.00  0.00    +0.027 C 
ENDBRANCH  24  25
BRANCH  23  28
ATOM     28  C   UNL     1       3.686  -0.026   0.211  0.00  0.00    +0.118 C 
BRANCH  28  29
ATOM     29  C   UNL     1       4.388  -0.482  -1.042  0.00  0.00    -0.003 A 
ATOM     30  C   UNL     1       5.004   0.260  -1.995  0.00  0.00    +0.011 A 
ATOM     31  C   UNL     1       5.588  -0.381  -3.071  0.00  0.00    +0.008 A 
ATOM     32  C   UNL     1       5.528  -1.734  -3.142  0.00  0.00    +0.045 A 
ATOM     33  S   UNL     1       4.630  -2.142  -1.654  0.00  0.00    -0.101 S 
ENDBRANCH  28  29
ENDBRANCH  23  28
ENDBRANCH  19  20
ENDBRANCH   2  19
TORSDOF 7
