REMARK  Name = ZINC35452700
REMARK  10 active torsions:
REMARK  status: ('A' for Active; 'I' for Inactive)
REMARK    1  A    between atoms: C_1  and  C_2
REMARK    2  A    between atoms: C_5  and  N_9
REMARK    3  A    between atoms: C_7  and  C_8
REMARK    4  A    between atoms: C_10  and  C_12
REMARK    5  A    between atoms: C_12  and  N_13
REMARK    6  A    between atoms: N_13  and  C_14
REMARK    7  A    between atoms: N_13  and  S_15
REMARK    8  A    between atoms: S_15  and  C_18
REMARK    9  A    between atoms: C_23  and  C_24
REMARK   10  A    between atoms: C_28  and  C_31
REMARK                            x       y       z     vdW  Elec       q    Type
REMARK                         _______ _______ _______ _____ _____    ______ ____
ROOT
ATOM      1  S   UNL     1      -1.560  -7.589  -3.153  0.00  0.00    +0.061 S 
ATOM      2  O   UNL     1      -1.233  -8.518  -4.178  0.00  0.00    -0.153 OA
ATOM      3  O   UNL     1      -2.500  -7.884  -2.129  0.00  0.00    -0.153 OA
ENDROOT
BRANCH   1   4
ATOM      4  C   UNL     1      -2.135  -6.132  -3.960  0.00  0.00    +0.112 A 
ATOM      5  C   UNL     1      -2.966  -5.254  -3.287  0.00  0.00    +0.076 A 
ATOM      6  C   UNL     1      -3.417  -4.110  -3.921  0.00  0.00    +0.145 A 
ATOM      7  C   UNL     1      -3.032  -3.846  -5.235  0.00  0.00    +0.076 A 
ATOM      8  C   UNL     1      -2.200  -4.728  -5.902  0.00  0.00    +0.032 A 
ATOM      9  C   UNL     1      -1.749  -5.867  -5.261  0.00  0.00    -0.022 A 
ATOM     10  C   UNL     1      -0.838  -6.826  -5.984  0.00  0.00    +0.046 C 
ATOM     11  N   UNL     1      -3.498  -2.683  -5.865  0.00  0.00    -0.280 N 
ATOM     12  C   UNL     1      -4.036  -1.700  -5.110  0.00  0.00    +0.258 C 
ATOM     13  O   UNL     1      -4.474  -0.699  -5.637  0.00  0.00    -0.271 OA
ATOM     14  C   UNL     1      -4.091  -1.853  -3.612  0.00  0.00    +0.256 C 
ATOM     15  O   UNL     1      -4.234  -3.235  -3.274  0.00  0.00    -0.478 OA
ATOM     16  C   UNL     1      -5.286  -1.070  -3.063  0.00  0.00    +0.062 C 
ATOM     17  H   UNL     1      -3.435  -2.586  -6.828  0.00  0.00    +0.155 HD
ENDBRANCH   1   4
BRANCH   1  18
ATOM     18  N   UNL     1      -0.140  -7.201  -2.395  0.00  0.00    -0.171 NA
ATOM     19  C   UNL     1       1.123  -7.248  -3.136  0.00  0.00    +0.132 C 
BRANCH  18  20
ATOM     20  C   UNL     1      -0.147  -6.811  -0.983  0.00  0.00    +0.205 C 
BRANCH  20  22
ATOM     21  N   UNL     1       0.005  -4.722   0.333  0.00  0.00    -0.284 N 
ATOM     22  C   UNL     1      -0.097  -5.309  -0.876  0.00  0.00    +0.233 C 
ATOM     23  O   UNL     1      -0.150  -4.628  -1.879  0.00  0.00    -0.274 OA
ATOM     24  H   UNL     1       0.118  -5.266   1.128  0.00  0.00    +0.155 HD
BRANCH  21  29
ATOM     25  C   UNL     1      -0.224   0.930   0.770  0.00  0.00    +0.044 C 
ATOM     26  C   UNL     1      -0.163  -0.571   0.653  0.00  0.00    -0.047 A 
ATOM     27  C   UNL     1       0.443  -1.155  -0.444  0.00  0.00    +0.005 A 
ATOM     28  C   UNL     1       0.500  -2.530  -0.554  0.00  0.00    +0.023 A 
ATOM     29  C   UNL     1      -0.051  -3.328   0.441  0.00  0.00    +0.034 A 
ATOM     30  C   UNL     1      -0.658  -2.739   1.542  0.00  0.00    +0.027 A 
ATOM     31  C   UNL     1      -0.708  -1.363   1.647  0.00  0.00    -0.046 A 
ATOM     32  C   UNL     1      -1.362  -0.723   2.845  0.00  0.00    +0.044 C 
ENDBRANCH  21  29
ENDBRANCH  20  22
ENDBRANCH  18  20
ENDBRANCH   1  18
TORSDOF 5
