REMARK  Name = ZINC09493848
REMARK  10 active torsions:
REMARK  status: ('A' for Active; 'I' for Inactive)
REMARK    1  A    between atoms: C_1  and  O_2
REMARK    2  A    between atoms: O_2  and  C_3
REMARK    3  A    between atoms: C_6  and  N_11
REMARK    4  A    between atoms: C_8  and  O_9
REMARK    5  A    between atoms: O_9  and  C_10
REMARK    6  A    between atoms: C_20  and  C_21
REMARK    7  A    between atoms: N_22  and  C_23
REMARK    8  A    between atoms: C_23  and  C_24
REMARK    9  A    between atoms: C_24  and  C_26
REMARK   10  A    between atoms: C_24  and  N_65
REMARK                            x       y       z     vdW  Elec       q    Type
REMARK                         _______ _______ _______ _____ _____    ______ ____
ROOT
ATOM      1  N   UNL     1       4.070   4.408   0.812  0.00  0.00    -0.205 N 
ATOM      2  C   UNL     1       2.759   4.121   0.870  0.00  0.00    +0.258 C 
ATOM      3  O   UNL     1       1.959   5.015   1.070  0.00  0.00    -0.269 OA
ATOM      4  C   UNL     1       2.275   2.746   0.696  0.00  0.00    +0.042 A 
ATOM      5  C   UNL     1       0.915   2.441   0.755  0.00  0.00    +0.013 A 
ATOM      6  C   UNL     1       0.500   1.137   0.586  0.00  0.00    +0.001 A 
ATOM      7  C   UNL     1       1.420   0.125   0.358  0.00  0.00    +0.000 A 
ATOM      8  C   UNL     1       2.770   0.405   0.296  0.00  0.00    +0.005 A 
ATOM      9  C   UNL     1       3.208   1.713   0.464  0.00  0.00    -0.018 A 
ATOM     10  C   UNL     1       4.641   2.068   0.407  0.00  0.00    +0.147 C 
ATOM     11  C   UNL     1       5.011   3.475   0.595  0.00  0.00    +0.239 C 
ATOM     12  O   UNL     1       6.184   3.800   0.554  0.00  0.00    -0.274 OA
ENDROOT
BRANCH   1  16
ATOM     13  C   UNL     1       5.267   8.373   1.326  0.00  0.00    +0.162 A 
ATOM     14  C   UNL     1       4.386   8.040   0.309  0.00  0.00    +0.051 A 
ATOM     15  C   UNL     1       3.990   6.727   0.139  0.00  0.00    +0.028 A 
ATOM     16  C   UNL     1       4.473   5.739   0.987  0.00  0.00    +0.048 A 
ATOM     17  C   UNL     1       5.350   6.071   2.010  0.00  0.00    +0.073 A 
ATOM     18  C   UNL     1       5.752   7.385   2.178  0.00  0.00    +0.163 A 
BRANCH  13  20
ATOM     19  C   UNL     1       5.118  10.628   0.583  0.00  0.00    +0.277 C 
ATOM     20  O   UNL     1       5.656   9.666   1.493  0.00  0.00    -0.491 OA
ENDBRANCH  13  20
BRANCH  18  21
ATOM     21  O   UNL     1       6.616   7.711   3.176  0.00  0.00    -0.491 OA
ATOM     22  C   UNL     1       7.073   6.646   4.012  0.00  0.00    +0.277 C 
ENDBRANCH  18  21
ENDBRANCH   1  16
BRANCH  10  23
ATOM     23  C   UNL     1       5.601   1.106   0.183  0.00  0.00    +0.095 C 
ATOM     24  N   UNL     1       5.288  -0.017  -0.515  0.00  0.00    -0.296 NA
BRANCH  24  25
ATOM     25  C   UNL     1       6.309  -1.040  -0.753  0.00  0.00    +0.133 C 
BRANCH  25  26
ATOM     26  C   UNL     1       5.701  -2.191  -1.557  0.00  0.00    +0.021 C 
BRANCH  26  31
ATOM     27  C   UNL     1       6.064  -0.802  -3.524  0.00  0.00    -0.078 C 
ATOM     28  C   UNL     1       5.497  -0.785  -4.965  0.00  0.00    -0.020 C 
ATOM     29  C   UNL     1       4.973  -2.228  -5.148  0.00  0.00    -0.020 C 
ATOM     30  C   UNL     1       4.751  -2.759  -3.720  0.00  0.00    -0.078 C 
ATOM     31  N   UNL     1       5.100  -1.661  -2.818  0.00  0.00    +0.388 N 
ATOM     32  H   UNL     1       4.257  -1.120  -2.588  0.00  0.00    -0.081 HD
ENDBRANCH  26  31
BRANCH  26  33
ATOM     33  C   UNL     1       6.779  -3.184  -1.907  0.00  0.00    +0.093 A 
ATOM     34  C   UNL     1       6.947  -4.394  -1.343  0.00  0.00    +0.043 A 
ATOM     35  C   UNL     1       8.068  -4.986  -1.970  0.00  0.00    +0.041 A 
ATOM     36  C   UNL     1       8.522  -4.099  -2.873  0.00  0.00    +0.195 A 
ATOM     37  O   UNL     1       7.737  -3.010  -2.831  0.00  0.00    -0.469 OA
ENDBRANCH  26  33
ENDBRANCH  25  26
ENDBRANCH  24  25
ENDBRANCH  10  23
TORSDOF 8
