REMARK  Name = ZINC51630502
REMARK  3 active torsions:
REMARK  status: ('A' for Active; 'I' for Inactive)
REMARK    1  A    between atoms: C_9  and  N_12
REMARK    2  A    between atoms: C_13  and  C_15
REMARK    3  A    between atoms: C_16  and  N_20
REMARK                            x       y       z     vdW  Elec       q    Type
REMARK                         _______ _______ _______ _____ _____    ______ ____
ROOT
ATOM      1  N   UNL     1       4.868  -2.832  -0.260  0.00  0.00    -0.308 N 
ATOM      2  C   UNL     1       5.823  -2.792  -1.211  0.00  0.00    +0.253 C 
ATOM      3  O   UNL     1       5.630  -2.172  -2.241  0.00  0.00    -0.270 OA
ATOM      4  H   UNL     1       5.021  -3.325   0.561  0.00  0.00    +0.149 HD
ENDROOT
BRANCH   1  13
ATOM      5  C   UNL     1      -0.017   1.375   0.010  0.00  0.00    +0.000 A 
ATOM      6  C   UNL     1       1.174   2.078   0.002  0.00  0.00    +0.000 A 
ATOM      7  C   UNL     1       2.372   1.395  -0.010  0.00  0.00    +0.004 A 
ATOM      8  C   UNL     1       2.393   0.006  -0.017  0.00  0.00    -0.042 A 
ATOM      9  C   UNL     1       1.208  -0.694  -0.015  0.00  0.00    -0.044 A 
ATOM     10  C   UNL     1       0.002  -0.004   0.002  0.00  0.00    +0.004 A 
ATOM     11  C   UNL     1       1.155  -2.199  -0.038  0.00  0.00    +0.037 C 
ATOM     12  C   UNL     1       2.501  -2.790   0.375  0.00  0.00    +0.027 C 
ATOM     13  C   UNL     1       3.599  -2.130  -0.467  0.00  0.00    +0.078 C 
ATOM     14  C   UNL     1       3.737  -0.675  -0.023  0.00  0.00    +0.057 C 
ENDBRANCH   1  13
BRANCH   2  15
ATOM     15  C   UNL     1       7.049  -3.470  -1.011  0.00  0.00    +0.094 A 
ATOM     16  C   UNL     1       8.157  -3.550  -1.855  0.00  0.00    +0.044 A 
ATOM     17  C   UNL     1       9.215  -4.296  -1.374  0.00  0.00    +0.031 A 
ATOM     18  C   UNL     1       9.109  -4.879  -0.157  0.00  0.00    +0.048 A 
ATOM     19  S   UNL     1       7.583  -4.438   0.387  0.00  0.00    -0.090 S 
BRANCH  16  20
ATOM     20  N   UNL     1       8.193  -2.921  -3.097  0.00  0.00    -0.357 N 
ATOM     21  H   UNL     1       7.431  -2.406  -3.402  0.00  0.00    +0.142 HD
ATOM     22  H   UNL     1       8.982  -2.999  -3.657  0.00  0.00    +0.142 HD
ENDBRANCH  16  20
ENDBRANCH   2  15
TORSDOF 3
