REMARK  Name = ZINC01362272
REMARK  6 active torsions:
REMARK  status: ('A' for Active; 'I' for Inactive)
REMARK    1  A    between atoms: C_1  and  C_2
REMARK    2  A    between atoms: C_2  and  C_3
REMARK    3  A    between atoms: N_7  and  C_16
REMARK    4  A    between atoms: C_10  and  C_15
REMARK    5  A    between atoms: C_16  and  C_17
REMARK    6  A    between atoms: C_27  and  C_29
REMARK                            x       y       z     vdW  Elec       q    Type
REMARK                         _______ _______ _______ _____ _____    ______ ____
ROOT
ATOM      1  C   UNL     1      -3.974  -0.575   1.166  0.00  0.00    +0.259 C 
ATOM      2  C   UNL     1      -2.938   0.520   1.183  0.00  0.00    +0.261 C 
ATOM      3  O   UNL     1      -2.562   0.988   2.237  0.00  0.00    -0.271 OA
ATOM      4  N   UNL     1      -2.430   0.977   0.019  0.00  0.00    -0.256 N 
ATOM      5  C   UNL     1      -2.973   0.520  -1.190  0.00  0.00    +0.079 A 
ATOM      6  C   UNL     1      -2.328   0.774  -2.391  0.00  0.00    +0.030 A 
ATOM      7  C   UNL     1      -2.865   0.300  -3.573  0.00  0.00    -0.048 A 
ATOM      8  C   UNL     1      -4.040  -0.430  -3.560  0.00  0.00    +0.007 A 
ATOM      9  C   UNL     1      -4.687  -0.686  -2.366  0.00  0.00    +0.048 A 
ATOM     10  C   UNL     1      -4.158  -0.210  -1.178  0.00  0.00    +0.143 A 
ATOM     11  O   UNL     1      -4.793  -0.445   0.002  0.00  0.00    -0.478 OA
ATOM     12  C   UNL     1      -2.169   0.581  -4.880  0.00  0.00    +0.044 C 
ENDROOT
BRANCH   1  14
ATOM     13  C   UNL     1      -4.323  -3.047   1.255  0.00  0.00    +0.008 C 
ATOM     14  C   UNL     1      -3.277  -1.937   1.147  0.00  0.00    +0.051 C 
ENDBRANCH   1  14
BRANCH   4  15
ATOM     15  C   UNL     1      -1.330   1.944   0.019  0.00  0.00    +0.210 C 
BRANCH  15  16
ATOM     16  C   UNL     1      -0.014   1.209   0.009  0.00  0.00    +0.238 C 
ATOM     17  O   UNL     1       0.002  -0.004   0.002  0.00  0.00    -0.274 OA
ATOM     18  N   UNL     1       1.143   1.898   0.001  0.00  0.00    -0.267 N 
ATOM     19  C   UNL     1       1.246   3.293   0.002  0.00  0.00    +0.040 A 
ATOM     20  C   UNL     1       0.234   4.255   0.023  0.00  0.00    +0.024 A 
ATOM     21  C   UNL     1       0.550   5.596   0.027  0.00  0.00    +0.002 A 
ATOM     22  C   UNL     1       1.873   6.000   0.016  0.00  0.00    +0.000 A 
ATOM     23  C   UNL     1       2.880   5.054   0.002  0.00  0.00    +0.005 A 
ATOM     24  C   UNL     1       2.568   3.708  -0.003  0.00  0.00    -0.024 A 
ATOM     25  C   UNL     1       3.456   2.484  -0.018  0.00  0.00    +0.059 C 
ATOM     26  C   UNL     1       2.480   1.297  -0.015  0.00  0.00    +0.083 C 
ATOM     27  C   UNL     1       2.667   0.453  -1.277  0.00  0.00    +0.029 C 
ENDBRANCH  15  16
ENDBRANCH   4  15
TORSDOF 3
