REMARK  Name = ZINC45643212
REMARK  10 active torsions:
REMARK  status: ('A' for Active; 'I' for Inactive)
REMARK    1  A    between atoms: C_1  and  C_2
REMARK    2  A    between atoms: C_2  and  O_3
REMARK    3  A    between atoms: O_3  and  C_4
REMARK    4  A    between atoms: C_4  and  C_6
REMARK    5  A    between atoms: C_7  and  C_31
REMARK    6  A    between atoms: C_9  and  N_11
REMARK    7  A    between atoms: C_12  and  C_14
REMARK    8  A    between atoms: C_14  and  N_15
REMARK    9  A    between atoms: C_18  and  C_22
REMARK   10  A    between atoms: C_18  and  C_23
REMARK                            x       y       z     vdW  Elec       q    Type
REMARK                         _______ _______ _______ _____ _____    ______ ____
ROOT
ATOM      1  N   UNL     1       4.692  -0.189  -8.255  0.00  0.00    -0.215 N 
ATOM      2  C   UNL     1       3.838   0.524  -9.016  0.00  0.00    +0.251 C 
ATOM      3  O   UNL     1       2.775   0.154  -9.467  0.00  0.00    -0.272 OA
ATOM      4  C   UNL     1       4.482   1.885  -9.190  0.00  0.00    +0.135 C 
ATOM      5  N   UNL     1       5.742   1.770  -8.435  0.00  0.00    -0.281 N 
ATOM      6  C   UNL     1       5.772   0.527  -7.923  0.00  0.00    +0.310 C 
ATOM      7  O   UNL     1       6.681   0.100  -7.237  0.00  0.00    -0.252 OA
ATOM      8  C   UNL     1       3.596   2.980  -8.593  0.00  0.00    +0.047 C 
ATOM      9  H   UNL     1       6.418   2.458  -8.327  0.00  0.00    +0.152 HD
ENDROOT
BRANCH   4  10
ATOM     10  C   UNL     1       4.759   2.159 -10.646  0.00  0.00    -0.014 A 
ATOM     11  C   UNL     1       3.941   1.615 -11.618  0.00  0.00    +0.008 A 
ATOM     12  C   UNL     1       4.194   1.865 -12.954  0.00  0.00    +0.022 A 
ATOM     13  C   UNL     1       5.265   2.661 -13.318  0.00  0.00    +0.059 A 
ATOM     14  C   UNL     1       6.084   3.206 -12.344  0.00  0.00    +0.060 A 
ATOM     15  C   UNL     1       5.826   2.959 -11.007  0.00  0.00    +0.027 A 
ATOM     16 CL   UNL     1       7.429   4.205 -12.799  0.00  0.00    -0.082 Cl
ATOM     17 CL   UNL     1       5.584   2.975 -14.995  0.00  0.00    -0.082 Cl
ENDBRANCH   4  10
BRANCH   1  18
ATOM     18  C   UNL     1       4.462  -1.574  -7.838  0.00  0.00    +0.214 C 
BRANCH  18  20
ATOM     19  N   UNL     1       3.396  -2.760  -5.947  0.00  0.00    -0.279 N 
ATOM     20  C   UNL     1       3.719  -1.587  -6.527  0.00  0.00    +0.236 C 
ATOM     21  O   UNL     1       3.411  -0.542  -5.994  0.00  0.00    -0.274 OA
ATOM     22  H   UNL     1       3.642  -3.596  -6.373  0.00  0.00    +0.155 HD
BRANCH  19  26
ATOM     23  C   UNL     1       1.427  -2.327  -2.478  0.00  0.00    +0.101 A 
ATOM     24  C   UNL     1       1.634  -3.655  -2.831  0.00  0.00    -0.028 A 
ATOM     25  C   UNL     1       2.302  -3.865  -4.008  0.00  0.00    +0.035 A 
ATOM     26  C   UNL     1       2.711  -2.772  -4.739  0.00  0.00    +0.073 A 
ATOM     27  S   UNL     1       2.184  -1.456  -3.836  0.00  0.00    -0.067 S 
ATOM     28  C   UNL     1       1.152  -4.795  -1.971  0.00  0.00    +0.045 C 
BRANCH  23  29
ATOM     29  C   UNL     1       0.776  -1.801  -1.335  0.00  0.00    +0.346 C 
ATOM     30  O   UNL     1       0.312  -2.553  -0.499  0.00  0.00    -0.244 OA
BRANCH  29  31
ATOM     31  O   UNL     1       0.671  -0.465  -1.174  0.00  0.00    -0.461 OA
BRANCH  31  33
ATOM     32  C   UNL     1      -0.019   1.526   0.010  0.00  0.00    +0.048 C 
ATOM     33  C   UNL     1       0.002  -0.004   0.002  0.00  0.00    +0.229 C 
ENDBRANCH  31  33
ENDBRANCH  29  31
ENDBRANCH  23  29
ENDBRANCH  19  26
ENDBRANCH  18  20
ENDBRANCH   1  18
TORSDOF 7
