REMARK  Name = ZINC55266235
REMARK  6 active torsions:
REMARK  status: ('A' for Active; 'I' for Inactive)
REMARK    1  A    between atoms: C_1  and  C_2
REMARK    2  A    between atoms: C_6  and  C_9
REMARK    3  A    between atoms: C_7  and  N_8
REMARK    4  A    between atoms: C_11  and  C_14
REMARK    5  A    between atoms: C_14  and  C_15
REMARK    6  A    between atoms: C_17  and  C_20
REMARK                            x       y       z     vdW  Elec       q    Type
REMARK                         _______ _______ _______ _____ _____    ______ ____
ROOT
ATOM      1  C   UNL     1       0.038  -2.821   2.477  0.00  0.00    +0.260 A 
ATOM      2  N   UNL     1      -0.045  -4.126   2.621  0.00  0.00    -0.191 NA
ATOM      3  C   UNL     1      -0.006  -4.445   3.916  0.00  0.00    +0.178 A 
ATOM      4  N   UNL     1       0.102  -3.355   4.622  0.00  0.00    -0.060 NA
ATOM      5  O   UNL     1       0.139  -2.274   3.702  0.00  0.00    -0.333 OA
ENDROOT
BRANCH   1  11
ATOM      6  C   UNL     1       1.970   0.688  -0.520  0.00  0.00    +0.045 C 
ATOM      7  C   UNL     1       0.957  -0.395  -0.252  0.00  0.00    -0.029 A 
ATOM      8  C   UNL     1       0.012  -0.707  -1.209  0.00  0.00    +0.005 A 
ATOM      9  C   UNL     1      -0.923  -1.701  -0.973  0.00  0.00    +0.001 A 
ATOM     10  C   UNL     1      -0.920  -2.390   0.221  0.00  0.00    +0.015 A 
ATOM     11  C   UNL     1       0.029  -2.087   1.198  0.00  0.00    +0.060 A 
ATOM     12  C   UNL     1       0.979  -1.083   0.953  0.00  0.00    +0.040 A 
BRANCH  12  13
ATOM     13  N   UNL     1       1.934  -0.775   1.917  0.00  0.00    -0.357 N 
ATOM     14  H   UNL     1       2.530  -0.021   1.785  0.00  0.00    +0.142 HD
ATOM     15  H   UNL     1       2.005  -1.315   2.720  0.00  0.00    +0.142 HD
ENDBRANCH  12  13
ENDBRANCH   1  11
BRANCH   3  16
ATOM     16  C   UNL     1      -0.077  -5.843   4.474  0.00  0.00    +0.142 C 
BRANCH  16  17
ATOM     17  C   UNL     1       1.315  -6.408   4.593  0.00  0.00    +0.086 A 
ATOM     18  N   UNL     1       2.136  -6.341   5.611  0.00  0.00    -0.249 NA
ATOM     19  C   UNL     1       3.333  -6.890   5.564  0.00  0.00    +0.046 A 
ATOM     20  C   UNL     1       3.674  -7.525   4.414  0.00  0.00    +0.070 A 
ATOM     21  S   UNL     1       2.189  -7.284   3.452  0.00  0.00    -0.080 S 
ATOM     22  C   UNL     1       4.281  -6.815   6.734  0.00  0.00    +0.066 C 
ENDBRANCH  16  17
ENDBRANCH   3  16
TORSDOF 4
