REMARK  Name = ZINC39604249
REMARK  9 active torsions:
REMARK  status: ('A' for Active; 'I' for Inactive)
REMARK    1  A    between atoms: C_1  and  C_2
REMARK    2  A    between atoms: C_2  and  O_3
REMARK    3  A    between atoms: O_3  and  C_4
REMARK    4  A    between atoms: C_4  and  C_6
REMARK    5  A    between atoms: C_6  and  C_7
REMARK    6  A    between atoms: C_7  and  N_8
REMARK    7  A    between atoms: C_9  and  C_11
REMARK    8  A    between atoms: C_22  and  C_24
REMARK    9  A    between atoms: C_27  and  C_29
REMARK                            x       y       z     vdW  Elec       q    Type
REMARK                         _______ _______ _______ _____ _____    ______ ____
ROOT
ATOM      1  C   UNL     1      -5.669  -6.465   0.021  0.00  0.00    +0.100 C 
ATOM      2  C   UNL     1      -6.365  -6.185   1.372  0.00  0.00    +0.121 C 
ATOM      3  N   UNL     1      -7.138  -7.417   1.658  0.00  0.00    -0.294 N 
ATOM      4  C   UNL     1      -6.248  -8.520   1.221  0.00  0.00    +0.115 C 
ATOM      5  C   UNL     1      -5.594  -7.998  -0.074  0.00  0.00    -0.004 C 
ATOM      6  C   UNL     1      -6.369  -8.490  -1.292  0.00  0.00    -0.010 C 
ATOM      7  C   UNL     1      -6.232 -10.012  -1.398  0.00  0.00    -0.082 C 
ATOM      8  N   UNL     1      -4.814 -10.370  -1.518  0.00  0.00    +0.379 N 
ATOM      9  C   UNL     1      -4.093  -9.976  -0.301  0.00  0.00    -0.082 C 
ATOM     10  C   UNL     1      -4.140  -8.453  -0.149  0.00  0.00    -0.010 C 
ATOM     11  C   UNL     1      -8.371  -7.513   2.193  0.00  0.00    +0.282 C 
ATOM     12  O   UNL     1      -8.875  -8.607   2.368  0.00  0.00    -0.267 OA
ATOM     13  H   UNL     1      -4.730 -11.367  -1.648  0.00  0.00    -0.086 HD
ATOM     14  H   UNL     1      -4.414  -9.895  -2.313  0.00  0.00    -0.086 HD
ENDROOT
BRANCH  11  15
ATOM     15  C   UNL     1      -9.104  -6.301   2.566  0.00  0.00    +0.190 A 
ATOM     16  C   UNL     1     -10.363  -6.257   3.125  0.00  0.00    +0.055 A 
ATOM     17  C   UNL     1     -10.672  -4.906   3.315  0.00  0.00    +0.050 A 
ATOM     18  C   UNL     1      -9.603  -4.183   2.871  0.00  0.00    +0.136 A 
ATOM     19  O   UNL     1      -8.662  -5.033   2.427  0.00  0.00    -0.450 OA
BRANCH  18  20
ATOM     20  C   UNL     1      -9.496  -2.710   2.881  0.00  0.00    +0.017 A 
ATOM     21  C   UNL     1     -10.544  -1.935   3.382  0.00  0.00    +0.014 A 
ATOM     22  C   UNL     1     -10.439  -0.560   3.389  0.00  0.00    +0.039 A 
ATOM     23  C   UNL     1      -9.295   0.053   2.902  0.00  0.00    +0.123 A 
ATOM     24  C   UNL     1      -8.252  -0.712   2.403  0.00  0.00    +0.039 A 
ATOM     25  C   UNL     1      -8.344  -2.087   2.396  0.00  0.00    +0.014 A 
ATOM     26  F   UNL     1      -9.197   1.400   2.912  0.00  0.00    -0.205 F 
ENDBRANCH  18  20
ENDBRANCH  11  15
BRANCH   1  28
ATOM     27  N   UNL     1      -3.728  -5.477  -1.152  0.00  0.00    -0.314 N 
ATOM     28  C   UNL     1      -4.285  -5.870   0.011  0.00  0.00    +0.218 C 
ATOM     29  O   UNL     1      -3.671  -5.745   1.050  0.00  0.00    -0.275 OA
ATOM     30  H   UNL     1      -4.219  -5.577  -1.982  0.00  0.00    +0.149 HD
BRANCH  27  31
ATOM     31  C   UNL     1      -2.382  -4.899  -1.161  0.00  0.00    +0.115 C 
BRANCH  31  32
ATOM     32  C   UNL     1      -1.992  -4.540  -2.596  0.00  0.00    +0.139 C 
BRANCH  32  33
ATOM     33  C   UNL     1      -0.607  -3.945  -2.607  0.00  0.00    +0.309 C 
ATOM     34  O   UNL     1       0.004  -3.821  -1.572  0.00  0.00    -0.251 OA
BRANCH  33  35
ATOM     35  O   UNL     1      -0.053  -3.554  -3.765  0.00  0.00    -0.465 OA
BRANCH  35  37
ATOM     36  C   UNL     1       1.723  -2.614  -5.107  0.00  0.00    +0.048 C 
ATOM     37  C   UNL     1       1.262  -2.999  -3.700  0.00  0.00    +0.229 C 
ENDBRANCH  35  37
ENDBRANCH  33  35
ENDBRANCH  32  33
ENDBRANCH  31  32
ENDBRANCH  27  31
ENDBRANCH   1  28
TORSDOF 8
