REMARK  Name = ZINC36592366
REMARK  18 active torsions:
REMARK  status: ('A' for Active; 'I' for Inactive)
REMARK    1  A    between atoms: C_1  and  C_2
REMARK    2  A    between atoms: C_5  and  S_8
REMARK    3  A    between atoms: S_8  and  C_11
REMARK    4  A    between atoms: C_11  and  N_12
REMARK    5  A    between atoms: C_13  and  C_15
REMARK    6  A    between atoms: C_15  and  C_17
REMARK    7  A    between atoms: C_15  and  N_27
REMARK    8  A    between atoms: C_20  and  O_25
REMARK    9  A    between atoms: C_21  and  O_23
REMARK   10  A    between atoms: O_23  and  C_24
REMARK   11  A    between atoms: O_25  and  C_26
REMARK   12  A    between atoms: N_27  and  C_33
REMARK   13  A    between atoms: C_28  and  C_30
REMARK   14  A    between atoms: C_30  and  O_31
REMARK   15  A    between atoms: O_31  and  C_32
REMARK   16  A    between atoms: C_33  and  C_34
REMARK   17  A    between atoms: C_33  and  C_35
REMARK   18  A    between atoms: C_33  and  C_36
REMARK                            x       y       z     vdW  Elec       q    Type
REMARK                         _______ _______ _______ _____ _____    ______ ____
ROOT
ATOM      1  C   UNL     1       2.975  -5.114   3.894  0.00  0.00    +0.193 C 
ENDROOT
BRANCH   1   2
ATOM      2  C   UNL     1       1.490  -5.298   3.715  0.00  0.00    -0.015 A 
ATOM      3  C   UNL     1       0.995  -6.503   3.253  0.00  0.00    +0.010 A 
ATOM      4  C   UNL     1      -0.366  -6.677   3.087  0.00  0.00    +0.050 A 
ATOM      5  C   UNL     1      -1.238  -5.642   3.384  0.00  0.00    +0.162 A 
ATOM      6  C   UNL     1      -0.740  -4.429   3.850  0.00  0.00    +0.162 A 
ATOM      7  C   UNL     1       0.625  -4.263   4.019  0.00  0.00    +0.055 A 
BRANCH   6   8
ATOM      8  O   UNL     1      -1.592  -3.410   4.143  0.00  0.00    -0.491 OA
ATOM      9  C   UNL     1      -1.010  -2.194   4.616  0.00  0.00    +0.277 C 
ENDBRANCH   6   8
BRANCH   5  10
ATOM     10  O   UNL     1      -2.578  -5.811   3.221  0.00  0.00    -0.491 OA
ATOM     11  C   UNL     1      -3.017  -7.083   2.739  0.00  0.00    +0.277 C 
ENDBRANCH   5  10
ENDBRANCH   1   2
BRANCH   1  13
ATOM     12  N   UNL     1       4.798  -3.933   2.712  0.00  0.00    -0.294 N 
ATOM     13  C   UNL     1       3.547  -4.433   2.678  0.00  0.00    +0.239 C 
ATOM     14  O   UNL     1       2.882  -4.334   1.669  0.00  0.00    -0.273 OA
ATOM     15  H   UNL     1       5.330  -4.011   3.519  0.00  0.00    +0.150 HD
BRANCH  12  16
ATOM     16  C   UNL     1       5.354  -3.270   1.530  0.00  0.00    +0.278 C 
BRANCH  16  17
ATOM     17  S   UNL     1       5.100  -1.479   1.664  0.00  0.00    +0.013 S 
ATOM     18  O   UNL     1       3.759  -1.202   2.044  0.00  0.00    -0.168 OA
ATOM     19  O   UNL     1       5.690  -0.816   0.555  0.00  0.00    -0.168 OA
BRANCH  17  24
ATOM     20  C   UNL     1       8.421   0.210   6.410  0.00  0.00    +0.044 C 
ATOM     21  C   UNL     1       7.591  -0.212   5.225  0.00  0.00    -0.050 A 
ATOM     22  C   UNL     1       8.148  -0.219   3.959  0.00  0.00    +0.005 A 
ATOM     23  C   UNL     1       7.387  -0.606   2.872  0.00  0.00    +0.027 A 
ATOM     24  C   UNL     1       6.070  -0.987   3.050  0.00  0.00    +0.090 A 
ATOM     25  C   UNL     1       5.514  -0.981   4.316  0.00  0.00    +0.027 A 
ATOM     26  C   UNL     1       6.276  -0.598   5.404  0.00  0.00    +0.005 A 
ENDBRANCH  17  24
ENDBRANCH  16  17
ENDBRANCH  12  16
ENDBRANCH   1  13
BRANCH   1  27
ATOM     27  N   UNL     1       3.612  -6.422   4.066  0.00  0.00    -0.279 N 
ATOM     28  C   UNL     1       3.644  -7.296   3.040  0.00  0.00    +0.243 C 
ATOM     29  O   UNL     1       4.134  -8.394   3.194  0.00  0.00    -0.273 OA
BRANCH  27  30
ATOM     30  C   UNL     1       4.213  -6.781   5.353  0.00  0.00    +0.030 C 
ATOM     31  C   UNL     1       4.270  -5.544   6.252  0.00  0.00    +0.031 C 
ATOM     32  C   UNL     1       3.368  -7.863   6.027  0.00  0.00    +0.031 C 
ATOM     33  C   UNL     1       5.630  -7.310   5.123  0.00  0.00    +0.031 C 
ENDBRANCH  27  30
BRANCH  28  34
ATOM     34  C   UNL     1       3.072  -6.907   1.701  0.00  0.00    +0.255 C 
BRANCH  34  35
ATOM     35  O   UNL     1       2.920  -8.074   0.891  0.00  0.00    -0.374 OA
ATOM     36  C   UNL     1       2.381  -7.815  -0.407  0.00  0.00    +0.194 C 
ENDBRANCH  34  35
ENDBRANCH  28  34
ENDBRANCH   1  27
TORSDOF 11
