REMARK  Name = ZINC63383730
REMARK  6 active torsions:
REMARK  status: ('A' for Active; 'I' for Inactive)
REMARK    1  A    between atoms: C_1  and  O_2
REMARK    2  A    between atoms: O_2  and  C_3
REMARK    3  A    between atoms: C_3  and  C_4
REMARK    4  A    between atoms: C_4  and  N_5
REMARK    5  A    between atoms: C_10  and  C_28
REMARK    6  A    between atoms: C_28  and  C_29
REMARK                            x       y       z     vdW  Elec       q    Type
REMARK                         _______ _______ _______ _____ _____    ______ ____
ROOT
ATOM      1  N   UNL     1       1.401  -2.532  -0.162  0.00  0.00    -0.239 N 
ATOM      2  C   UNL     1       0.862  -2.673  -1.410  0.00  0.00    +0.227 C 
ATOM      3  O   UNL     1      -0.194  -2.228  -1.805  0.00  0.00    -0.275 OA
ATOM      4  C   UNL     1       1.851  -3.494  -2.191  0.00  0.00    +0.107 C 
ATOM      5  C   UNL     1       2.178  -3.096  -3.636  0.00  0.00    +0.072 C 
ATOM      6  N   UNL     1       3.631  -3.452  -3.755  0.00  0.00    -0.295 NA
ATOM      7  C   UNL     1       4.225  -3.365  -2.385  0.00  0.00    +0.136 C 
ATOM      8  C   UNL     1       3.141  -2.878  -1.515  0.00  0.00    +0.122 C 
ATOM      9  C   UNL     1       2.742  -2.824  -0.127  0.00  0.00    +0.228 C 
ATOM     10  O   UNL     1       3.437  -3.000   0.850  0.00  0.00    -0.275 OA
ATOM     11  C   UNL     1       4.752  -4.717  -1.980  0.00  0.00    +0.005 A 
ATOM     12  C   UNL     1       4.152  -5.938  -1.766  0.00  0.00    +0.008 A 
ATOM     13  C   UNL     1       4.915  -7.029  -1.389  0.00  0.00    +0.002 A 
ATOM     14  C   UNL     1       6.281  -6.890  -1.228  0.00  0.00    +0.022 A 
ATOM     15  C   UNL     1       6.887  -5.668  -1.443  0.00  0.00    +0.062 A 
ATOM     16  C   UNL     1       6.125  -4.565  -1.823  0.00  0.00    +0.057 A 
ATOM     17  N   UNL     1       6.499  -3.247  -2.094  0.00  0.00    -0.282 N 
ATOM     18  C   UNL     1       5.447  -2.479  -2.430  0.00  0.00    +0.243 C 
ATOM     19  O   UNL     1       5.474  -1.301  -2.716  0.00  0.00    -0.273 OA
ATOM     20 CL   UNL     1       8.604  -5.506  -1.239  0.00  0.00    -0.082 Cl
ATOM     21  H   UNL     1       3.746  -4.377  -4.141  0.00  0.00    +0.124 HD
ATOM     22  H   UNL     1       7.411  -2.922  -2.044  0.00  0.00    +0.155 HD
ENDROOT
BRANCH   1  23
ATOM     23  C   UNL     1       0.633  -2.108   1.011  0.00  0.00    +0.144 C 
BRANCH  23  24
ATOM     24  C   UNL     1       0.673  -0.582   1.123  0.00  0.00    +0.179 C 
BRANCH  24  26
ATOM     25  C   UNL     1      -0.017   1.425   0.010  0.00  0.00    +0.194 C 
ATOM     26  O   UNL     1       0.002  -0.004   0.002  0.00  0.00    -0.381 OA
ENDBRANCH  24  26
ENDBRANCH  23  24
ENDBRANCH   1  23
BRANCH   5  27
ATOM     27  C   UNL     1       1.964  -1.596  -3.847  0.00  0.00    +0.052 C 
BRANCH  27  28
ATOM     28  C   UNL     1       2.175  -1.258  -5.301  0.00  0.00    -0.040 C 
ATOM     29  C   UNL     1       1.224  -1.157  -6.258  0.00  0.00    -0.001 A 
ATOM     30  C   UNL     1      -0.234  -1.324  -6.233  0.00  0.00    +0.010 A 
ATOM     31  C   UNL     1      -0.933  -1.155  -7.378  0.00  0.00    +0.001 A 
ATOM     32  C   UNL     1      -0.301  -0.824  -8.585  0.00  0.00    +0.002 A 
ATOM     33  C   UNL     1       1.034  -0.653  -8.687  0.00  0.00    +0.026 A 
ATOM     34  C   UNL     1       1.867  -0.807  -7.545  0.00  0.00    +0.043 A 
ATOM     35  N   UNL     1       3.164  -0.697  -7.389  0.00  0.00    -0.380 N 
ATOM     36  C   UNL     1       3.491  -0.959  -5.983  0.00  0.00    +0.144 C 
ATOM     37  H   UNL     1       3.801  -0.475  -8.087  0.00  0.00    +0.160 HD
ENDBRANCH  27  28
ENDBRANCH   5  27
TORSDOF 5
