REMARK  Name = ZINC44884617
REMARK  5 active torsions:
REMARK  status: ('A' for Active; 'I' for Inactive)
REMARK    1  A    between atoms: C_1  and  C_2
REMARK    2  A    between atoms: C_2  and  C_4
REMARK    3  A    between atoms: C_2  and  N_9
REMARK    4  A    between atoms: C_10  and  C_12
REMARK    5  A    between atoms: C_14  and  N_20
REMARK                            x       y       z     vdW  Elec       q    Type
REMARK                         _______ _______ _______ _____ _____    ______ ____
ROOT
ATOM      1  N   UNL     1       0.711  -0.489   1.189  0.00  0.00    -0.302 N 
ATOM      2  C   UNL     1       2.054  -0.600   1.174  0.00  0.00    +0.245 C 
ATOM      3  O   UNL     1       2.677  -0.297   0.175  0.00  0.00    -0.270 OA
ATOM      4  H   UNL     1       0.213  -0.731   1.986  0.00  0.00    +0.150 HD
ENDROOT
BRANCH   2   5
ATOM      5  C   UNL     1       2.769  -1.089   2.371  0.00  0.00    +0.040 A 
ATOM      6  C   UNL     1       4.160  -1.199   2.359  0.00  0.00    +0.037 A 
ATOM      7  C   UNL     1       4.824  -1.659   3.485  0.00  0.00    +0.045 A 
ATOM      8  C   UNL     1       4.104  -2.010   4.623  0.00  0.00    +0.080 A 
ATOM      9  C   UNL     1       2.724  -1.902   4.634  0.00  0.00    +0.062 A 
ATOM     10  C   UNL     1       2.055  -1.438   3.519  0.00  0.00    +0.034 A 
ATOM     11 CL   UNL     1       1.833  -2.342   6.057  0.00  0.00    -0.082 Cl
ATOM     12 CL   UNL     1       4.939  -2.586   6.032  0.00  0.00    -0.080 Cl
BRANCH   7  13
ATOM     13  N   UNL     1       6.217  -1.770   3.478  0.00  0.00    -0.357 N 
ATOM     14  H   UNL     1       6.719  -1.526   2.685  0.00  0.00    +0.142 HD
ATOM     15  H   UNL     1       6.682  -2.092   4.266  0.00  0.00    +0.142 HD
ENDBRANCH   7  13
ENDBRANCH   2   5
BRANCH   1  17
ATOM     16  C   UNL     1      -0.019   1.526   0.010  0.00  0.00    +0.036 C 
ATOM     17  C   UNL     1       0.002  -0.004   0.002  0.00  0.00    +0.142 C 
BRANCH  17  18
ATOM     18  C   UNL     1      -1.412  -0.526   0.013  0.00  0.00    +0.196 A 
ATOM     19  N   UNL     1      -2.067  -1.052  -1.011  0.00  0.00    -0.109 NA
ATOM     20  N   UNL     1      -3.245  -1.375  -0.596  0.00  0.00    -0.021 NA
ATOM     21  N   UNL     1      -3.348  -1.069   0.650  0.00  0.00    -0.021 NA
ATOM     22  N   UNL     1      -2.236  -0.552   1.050  0.00  0.00    -0.109 NA
ENDBRANCH  17  18
ENDBRANCH   1  17
TORSDOF 4
