REMARK  Name = ZINC01873727
REMARK  8 active torsions:
REMARK  status: ('A' for Active; 'I' for Inactive)
REMARK    1  A    between atoms: C_9  and  C_33
REMARK    2  A    between atoms: C_10  and  N_20
REMARK    3  A    between atoms: N_11  and  C_14
REMARK    4  A    between atoms: C_14  and  C_15
REMARK    5  A    between atoms: N_20  and  S_21
REMARK    6  A    between atoms: S_21  and  C_24
REMARK    7  A    between atoms: C_27  and  N_30
REMARK    8  A    between atoms: N_35  and  C_36
REMARK                            x       y       z     vdW  Elec       q    Type
REMARK                         _______ _______ _______ _____ _____    ______ ____
ROOT
ATOM      1  C   UNL     1       5.237   4.852  -3.650  0.00  0.00    +0.002 A 
ATOM      2  C   UNL     1       6.118   4.127  -2.849  0.00  0.00    +0.002 A 
ATOM      3  C   UNL     1       5.674   3.443  -1.761  0.00  0.00    +0.030 A 
ATOM      4  C   UNL     1       4.306   3.465  -1.431  0.00  0.00    +0.092 A 
ATOM      5  C   UNL     1       3.410   4.202  -2.244  0.00  0.00    +0.090 A 
ATOM      6  C   UNL     1       3.908   4.897  -3.363  0.00  0.00    +0.030 A 
ATOM      7  N   UNL     1       2.105   4.239  -1.952  0.00  0.00    -0.241 NA
ATOM      8  C   UNL     1       1.655   3.583  -0.900  0.00  0.00    +0.122 A 
ATOM      9  C   UNL     1       0.329   3.399  -0.289  0.00  0.00    +0.105 A 
ATOM     10  C   UNL     1       0.517   2.583   0.822  0.00  0.00    +0.135 A 
ATOM     11  N   UNL     1       1.831   2.254   0.953  0.00  0.00    -0.303 N 
ATOM     12  C   UNL     1       2.580   2.819  -0.058  0.00  0.00    +0.162 A 
ATOM     13  N   UNL     1       3.861   2.795  -0.360  0.00  0.00    -0.226 NA
ENDROOT
BRANCH   9  14
ATOM     14  C   UNL     1      -0.935   3.962  -0.757  0.00  0.00    +0.250 C 
ATOM     15  O   UNL     1      -1.460   4.874  -0.143  0.00  0.00    -0.270 OA
ATOM     16  N   UNL     1      -1.521   3.473  -1.867  0.00  0.00    -0.308 N 
ATOM     17  H   UNL     1      -1.145   2.698  -2.313  0.00  0.00    +0.149 HD
BRANCH  16  18
ATOM     18  C   UNL     1      -2.727   4.112  -2.401  0.00  0.00    +0.073 C 
ATOM     19  C   UNL     1      -3.948   3.637  -1.611  0.00  0.00    +0.022 C 
ATOM     20  C   UNL     1      -5.207   4.304  -2.169  0.00  0.00    +0.002 C 
ATOM     21  C   UNL     1      -5.374   3.926  -3.642  0.00  0.00    +0.000 C 
ATOM     22  C   UNL     1      -4.153   4.400  -4.432  0.00  0.00    +0.002 C 
ATOM     23  C   UNL     1      -2.894   3.733  -3.874  0.00  0.00    +0.022 C 
ENDBRANCH  16  18
ENDBRANCH   9  14
BRANCH  10  24
ATOM     24  N   UNL     1      -0.480   2.172   1.667  0.00  0.00    -0.200 N 
ATOM     25  H   UNL     1      -0.396   2.318   2.623  0.00  0.00    +0.175 HD
BRANCH  24  26
ATOM     26  S   UNL     1      -1.825   1.422   1.059  0.00  0.00    +0.073 S 
ATOM     27  O   UNL     1      -2.596   1.002   2.177  0.00  0.00    -0.150 OA
ATOM     28  O   UNL     1      -2.347   2.278   0.052  0.00  0.00    -0.150 OA
BRANCH  26  29
ATOM     29  C   UNL     1      -1.282  -0.042   0.244  0.00  0.00    +0.109 A 
ATOM     30  C   UNL     1      -0.822   0.022  -1.058  0.00  0.00    +0.031 A 
ATOM     31  C   UNL     1      -0.391  -1.126  -1.696  0.00  0.00    +0.034 A 
ATOM     32  C   UNL     1      -0.429  -2.340  -1.036  0.00  0.00    +0.126 A 
ATOM     33  C   UNL     1      -0.893  -2.405   0.265  0.00  0.00    +0.034 A 
ATOM     34  C   UNL     1      -1.320  -1.256   0.904  0.00  0.00    +0.031 A 
BRANCH  32  35
ATOM     35  N   UNL     1       0.028  -3.570  -1.721  0.00  0.00    +0.056 N 
ATOM     36  O   UNL     1      -0.005  -4.639  -1.138  0.00  0.00    -0.126 OA
ATOM     37  O   UNL     1       0.437  -3.513  -2.866  0.00  0.00    -0.126 OA
ENDBRANCH  32  35
ENDBRANCH  26  29
ENDBRANCH  24  26
ENDBRANCH  10  24
BRANCH  11  38
ATOM     38  C   UNL     1       2.375   1.411   2.021  0.00  0.00    +0.199 C 
BRANCH  38  39
ATOM     39  C   UNL     1       2.510  -0.005   1.523  0.00  0.00    +0.125 A 
ATOM     40  C   UNL     1       3.599  -0.530   0.932  0.00  0.00    +0.046 A 
ATOM     41  C   UNL     1       3.292  -1.877   0.631  0.00  0.00    +0.041 A 
ATOM     42  C   UNL     1       2.032  -2.093   1.049  0.00  0.00    +0.195 A 
ATOM     43  O   UNL     1       1.563  -0.955   1.588  0.00  0.00    -0.466 OA
ENDBRANCH  38  39
ENDBRANCH  11  38
TORSDOF 8
