REMARK  Name = ZINC39440407
REMARK  5 active torsions:
REMARK  status: ('A' for Active; 'I' for Inactive)
REMARK    1  A    between atoms: C_6  and  C_7
REMARK    2  A    between atoms: C_10  and  C_35
REMARK    3  A    between atoms: C_17  and  C_20
REMARK    4  A    between atoms: N_22  and  C_23
REMARK    5  A    between atoms: C_23  and  C_24
REMARK                            x       y       z     vdW  Elec       q    Type
REMARK                         _______ _______ _______ _____ _____    ______ ____
ROOT
ATOM      1  C   UNL     1      -1.294  -0.774   0.010  0.00  0.00    -0.037 C 
ATOM      2  C   UNL     1      -1.857  -0.822  -1.409  0.00  0.00    +0.018 C 
ATOM      3  C   UNL     1      -3.256  -1.461  -1.412  0.00  0.00    +0.173 C 
ATOM      4  N   UNL     1      -4.073  -0.720  -0.458  0.00  0.00    -0.245 NA
ATOM      5  C   UNL     1      -3.487  -0.876   0.901  0.00  0.00    +0.019 C 
ATOM      6  N   UNL     1      -2.240  -0.118   0.932  0.00  0.00    +0.395 N 
ATOM      7  C   UNL     1      -4.590  -0.314   1.807  0.00  0.00    +0.030 C 
ATOM      8  C   UNL     1      -5.887  -0.544   0.991  0.00  0.00    +0.155 C 
ATOM      9  N   UNL     1      -5.449  -1.160  -0.293  0.00  0.00    -0.243 NA
ATOM     10  H   UNL     1      -1.863  -0.119   1.867  0.00  0.00    -0.083 HD
ATOM     11  H   UNL     1      -5.503  -2.167  -0.249  0.00  0.00    +0.142 HD
ATOM     12  H   UNL     1      -2.409   0.830   0.631  0.00  0.00    -0.083 HD
ENDROOT
BRANCH   1  18
ATOM     13  C   UNL     1      -0.017   1.378   0.010  0.00  0.00    +0.006 A 
ATOM     14  C   UNL     1       1.170   2.088   0.002  0.00  0.00    +0.050 A 
ATOM     15  C   UNL     1       2.380   1.416  -0.013  0.00  0.00    +0.166 A 
ATOM     16  C   UNL     1       2.399   0.023  -0.021  0.00  0.00    +0.166 A 
ATOM     17  C   UNL     1       1.207  -0.682  -0.014  0.00  0.00    +0.051 A 
ATOM     18  C   UNL     1       0.002  -0.004   0.002  0.00  0.00    -0.058 A 
ATOM     19  O   UNL     1       3.698  -0.395  -0.036  0.00  0.00    -0.453 OA
ATOM     20  C   UNL     1       4.466   0.750  -0.450  0.00  0.00    +0.466 C 
ATOM     21  O   UNL     1       3.668   1.870  -0.024  0.00  0.00    -0.453 OA
ENDBRANCH   1  18
BRANCH   8  22
ATOM     22  C   UNL     1      -6.809  -1.479   1.730  0.00  0.00    +0.232 C 
ATOM     23  O   UNL     1      -6.862  -2.650   1.421  0.00  0.00    -0.274 OA
ATOM     24  N   UNL     1      -7.576  -1.012   2.736  0.00  0.00    -0.308 N 
ATOM     25  H   UNL     1      -7.535  -0.076   2.983  0.00  0.00    +0.149 HD
BRANCH  24  26
ATOM     26  C   UNL     1      -8.473  -1.921   3.455  0.00  0.00    +0.157 C 
BRANCH  26  27
ATOM     27  C   UNL     1      -9.212  -1.156   4.522  0.00  0.00    +0.034 A 
ATOM     28  H   UNL     1      -7.877  -1.201   6.120  0.00  0.00    +0.166 HD
ATOM     29  C   UNL     1     -10.435  -0.621   4.380  0.00  0.00    +0.032 A 
ATOM     30  C   UNL     1     -10.770   0.026   5.651  0.00  0.00    +0.001 A 
ATOM     31  C   UNL     1     -11.878   0.738   6.115  0.00  0.00    +0.030 A 
ATOM     32  C   UNL     1     -11.881   1.231   7.401  0.00  0.00    +0.042 A 
ATOM     33  C   UNL     1     -10.790   1.025   8.235  0.00  0.00    +0.022 A 
ATOM     34  C   UNL     1      -9.689   0.325   7.791  0.00  0.00    +0.027 A 
ATOM     35  C   UNL     1      -9.665  -0.182   6.497  0.00  0.00    +0.047 A 
ATOM     36  N   UNL     1      -8.738  -0.909   5.782  0.00  0.00    -0.357 N 
ATOM     37 CL   UNL     1     -13.256   2.117   7.982  0.00  0.00    -0.084 Cl
ENDBRANCH  26  27
ENDBRANCH  24  26
ENDBRANCH   8  22
BRANCH   3  38
ATOM     38  C   UNL     1      -3.870  -1.365  -2.810  0.00  0.00    +0.406 C 
ATOM     39  F   UNL     1      -3.053  -2.039  -3.725  0.00  0.00    -0.169 F 
ATOM     40  F   UNL     1      -5.141  -1.949  -2.803  0.00  0.00    -0.169 F 
ATOM     41  F   UNL     1      -3.976  -0.021  -3.182  0.00  0.00    -0.169 F 
ENDBRANCH   3  38
TORSDOF 5
