REMARK  Name = ZINC23081707
REMARK  12 active torsions:
REMARK  status: ('A' for Active; 'I' for Inactive)
REMARK    1  A    between atoms: C_1  and  C_2
REMARK    2  A    between atoms: C_2  and  C_3
REMARK    3  A    between atoms: C_6  and  C_9
REMARK    4  A    between atoms: C_9  and  C_11
REMARK    5  A    between atoms: C_9  and  N_31
REMARK    6  A    between atoms: C_11  and  N_12
REMARK    7  A    between atoms: C_13  and  C_15
REMARK    8  A    between atoms: N_18  and  C_24
REMARK    9  A    between atoms: C_19  and  C_20
REMARK   10  A    between atoms: C_27  and  C_30
REMARK   11  A    between atoms: N_31  and  C_32
REMARK   12  A    between atoms: N_31  and  C_33
REMARK                            x       y       z     vdW  Elec       q    Type
REMARK                         _______ _______ _______ _____ _____    ______ ____
ROOT
ATOM      1  N   UNL     1      -0.425  -4.655   0.812  0.00  0.00    -0.312 N 
ATOM      2  C   UNL     1      -0.805  -3.421   1.200  0.00  0.00    +0.248 C 
ATOM      3  O   UNL     1      -1.894  -3.254   1.714  0.00  0.00    -0.270 OA
ATOM      4  H   UNL     1       0.560  -4.806   0.347  0.00  0.00    +0.149 HD
ENDROOT
BRANCH   2   5
ATOM      5  C   UNL     1       0.100  -2.275   1.001  0.00  0.00    +0.086 A 
ATOM      6  C   UNL     1       1.388  -2.314   0.421  0.00  0.00    +0.148 A 
ATOM      7  N   UNL     1       1.867  -1.100   0.417  0.00  0.00    -0.174 NA
ATOM      8  N   UNL     1       0.926  -0.239   0.994  0.00  0.00    -0.227 N 
ATOM      9  C   UNL     1      -0.153  -0.962   1.345  0.00  0.00    +0.159 A 
BRANCH   8  10
ATOM     10  C   UNL     1       1.080   1.142   1.171  0.00  0.00    +0.066 A 
ATOM     11  C   UNL     1      -0.014   1.987   1.037  0.00  0.00    +0.028 A 
ATOM     12  C   UNL     1       0.140   3.348   1.217  0.00  0.00    +0.005 A 
ATOM     13  C   UNL     1       1.384   3.870   1.520  0.00  0.00    -0.050 A 
ATOM     14  C   UNL     1       2.476   3.033   1.648  0.00  0.00    +0.005 A 
ATOM     15  C   UNL     1       2.328   1.670   1.474  0.00  0.00    +0.028 A 
ATOM     16  C   UNL     1       1.549   5.356   1.710  0.00  0.00    +0.044 C 
ENDBRANCH   8  10
BRANCH   9  17
ATOM     17  C   UNL     1      -1.406  -0.435   1.996  0.00  0.00    +0.435 C 
ATOM     18  F   UNL     1      -2.323  -0.061   1.008  0.00  0.00    -0.164 F 
ATOM     19  F   UNL     1      -1.968  -1.433   2.800  0.00  0.00    -0.164 F 
ATOM     20  F   UNL     1      -1.090   0.676   2.785  0.00  0.00    -0.164 F 
ENDBRANCH   9  17
ENDBRANCH   2   5
BRANCH   1  21
ATOM     21  C   UNL     1      -1.324  -5.794   1.010  0.00  0.00    +0.094 C 
BRANCH  21  22
ATOM     22  C   UNL     1      -0.732  -7.035   0.338  0.00  0.00    -0.021 C 
BRANCH  22  26
ATOM     23  C   UNL     1      -3.253 -10.401   1.086  0.00  0.00    -0.048 A 
ATOM     24  C   UNL     1      -2.062 -10.263   1.774  0.00  0.00    +0.004 A 
ATOM     25  C   UNL     1      -1.246  -9.174   1.532  0.00  0.00    +0.002 A 
ATOM     26  C   UNL     1      -1.621  -8.222   0.602  0.00  0.00    -0.059 A 
ATOM     27  C   UNL     1      -2.815  -8.357  -0.082  0.00  0.00    +0.002 A 
ATOM     28  C   UNL     1      -3.628  -9.449   0.157  0.00  0.00    +0.004 A 
BRANCH  23  30
ATOM     29  C   UNL     1      -5.126 -11.248   2.473  0.00  0.00    +0.009 C 
ATOM     30  C   UNL     1      -4.143 -11.588   1.351  0.00  0.00    +0.032 C 
ENDBRANCH  23  30
ENDBRANCH  22  26
BRANCH  22  31
ATOM     31  N   UNL     1      -0.634  -6.808  -1.110  0.00  0.00    +0.382 N 
ATOM     32  C   UNL     1      -1.649  -5.847  -1.561  0.00  0.00    -0.096 C 
ATOM     33  C   UNL     1       0.715  -6.363  -1.483  0.00  0.00    -0.096 C 
ATOM     34  H   UNL     1      -0.827  -7.765  -1.616  0.00  0.00    -0.082 HD
ENDBRANCH  22  31
ENDBRANCH  21  22
ENDBRANCH   1  21
TORSDOF 8
