REMARK  Name = ZINC00955575
REMARK  4 active torsions:
REMARK  status: ('A' for Active; 'I' for Inactive)
REMARK    1  A    between atoms: C_1  and  C_2
REMARK    2  A    between atoms: N_13  and  C_16
REMARK    3  A    between atoms: C_16  and  C_17
REMARK    4  A    between atoms: C_20  and  N_23
REMARK                            x       y       z     vdW  Elec       q    Type
REMARK                         _______ _______ _______ _____ _____    ______ ____
ROOT
ATOM      1  C   UNL     1       0.379  -4.310   0.062  0.00  0.00    +0.008 C 
ATOM      2  C   UNL     1       0.216  -2.818   0.360  0.00  0.00    -0.009 C 
ATOM      3  C   UNL     1      -0.945  -2.253  -0.464  0.00  0.00    +0.008 C 
ATOM      4  C   UNL     1      -1.276  -0.837   0.008  0.00  0.00    +0.037 C 
ATOM      5  C   UNL     1       0.002  -0.004   0.002  0.00  0.00    -0.023 A 
ATOM      6  C   UNL     1       1.213  -0.600  -0.012  0.00  0.00    -0.004 A 
ATOM      7  S   UNL     1       2.381   0.734  -0.016  0.00  0.00    -0.073 S 
ATOM      8  C   UNL     1       1.236   2.090   0.002  0.00  0.00    +0.116 A 
ATOM      9  C   UNL     1      -0.018   1.458   0.010  0.00  0.00    +0.076 A 
ATOM     10  C   UNL     1      -1.153   2.333   0.020  0.00  0.00    +0.263 A 
ATOM     11  O   UNL     1      -2.285   1.879   0.023  0.00  0.00    -0.267 OA
ATOM     12  N   UNL     1      -0.949   3.663   0.029  0.00  0.00    -0.294 N 
ATOM     13  C   UNL     1       0.304   4.186   0.020  0.00  0.00    +0.203 A 
ATOM     14  N   UNL     1       1.358   3.414   0.007  0.00  0.00    -0.230 NA
ATOM     15  C   UNL     1       1.501  -2.070  -0.021  0.00  0.00    +0.046 C 
ENDROOT
BRANCH  12  16
ATOM     16  C   UNL     1      -2.103   4.566   0.044  0.00  0.00    +0.161 C 
BRANCH  16  17
ATOM     17  C   UNL     1      -2.511   4.883  -1.371  0.00  0.00    -0.027 A 
ATOM     18  C   UNL     1      -1.965   5.974  -2.021  0.00  0.00    +0.007 A 
ATOM     19  C   UNL     1      -2.337   6.262  -3.321  0.00  0.00    +0.033 A 
ATOM     20  C   UNL     1      -3.261   5.464  -3.968  0.00  0.00    +0.126 A 
ATOM     21  C   UNL     1      -3.812   4.375  -3.317  0.00  0.00    +0.033 A 
ATOM     22  C   UNL     1      -3.437   4.085  -2.018  0.00  0.00    +0.007 A 
BRANCH  20  23
ATOM     23  N   UNL     1      -3.663   5.774  -5.359  0.00  0.00    +0.056 N 
ATOM     24  O   UNL     1      -4.477   5.071  -5.929  0.00  0.00    -0.126 OA
ATOM     25  O   UNL     1      -3.178   6.733  -5.933  0.00  0.00    -0.126 OA
ENDBRANCH  20  23
ENDBRANCH  16  17
ENDBRANCH  12  16
TORSDOF 3
