REMARK  Name = ZINC00092671
REMARK  8 active torsions:
REMARK  status: ('A' for Active; 'I' for Inactive)
REMARK    1  A    between atoms: C_1  and  C_2
REMARK    2  A    between atoms: C_2  and  C_3
REMARK    3  A    between atoms: C_3  and  C_5
REMARK    4  A    between atoms: C_3  and  N_6
REMARK    5  A    between atoms: C_7  and  N_8
REMARK    6  A    between atoms: C_9  and  C_22
REMARK    7  A    between atoms: N_24  and  C_25
REMARK    8  A    between atoms: C_25  and  C_26
REMARK                            x       y       z     vdW  Elec       q    Type
REMARK                         _______ _______ _______ _____ _____    ______ ____
ROOT
ATOM      1  N   UNL     1      -0.122   1.022   2.486  0.00  0.00    -0.310 N 
ATOM      2  C   UNL     1       1.190   1.433   2.576  0.00  0.00    +0.110 A 
ATOM      3  C   UNL     1       2.005   1.022   3.730  0.00  0.00    +0.075 A 
ATOM      4  C   UNL     1       1.431   0.224   4.710  0.00  0.00    +0.033 A 
ATOM      5  C   UNL     1       0.092  -0.172   4.579  0.00  0.00    +0.083 A 
ATOM      6  C   UNL     1      -0.677   0.237   3.466  0.00  0.00    +0.150 A 
ATOM      7  N   UNL     1      -1.943  -0.151   3.374  0.00  0.00    -0.211 NA
ATOM      8  C   UNL     1      -2.511  -0.913   4.309  0.00  0.00    +0.143 A 
ATOM      9  C   UNL     1      -3.858  -1.291   4.155  0.00  0.00    +0.047 A 
ATOM     10  C   UNL     1      -4.450  -2.071   5.103  0.00  0.00    +0.005 A 
ATOM     11  C   UNL     1      -3.710  -2.486   6.218  0.00  0.00    +0.018 A 
ATOM     12  C   UNL     1      -2.417  -2.113   6.351  0.00  0.00    +0.096 A 
ATOM     13  N   UNL     1      -1.816  -1.334   5.408  0.00  0.00    -0.268 N 
ATOM     14  C   UNL     1      -0.520  -0.988   5.567  0.00  0.00    +0.268 A 
ATOM     15  O   UNL     1       0.107  -1.357   6.543  0.00  0.00    -0.267 OA
ENDROOT
BRANCH   3  16
ATOM     16  C   UNL     1       3.404   1.450   3.844  0.00  0.00    +0.247 C 
ATOM     17  O   UNL     1       3.868   2.233   3.036  0.00  0.00    -0.270 OA
ATOM     18  N   UNL     1       4.174   0.976   4.843  0.00  0.00    -0.312 N 
ATOM     19  H   UNL     1       3.755   0.268   5.573  0.00  0.00    +0.149 HD
BRANCH  18  20
ATOM     20  C   UNL     1       5.571   1.403   4.956  0.00  0.00    +0.101 C 
ATOM     21  C   UNL     1       6.216   0.723   6.166  0.00  0.00    +0.024 C 
ENDBRANCH  18  20
ENDBRANCH   3  16
BRANCH   2  22
ATOM     22  N   UNL     1       1.710   2.185   1.639  0.00  0.00    -0.344 N 
ATOM     23  H   UNL     1       2.757   2.512   1.714  0.00  0.00    +0.144 HD
ATOM     24  H   UNL     1       1.098   2.491   0.778  0.00  0.00    +0.144 HD
ENDBRANCH   2  22
BRANCH   1  25
ATOM     25  C   UNL     1      -0.934   1.431   1.337  0.00  0.00    +0.087 C 
ATOM     26  C   UNL     1      -0.291   0.914   0.048  0.00  0.00    +0.031 C 
BRANCH  25  28
ATOM     27  C   UNL     1      -1.771   3.467   2.519  0.00  0.00    +0.006 C 
ATOM     28  C   UNL     1      -1.017   2.958   1.289  0.00  0.00    +0.021 C 
ENDBRANCH  25  28
ENDBRANCH   1  25
TORSDOF 5
