REMARK  Name = ZINC09029419
REMARK  10 active torsions:
REMARK  status: ('A' for Active; 'I' for Inactive)
REMARK    1  A    between atoms: C_1  and  C_2
REMARK    2  A    between atoms: C_7  and  C_8
REMARK    3  A    between atoms: N_10  and  C_11
REMARK    4  A    between atoms: C_11  and  C_13
REMARK    5  A    between atoms: C_11  and  C_29
REMARK    6  A    between atoms: C_16  and  S_18
REMARK    7  A    between atoms: S_18  and  C_21
REMARK    8  A    between atoms: C_21  and  C_22
REMARK    9  A    between atoms: C_29  and  C_31
REMARK   10  A    between atoms: C_29  and  C_32
REMARK                            x       y       z     vdW  Elec       q    Type
REMARK                         _______ _______ _______ _____ _____    ______ ____
ROOT
ATOM      1  C   UNL     1       0.982   3.206   1.748  0.00  0.00    +0.239 A 
ATOM      2  N   UNL     1       0.027   4.064   1.524  0.00  0.00    -0.109 NA
ATOM      3  N   UNL     1       0.093   5.012   2.392  0.00  0.00    -0.090 NA
ATOM      4  C   UNL     1       1.091   4.791   3.199  0.00  0.00    +0.361 A 
ATOM      5  O   UNL     1       1.673   3.643   2.815  0.00  0.00    -0.405 OA
ENDROOT
BRANCH   4   6
ATOM      6  S   UNL     1       1.584   5.809   4.551  0.00  0.00    +0.053 S 
ATOM      7  O   UNL     1       2.971   5.545   4.716  0.00  0.00    -0.165 OA
ATOM      8  O   UNL     1       1.130   7.111   4.209  0.00  0.00    -0.165 OA
BRANCH   6   9
ATOM      9  C   UNL     1       0.653   5.176   5.974  0.00  0.00    +0.215 C 
BRANCH   9  10
ATOM     10  C   UNL     1       1.001   5.982   7.199  0.00  0.00    +0.009 A 
ATOM     11  C   UNL     1       2.049   5.589   8.011  0.00  0.00    +0.008 A 
ATOM     12  C   UNL     1       2.371   6.330   9.131  0.00  0.00    +0.000 A 
ATOM     13  C   UNL     1       1.639   7.460   9.449  0.00  0.00    +0.003 A 
ATOM     14  C   UNL     1       0.588   7.851   8.642  0.00  0.00    +0.038 A 
ATOM     15  C   UNL     1       0.267   7.112   7.516  0.00  0.00    +0.128 A 
ATOM     16  F   UNL     1      -0.761   7.494   6.727  0.00  0.00    -0.205 F 
ENDBRANCH   9  10
ENDBRANCH   6   9
ENDBRANCH   4   6
BRANCH   1  17
ATOM     17  C   UNL     1       1.256   1.952   0.960  0.00  0.00    +0.163 C 
BRANCH  17  20
ATOM     18  C   UNL     1       0.003  -0.086   0.498  0.00  0.00    +0.245 C 
ATOM     19  O   UNL     1       1.053  -0.699   0.506  0.00  0.00    -0.270 OA
ATOM     20  N   UNL     1      -0.003   1.244   0.715  0.00  0.00    -0.300 N 
ATOM     21  H   UNL     1      -0.840   1.733   0.705  0.00  0.00    +0.150 HD
BRANCH  18  28
ATOM     22  C   UNL     1       0.053  -2.888  -0.221  0.00  0.00    +0.044 C 
ATOM     23  C   UNL     1      -1.256  -2.152  -0.097  0.00  0.00    -0.038 A 
ATOM     24  C   UNL     1      -2.445  -2.813  -0.326  0.00  0.00    +0.004 A 
ATOM     25  C   UNL     1      -3.648  -2.139  -0.212  0.00  0.00    +0.000 A 
ATOM     26  C   UNL     1      -3.667  -0.798   0.133  0.00  0.00    +0.001 A 
ATOM     27  C   UNL     1      -2.485  -0.127   0.369  0.00  0.00    +0.013 A 
ATOM     28  C   UNL     1      -1.268  -0.800   0.251  0.00  0.00    +0.040 A 
ENDBRANCH  18  28
ENDBRANCH  17  20
BRANCH  17  29
ATOM     29  C   UNL     1       1.903   2.320  -0.376  0.00  0.00    +0.012 C 
ATOM     30  C   UNL     1       3.275   2.947  -0.123  0.00  0.00    +0.009 C 
ATOM     31  C   UNL     1       1.013   3.322  -1.115  0.00  0.00    +0.009 C 
ENDBRANCH  17  29
ENDBRANCH   1  17
TORSDOF 7
