REMARK  Name = ZINC36309671
REMARK  16 active torsions:
REMARK  status: ('A' for Active; 'I' for Inactive)
REMARK    1  A    between atoms: C_1  and  C_2
REMARK    2  A    between atoms: C_2  and  C_3
REMARK    3  A    between atoms: C_3  and  C_4
REMARK    4  A    between atoms: C_4  and  C_6
REMARK    5  A    between atoms: C_4  and  O_35
REMARK    6  A    between atoms: C_6  and  N_7
REMARK    7  A    between atoms: N_7  and  C_8
REMARK    8  A    between atoms: N_7  and  C_13
REMARK    9  A    between atoms: C_8  and  C_9
REMARK   10  A    between atoms: C_9  and  C_10
REMARK   11  A    between atoms: C_10  and  C_11
REMARK   12  A    between atoms: C_10  and  C_12
REMARK   13  A    between atoms: C_13  and  C_14
REMARK   14  A    between atoms: C_24  and  C_26
REMARK   15  A    between atoms: C_26  and  O_27
REMARK   16  A    between atoms: O_27  and  C_28
REMARK                            x       y       z     vdW  Elec       q    Type
REMARK                         _______ _______ _______ _____ _____    ______ ____
ROOT
ATOM      1  C   UNL     1       1.214  -6.056  -3.714  0.00  0.00    +0.200 C 
ATOM      2  O   UNL     1       0.625  -6.596  -2.801  0.00  0.00    -0.278 OA
ATOM      3  N   UNL     1       1.589  -6.773  -4.792  0.00  0.00    -0.292 N 
ATOM      4  C   UNL     1       2.308  -6.129  -5.901  0.00  0.00    +0.113 C 
ATOM      5  C   UNL     1       3.717  -6.739  -5.981  0.00  0.00    +0.061 C 
ATOM      6  C   UNL     1       3.608  -8.219  -5.810  0.00  0.00    -0.004 A 
ATOM      7  C   UNL     1       2.557  -8.929  -5.318  0.00  0.00    -0.014 A 
ATOM      8  C   UNL     1       2.712 -10.313  -5.254  0.00  0.00    +0.013 A 
ATOM      9  C   UNL     1       3.863 -10.885  -5.674  0.00  0.00    +0.046 A 
ATOM     10  S   UNL     1       4.811  -9.464  -6.195  0.00  0.00    -0.101 S 
ATOM     11  C   UNL     1       1.291  -8.209  -4.872  0.00  0.00    +0.144 C 
ENDROOT
BRANCH   1  12
ATOM     12  C   UNL     1       1.525  -4.583  -3.643  0.00  0.00    +0.019 C 
BRANCH  12  13
ATOM     13  N   UNL     1       1.145  -4.066  -2.321  0.00  0.00    +0.387 N 
ATOM     14  H   UNL     1       0.184  -4.307  -2.129  0.00  0.00    -0.081 HD
BRANCH  13  15
ATOM     15  C   UNL     1       2.013  -4.657  -1.295  0.00  0.00    -0.047 C 
BRANCH  15  16
ATOM     16  C   UNL     1       1.539  -4.216   0.091  0.00  0.00    +0.098 C 
BRANCH  16  17
ATOM     17  O   UNL     1       0.238  -4.752   0.342  0.00  0.00    -0.394 OA
ATOM     18  H   UNL     1       0.200  -5.718   0.321  0.00  0.00    +0.210 HD
ENDBRANCH  16  17
BRANCH  16  19
ATOM     19  C   UNL     1       2.515  -4.729   1.151  0.00  0.00    +0.029 C 
BRANCH  19  21
ATOM     20  C   UNL     1       3.087  -4.697   3.583  0.00  0.00    +0.004 C 
ATOM     21  C   UNL     1       2.111  -4.184   2.523  0.00  0.00    -0.001 C 
ENDBRANCH  19  21
ENDBRANCH  16  19
ENDBRANCH  15  16
ENDBRANCH  13  15
BRANCH  13  22
ATOM     22  C   UNL     1       1.294  -2.604  -2.306  0.00  0.00    -0.078 C 
BRANCH  22  23
ATOM     23  C   UNL     1       0.297  -1.980  -3.284  0.00  0.00    -0.016 C 
BRANCH  23  24
ATOM     24  C   UNL     1       0.355  -0.455  -3.168  0.00  0.00    -0.019 C 
ATOM     25  C   UNL     1       1.730   0.039  -3.621  0.00  0.00    +0.007 C 
ATOM     26  C   UNL     1      -0.727   0.166  -4.054  0.00  0.00    +0.007 C 
ENDBRANCH  23  24
ENDBRANCH  22  23
ENDBRANCH  13  22
ENDBRANCH  12  13
ENDBRANCH   1  12
BRANCH  11  27
ATOM     27  C   UNL     1       0.176  -8.450  -5.891  0.00  0.00    +0.256 C 
BRANCH  27  28
ATOM     28  O   UNL     1       0.636  -8.090  -7.195  0.00  0.00    -0.490 OA
BRANCH  28  29
ATOM     29  C   UNL     1      -0.239  -8.245  -8.223  0.00  0.00    +0.123 A 
ATOM     30  C   UNL     1      -1.517  -8.729  -7.981  0.00  0.00    +0.046 A 
ATOM     31  C   UNL     1      -2.405  -8.886  -9.027  0.00  0.00    +0.006 A 
ATOM     32  C   UNL     1      -2.023  -8.562 -10.315  0.00  0.00    +0.038 A 
ATOM     33  C   UNL     1      -0.749  -8.080 -10.561  0.00  0.00    +0.127 A 
ATOM     34  C   UNL     1       0.142  -7.915  -9.515  0.00  0.00    +0.084 A 
ATOM     35  F   UNL     1      -0.377  -7.764 -11.821  0.00  0.00    -0.205 F 
ENDBRANCH  28  29
ENDBRANCH  27  28
ENDBRANCH  11  27
TORSDOF 13
