REMARK  Name = ZINC39683246
REMARK  13 active torsions:
REMARK  status: ('A' for Active; 'I' for Inactive)
REMARK    1  A    between atoms: C_1  and  C_2
REMARK    2  A    between atoms: C_2  and  O_3
REMARK    3  A    between atoms: O_3  and  C_4
REMARK    4  A    between atoms: C_9  and  C_10
REMARK    5  A    between atoms: C_14  and  C_23
REMARK    6  A    between atoms: N_25  and  C_26
REMARK    7  A    between atoms: C_26  and  C_27
REMARK    8  A    between atoms: C_27  and  C_28
REMARK    9  A    between atoms: C_28  and  O_29
REMARK   10  A    between atoms: O_29  and  C_30
REMARK   11  A    between atoms: C_30  and  C_31
REMARK   12  A    between atoms: C_31  and  C_32
REMARK   13  A    between atoms: C_31  and  C_33
REMARK                            x       y       z     vdW  Elec       q    Type
REMARK                         _______ _______ _______ _____ _____    ______ ____
ROOT
ATOM      1  C   UNL     1      -4.137  -1.281   0.133  0.00  0.00    +0.250 C 
ATOM      2  O   UNL     1      -4.105  -0.071   0.254  0.00  0.00    -0.270 OA
ATOM      3  N   UNL     1      -5.320  -1.914   0.004  0.00  0.00    -0.296 N 
ATOM      4  C   UNL     1      -5.567  -3.374  -0.046  0.00  0.00    +0.121 C 
ATOM      5  C   UNL     1      -6.862  -3.579   0.772  0.00  0.00    +0.100 C 
ATOM      6  C   UNL     1      -7.579  -2.220   0.718  0.00  0.00    -0.004 C 
ATOM      7  C   UNL     1      -6.667  -1.307  -0.115  0.00  0.00    +0.115 C 
ATOM      8  C   UNL     1      -7.742  -1.651   2.124  0.00  0.00    -0.010 C 
ATOM      9  C   UNL     1      -8.508  -0.327   2.049  0.00  0.00    -0.082 C 
ATOM     10  N   UNL     1      -9.823  -0.555   1.436  0.00  0.00    +0.379 N 
ATOM     11  C   UNL     1      -9.657  -1.014   0.052  0.00  0.00    -0.082 C 
ATOM     12  C   UNL     1      -8.940  -2.366   0.042  0.00  0.00    -0.010 C 
ATOM     13  H   UNL     1     -10.322  -1.255   1.964  0.00  0.00    -0.086 HD
ATOM     14  H   UNL     1     -10.349   0.306   1.443  0.00  0.00    -0.086 HD
ENDROOT
BRANCH   1  20
ATOM     15  C   UNL     1      -1.794  -1.640   0.910  0.00  0.00    +0.133 A 
ATOM     16  C   UNL     1      -0.620  -2.379   0.902  0.00  0.00    +0.046 A 
ATOM     17  C   UNL     1      -0.523  -3.515   0.124  0.00  0.00    +0.004 A 
ATOM     18  C   UNL     1      -1.593  -3.926  -0.654  0.00  0.00    +0.001 A 
ATOM     19  C   UNL     1      -2.767  -3.204  -0.659  0.00  0.00    +0.017 A 
ATOM     20  C   UNL     1      -2.881  -2.055   0.129  0.00  0.00    +0.078 A 
BRANCH  15  21
ATOM     21  O   UNL     1      -1.891  -0.523   1.673  0.00  0.00    -0.491 OA
BRANCH  21  23
ATOM     22  C   UNL     1      -1.040   1.114   3.233  0.00  0.00    +0.048 C 
ATOM     23  C   UNL     1      -0.743  -0.162   2.443  0.00  0.00    +0.226 C 
ENDBRANCH  21  23
ENDBRANCH  15  21
ENDBRANCH   1  20
BRANCH   5  24
ATOM     24  C   UNL     1      -6.530  -3.943   2.196  0.00  0.00    +0.218 C 
ATOM     25  O   UNL     1      -5.508  -3.534   2.704  0.00  0.00    -0.275 OA
ATOM     26  N   UNL     1      -7.370  -4.723   2.905  0.00  0.00    -0.315 N 
ATOM     27  H   UNL     1      -8.188  -5.050   2.499  0.00  0.00    +0.149 HD
BRANCH  26  28
ATOM     28  C   UNL     1      -7.048  -5.077   4.290  0.00  0.00    +0.106 C 
BRANCH  28  29
ATOM     29  C   UNL     1      -8.157  -5.963   4.861  0.00  0.00    +0.047 C 
BRANCH  29  30
ATOM     30  C   UNL     1      -7.820  -6.332   6.307  0.00  0.00    +0.161 C 
BRANCH  30  31
ATOM     31  O   UNL     1      -8.856  -7.160   6.841  0.00  0.00    -0.379 OA
BRANCH  31  32
ATOM     32  C   UNL     1      -8.638  -7.564   8.194  0.00  0.00    +0.162 C 
BRANCH  32  33
ATOM     33  C   UNL     1      -9.802  -8.441   8.659  0.00  0.00    +0.009 C 
ATOM     34  C   UNL     1      -9.510  -8.975  10.062  0.00  0.00    +0.009 C 
ATOM     35  C   UNL     1     -11.087  -7.610   8.686  0.00  0.00    +0.009 C 
ENDBRANCH  32  33
ENDBRANCH  31  32
ENDBRANCH  30  31
ENDBRANCH  29  30
ENDBRANCH  28  29
ENDBRANCH  26  28
ENDBRANCH   5  24
TORSDOF 10
