REMARK  Name = ZINC13065420
REMARK  9 active torsions:
REMARK  status: ('A' for Active; 'I' for Inactive)
REMARK    1  A    between atoms: C_1  and  O_2
REMARK    2  A    between atoms: O_2  and  C_3
REMARK    3  A    between atoms: C_6  and  C_9
REMARK    4  A    between atoms: C_9  and  N_10
REMARK    5  A    between atoms: C_11  and  C_15
REMARK    6  A    between atoms: C_15  and  N_64
REMARK    7  A    between atoms: C_16  and  C_17
REMARK    8  A    between atoms: C_16  and  N_64
REMARK    9  A    between atoms: C_32  and  N_64
REMARK                            x       y       z     vdW  Elec       q    Type
REMARK                         _______ _______ _______ _____ _____    ______ ____
ROOT
ATOM      1  N   UNL     1      -2.970   0.938  -1.339  0.00  0.00    +0.389 N 
ATOM      2  H   UNL     1      -2.816   1.932  -1.541  0.00  0.00    -0.080 HD
ENDROOT
BRANCH   1   3
ATOM      3  C   UNL     1      -1.956   0.139  -2.058  0.00  0.00    -0.068 C 
ATOM      4  C   UNL     1      -1.839   0.651  -3.509  0.00  0.00    -0.015 C 
ATOM      5  C   UNL     1      -1.594  -0.629  -4.345  0.00  0.00    -0.002 C 
ATOM      6  C   UNL     1      -2.502  -1.672  -3.648  0.00  0.00    -0.002 C 
ATOM      7  C   UNL     1      -2.377  -1.339  -2.147  0.00  0.00    -0.015 C 
ENDBRANCH   1   3
BRANCH   1   8
ATOM      8  C   UNL     1      -4.325   0.560  -1.791  0.00  0.00    +0.001 C 
BRANCH   8  10
ATOM      9  N   UNL     1      -4.753   2.129  -3.756  0.00  0.00    -0.227 N 
ATOM     10  C   UNL     1      -4.469   0.915  -3.249  0.00  0.00    +0.135 A 
ATOM     11  N   UNL     1      -4.348   0.101  -4.268  0.00  0.00    -0.115 NA
ATOM     12  N   UNL     1      -4.542   0.780  -5.346  0.00  0.00    -0.023 NA
ATOM     13  N   UNL     1      -4.784   2.007  -5.040  0.00  0.00    -0.044 NA
BRANCH   9  14
ATOM     14  C   UNL     1      -4.981   3.359  -2.993  0.00  0.00    +0.182 C 
BRANCH  14  18
ATOM     15  C   UNL     1      -1.267   5.398  -2.435  0.00  0.00    +0.120 A 
ATOM     16  C   UNL     1      -2.048   5.668  -3.550  0.00  0.00    +0.046 A 
ATOM     17  C   UNL     1      -3.248   5.008  -3.728  0.00  0.00    +0.009 A 
ATOM     18  C   UNL     1      -3.671   4.078  -2.796  0.00  0.00    -0.026 A 
ATOM     19  C   UNL     1      -2.898   3.811  -1.682  0.00  0.00    +0.009 A 
ATOM     20  C   UNL     1      -1.694   4.465  -1.502  0.00  0.00    +0.046 A 
BRANCH  15  22
ATOM     21  C   UNL     1       0.665   5.718  -1.088  0.00  0.00    +0.277 C 
ATOM     22  O   UNL     1      -0.086   6.046  -2.258  0.00  0.00    -0.495 OA
ENDBRANCH  15  22
ENDBRANCH  14  18
ENDBRANCH   9  14
ENDBRANCH   8  10
ENDBRANCH   1   8
BRANCH   1  23
ATOM     23  C   UNL     1      -2.845   0.719   0.118  0.00  0.00    -0.037 C 
BRANCH  23  24
ATOM     24  C   UNL     1      -1.539   1.306   0.587  0.00  0.00    +0.001 A 
ATOM     25  C   UNL     1      -1.505   2.568   1.086  0.00  0.00    +0.017 A 
ATOM     26  C   UNL     1      -0.222   3.112   1.528  0.00  0.00    +0.002 A 
ATOM     27  C   UNL     1      -0.127   4.410   2.045  0.00  0.00    +0.059 A 
ATOM     28  C   UNL     1       1.096   4.893   2.456  0.00  0.00    +0.167 A 
ATOM     29  C   UNL     1       2.241   4.092   2.358  0.00  0.00    +0.168 A 
ATOM     30  C   UNL     1       2.156   2.810   1.847  0.00  0.00    +0.075 A 
ATOM     31  C   UNL     1       0.931   2.308   1.428  0.00  0.00    +0.053 A 
ATOM     32  N   UNL     1       0.828   1.031   0.915  0.00  0.00    -0.322 N 
ATOM     33  H   UNL     1       1.622   0.478   0.845  0.00  0.00    +0.169 HD
ATOM     34  C   UNL     1      -0.357   0.541   0.511  0.00  0.00    +0.251 A 
ATOM     35  O   UNL     1      -0.411  -0.591   0.063  0.00  0.00    -0.268 OA
ATOM     36  O   UNL     1       3.307   4.802   2.829  0.00  0.00    -0.453 OA
ATOM     37  C   UNL     1       2.743   5.884   3.592  0.00  0.00    +0.466 C 
ATOM     38  O   UNL     1       1.455   6.100   2.987  0.00  0.00    -0.453 OA
ENDBRANCH  23  24
ENDBRANCH   1  23
TORSDOF 8
