REMARK  Name = ZINC27750557
REMARK  9 active torsions:
REMARK  status: ('A' for Active; 'I' for Inactive)
REMARK    1  A    between atoms: C_1  and  C_2
REMARK    2  A    between atoms: C_5  and  N_31
REMARK    3  A    between atoms: C_7  and  N_8
REMARK    4  A    between atoms: C_9  and  C_11
REMARK    5  A    between atoms: C_11  and  C_13
REMARK    6  A    between atoms: C_11  and  N_14
REMARK    7  A    between atoms: N_17  and  C_20
REMARK    8  A    between atoms: C_20  and  C_21
REMARK    9  A    between atoms: C_24  and  C_27
REMARK                            x       y       z     vdW  Elec       q    Type
REMARK                         _______ _______ _______ _____ _____    ______ ____
ROOT
ATOM      1  N   UNL     1       0.121  -4.254  -3.598  0.00  0.00    +0.389 N 
ATOM      2  C   UNL     1       1.269  -4.469  -2.706  0.00  0.00    -0.062 C 
ATOM      3  C   UNL     1       0.893  -4.046  -1.284  0.00  0.00    +0.066 C 
ATOM      4  N   UNL     1       0.489  -2.633  -1.287  0.00  0.00    -0.302 NA
ATOM      5  C   UNL     1      -0.659  -2.418  -2.179  0.00  0.00    +0.066 C 
ATOM      6  C   UNL     1      -0.283  -2.841  -3.601  0.00  0.00    -0.062 C 
ATOM      7  H   UNL     1      -0.722  -4.847  -3.216  0.00  0.00    -0.081 HD
ENDROOT
BRANCH   1   8
ATOM      8  C   UNL     1       0.418  -4.719  -4.960  0.00  0.00    +0.017 C 
ATOM      9  C   UNL     1       1.777  -4.173  -5.400  0.00  0.00    -0.004 C 
BRANCH   8  11
ATOM     10  N   UNL     1       0.423  -6.885  -6.155  0.00  0.00    -0.287 N 
ATOM     11  C   UNL     1       0.451  -6.225  -4.980  0.00  0.00    +0.203 C 
ATOM     12  O   UNL     1       0.503  -6.845  -3.938  0.00  0.00    -0.277 OA
ATOM     13  H   UNL     1       0.447  -6.324  -7.101  0.00  0.00    +0.155 HD
BRANCH  10  20
ATOM     14  C   UNL     1      -0.817  -8.151  -8.381  0.00  0.00    +0.045 C 
ATOM     15  C   UNL     1      -0.232  -8.941  -7.239  0.00  0.00    -0.029 A 
ATOM     16  C   UNL     1      -0.288 -10.321  -7.253  0.00  0.00    +0.007 A 
ATOM     17  C   UNL     1       0.250 -11.047  -6.206  0.00  0.00    +0.033 A 
ATOM     18  C   UNL     1       0.845 -10.394  -5.141  0.00  0.00    +0.128 A 
ATOM     19  C   UNL     1       0.908  -9.014  -5.124  0.00  0.00    +0.056 A 
ATOM     20  C   UNL     1       0.365  -8.283  -6.172  0.00  0.00    +0.038 A 
BRANCH  18  21
ATOM     21  N   UNL     1       1.419 -11.175  -4.023  0.00  0.00    +0.056 N 
ATOM     22  O   UNL     1       1.368 -12.391  -4.040  0.00  0.00    -0.126 OA
ATOM     23  O   UNL     1       1.943 -10.600  -3.085  0.00  0.00    -0.126 OA
ENDBRANCH  18  21
ENDBRANCH  10  20
ENDBRANCH   8  11
ENDBRANCH   1   8
BRANCH   4  24
ATOM     24  C   UNL     1       0.192  -2.167   0.074  0.00  0.00    +0.119 C 
BRANCH  24  25
ATOM     25  C   UNL     1       0.023  -0.670   0.068  0.00  0.00    -0.033 A 
ATOM     26  C   UNL     1      -1.226  -0.117  -0.145  0.00  0.00    +0.005 A 
ATOM     27  C   UNL     1      -1.381   1.257  -0.150  0.00  0.00    +0.012 A 
ATOM     28  C   UNL     1      -0.288   2.077   0.058  0.00  0.00    +0.055 A 
ATOM     29  C   UNL     1       0.961   1.524   0.269  0.00  0.00    +0.012 A 
ATOM     30  C   UNL     1       1.116   0.150   0.275  0.00  0.00    +0.005 A 
BRANCH  28  31
ATOM     31  C   UNL     1      -0.458   3.575   0.052  0.00  0.00    +0.417 C 
ATOM     32  F   UNL     1      -0.741   4.017   1.348  0.00  0.00    -0.166 F 
ATOM     33  F   UNL     1       0.723   4.176  -0.399  0.00  0.00    -0.166 F 
ATOM     34  F   UNL     1      -1.512   3.921  -0.800  0.00  0.00    -0.166 F 
ENDBRANCH  28  31
ENDBRANCH  24  25
ENDBRANCH   4  24
TORSDOF 7
