REMARK  Name = ZINC43407049
REMARK  6 active torsions:
REMARK  status: ('A' for Active; 'I' for Inactive)
REMARK    1  A    between atoms: C_1  and  C_2
REMARK    2  A    between atoms: C_2  and  C_3
REMARK    3  A    between atoms: C_2  and  C_4
REMARK    4  A    between atoms: C_2  and  O_5
REMARK    5  A    between atoms: O_5  and  C_6
REMARK    6  A    between atoms: C_7  and  C_15
REMARK                            x       y       z     vdW  Elec       q    Type
REMARK                         _______ _______ _______ _____ _____    ______ ____
ROOT
ATOM      1  C   UNL     1       1.988  -0.151  -1.298  0.00  0.00    +0.226 A 
ATOM      2  C   UNL     1       2.670  -0.497  -2.474  0.00  0.00    +0.074 A 
ATOM      3  C   UNL     1       3.971  -0.020  -2.658  0.00  0.00    +0.022 A 
ATOM      4  C   UNL     1       4.531   0.774  -1.671  0.00  0.00    -0.025 A 
ATOM      5  C   UNL     1       3.798   1.075  -0.537  0.00  0.00    +0.048 A 
ATOM      6  N   UNL     1       2.565   0.614  -0.390  0.00  0.00    -0.217 NA
ATOM      7  C   UNL     1       4.623   1.951   0.384  0.00  0.00    +0.056 C 
ATOM      8  C   UNL     1       6.079   1.790  -0.101  0.00  0.00    +0.011 C 
ATOM      9  C   UNL     1       5.894   1.425  -1.590  0.00  0.00    +0.037 C 
ENDROOT
BRANCH   2  10
ATOM     10  C   UNL     1       2.028  -1.348  -3.496  0.00  0.00    +0.099 C 
ATOM     11  N   UNL     1       1.923  -0.915  -4.752  0.00  0.00    -0.387 N 
ATOM     12  N   UNL     1       1.554  -2.547  -3.162  0.00  0.00    -0.344 N 
ATOM     13  H   UNL     1       2.331  -0.075  -5.012  0.00  0.00    +0.157 HD
ATOM     14  H   UNL     1       1.630  -2.862  -2.247  0.00  0.00    +0.144 HD
ATOM     15  H   UNL     1       1.131  -3.106  -3.833  0.00  0.00    +0.144 HD
ATOM     16  H   UNL     1       1.437  -1.442  -5.407  0.00  0.00    +0.157 HD
ENDBRANCH   2  10
BRANCH   1  17
ATOM     17  O   UNL     1       0.726  -0.601  -1.096  0.00  0.00    -0.470 OA
BRANCH  17  19
ATOM     18  C   UNL     1      -0.008   1.318   0.176  0.00  0.00    +0.055 C 
ATOM     19  C   UNL     1       0.085  -0.208   0.119  0.00  0.00    +0.104 C 
ATOM     20  C   UNL     1       0.898  -0.714   1.312  0.00  0.00    +0.055 C 
ATOM     21  C   UNL     1      -1.322  -0.807   0.170  0.00  0.00    +0.055 C 
ENDBRANCH  17  19
ENDBRANCH   1  17
TORSDOF 3
