REMARK  Name = ZINC35331744
REMARK  11 active torsions:
REMARK  status: ('A' for Active; 'I' for Inactive)
REMARK    1  A    between atoms: C_1  and  C_2
REMARK    2  A    between atoms: C_2  and  C_3
REMARK    3  A    between atoms: C_3  and  C_4
REMARK    4  A    between atoms: C_4  and  C_5
REMARK    5  A    between atoms: C_5  and  N_6
REMARK    6  A    between atoms: N_6  and  C_7
REMARK    7  A    between atoms: C_7  and  C_8
REMARK    8  A    between atoms: C_10  and  C_13
REMARK    9  A    between atoms: C_13  and  O_15
REMARK   10  A    between atoms: O_15  and  C_16
REMARK   11  A    between atoms: C_17  and  C_19
REMARK                            x       y       z     vdW  Elec       q    Type
REMARK                         _______ _______ _______ _____ _____    ______ ____
ROOT
ATOM      1  N   UNL     1      -3.032  -4.052  -0.140  0.00  0.00    -0.291 N 
ATOM      2  C   UNL     1      -2.768  -4.621  -1.333  0.00  0.00    +0.247 C 
ATOM      3  O   UNL     1      -2.664  -5.829  -1.421  0.00  0.00    -0.270 OA
ENDROOT
BRANCH   2   4
ATOM      4  C   UNL     1      -2.604  -3.777  -2.533  0.00  0.00    +0.041 A 
ATOM      5  C   UNL     1      -2.003  -2.520  -2.429  0.00  0.00    +0.017 A 
ATOM      6  C   UNL     1      -1.850  -1.734  -3.550  0.00  0.00    +0.050 A 
ATOM      7  C   UNL     1      -2.293  -2.186  -4.786  0.00  0.00    +0.166 A 
ATOM      8  C   UNL     1      -2.895  -3.440  -4.897  0.00  0.00    +0.167 A 
ATOM      9  C   UNL     1      -3.045  -4.235  -3.777  0.00  0.00    +0.062 A 
ATOM     10  O   UNL     1      -3.236  -3.645  -6.203  0.00  0.00    -0.453 OA
ATOM     11  C   UNL     1      -3.209  -2.342  -6.816  0.00  0.00    +0.466 C 
ATOM     12  O   UNL     1      -2.258  -1.609  -6.021  0.00  0.00    -0.453 OA
ENDBRANCH   2   4
BRANCH   1  13
ATOM     13  C   UNL     1      -3.240  -2.605  -0.049  0.00  0.00    +0.108 C 
BRANCH  13  14
ATOM     14  C   UNL     1      -2.013  -1.953   0.592  0.00  0.00    +0.019 C 
BRANCH  14  15
ATOM     15  C   UNL     1      -2.162  -0.431   0.546  0.00  0.00    +0.001 C 
BRANCH  15  17
ATOM     16  C   UNL     1      -1.084   1.743   1.141  0.00  0.00    +0.004 C 
ATOM     17  C   UNL     1      -0.935   0.221   1.187  0.00  0.00    -0.003 C 
ENDBRANCH  15  17
ENDBRANCH  14  15
ENDBRANCH  13  14
ENDBRANCH   1  13
BRANCH   1  18
ATOM     18  C   UNL     1      -3.111  -4.881   1.065  0.00  0.00    +0.170 C 
BRANCH  18  19
ATOM     19  C   UNL     1      -4.529  -5.352   1.259  0.00  0.00    +0.096 A 
ATOM     20  N   UNL     1      -5.085  -6.442   0.805  0.00  0.00    -0.236 NA
ATOM     21  C   UNL     1      -6.369  -6.669   1.097  0.00  0.00    +0.155 A 
ATOM     22  C   UNL     1      -6.990  -5.716   1.861  0.00  0.00    +0.082 A 
ATOM     23  S   UNL     1      -5.761  -4.600   2.116  0.00  0.00    -0.078 S 
BRANCH  21  24
ATOM     24  C   UNL     1      -7.074  -7.872   0.626  0.00  0.00    +0.358 C 
ATOM     25  O   UNL     1      -8.243  -8.042   0.913  0.00  0.00    -0.243 OA
BRANCH  24  26
ATOM     26  O   UNL     1      -6.425  -8.784  -0.123  0.00  0.00    -0.463 OA
ATOM     27  C   UNL     1      -7.171  -9.927  -0.546  0.00  0.00    +0.280 C 
ENDBRANCH  24  26
ENDBRANCH  21  24
ENDBRANCH  18  19
ENDBRANCH   1  18
TORSDOF 9
