REMARK  Name = ZINC59020244
REMARK  8 active torsions:
REMARK  status: ('A' for Active; 'I' for Inactive)
REMARK    1  A    between atoms: C_1  and  C_2
REMARK    2  A    between atoms: C_2  and  C_26
REMARK    3  A    between atoms: N_3  and  N_4
REMARK    4  A    between atoms: C_7  and  S_10
REMARK    5  A    between atoms: S_10  and  C_11
REMARK    6  A    between atoms: C_11  and  C_12
REMARK    7  A    between atoms: N_14  and  C_15
REMARK    8  A    between atoms: C_17  and  C_22
REMARK                            x       y       z     vdW  Elec       q    Type
REMARK                         _______ _______ _______ _____ _____    ______ ____
ROOT
ATOM      1  N   UNL     1      -0.011  -2.708   1.950  0.00  0.00    -0.205 N 
ATOM      2  C   UNL     1      -0.117  -3.224   3.229  0.00  0.00    +0.232 A 
ATOM      3  N   UNL     1      -0.145  -2.526   4.345  0.00  0.00    -0.186 NA
ATOM      4  C   UNL     1      -0.255  -3.353   5.390  0.00  0.00    +0.211 A 
ATOM      5  N   UNL     1      -0.298  -4.589   4.952  0.00  0.00    -0.144 NA
ATOM      6  N   UNL     1      -0.216  -4.531   3.551  0.00  0.00    -0.245 N 
ATOM      7  H   UNL     1      -0.003  -3.304   1.185  0.00  0.00    +0.177 HD
ATOM      8  H   UNL     1      -0.227  -5.281   2.937  0.00  0.00    +0.192 HD
ENDROOT
BRANCH   1  11
ATOM      9  C   UNL     1       0.078   0.661   0.353  0.00  0.00    +0.068 C 
ATOM     10  C   UNL     1       0.086  -0.832   0.557  0.00  0.00    +0.063 C 
ATOM     11  N   UNL     1       0.085  -1.323   1.759  0.00  0.00    -0.184 NA
BRANCH  10  12
ATOM     12  C   UNL     1       0.094  -1.736  -0.608  0.00  0.00    -0.003 A 
ATOM     13  C   UNL     1      -0.992  -2.580  -0.849  0.00  0.00    +0.010 A 
ATOM     14  C   UNL     1      -0.977  -3.423  -1.941  0.00  0.00    +0.001 A 
ATOM     15  C   UNL     1       0.110  -3.433  -2.797  0.00  0.00    +0.000 A 
ATOM     16  C   UNL     1       1.190  -2.599  -2.564  0.00  0.00    +0.001 A 
ATOM     17  C   UNL     1       1.186  -1.747  -1.480  0.00  0.00    +0.010 A 
ENDBRANCH  10  12
ENDBRANCH   1  11
BRANCH   4  18
ATOM     18  S   UNL     1      -0.330  -2.862   7.080  0.00  0.00    -0.075 S 
BRANCH  18  19
ATOM     19  C   UNL     1      -0.472  -4.428   7.986  0.00  0.00    +0.173 C 
BRANCH  19  20
ATOM     20  C   UNL     1      -0.546  -4.148   9.465  0.00  0.00    +0.228 C 
ATOM     21  O   UNL     1      -0.506  -3.005   9.868  0.00  0.00    -0.275 OA
ATOM     22  N   UNL     1      -0.656  -5.168  10.339  0.00  0.00    -0.284 N 
ATOM     23  H   UNL     1      -0.772  -6.075  10.014  0.00  0.00    +0.155 HD
BRANCH  22  24
ATOM     24  C   UNL     1      -0.604  -4.919  11.715  0.00  0.00    +0.052 A 
ATOM     25  C   UNL     1       0.049  -3.790  12.194  0.00  0.00    +0.037 A 
ATOM     26  C   UNL     1       0.098  -3.546  13.552  0.00  0.00    +0.057 A 
ATOM     27  C   UNL     1      -0.500  -4.425  14.437  0.00  0.00    +0.014 A 
ATOM     28  C   UNL     1      -1.150  -5.551  13.964  0.00  0.00    +0.022 A 
ATOM     29  C   UNL     1      -1.209  -5.797  12.606  0.00  0.00    +0.062 A 
ATOM     30 CL   UNL     1      -2.032  -7.206  12.013  0.00  0.00    -0.082 Cl
BRANCH  26  31
ATOM     31  C   UNL     1       0.806  -2.321  14.072  0.00  0.00    +0.417 C 
ATOM     32  F   UNL     1      -0.100  -1.258  14.151  0.00  0.00    -0.166 F 
ATOM     33  F   UNL     1       1.326  -2.587  15.343  0.00  0.00    -0.166 F 
ATOM     34  F   UNL     1       1.849  -1.982  13.203  0.00  0.00    -0.166 F 
ENDBRANCH  26  31
ENDBRANCH  22  24
ENDBRANCH  19  20
ENDBRANCH  18  19
ENDBRANCH   4  18
TORSDOF 7
