REMARK  Name = ZINC25588488
REMARK  11 active torsions:
REMARK  status: ('A' for Active; 'I' for Inactive)
REMARK    1  A    between atoms: C_1  and  C_2
REMARK    2  A    between atoms: C_3  and  C_8
REMARK    3  A    between atoms: C_5  and  C_7
REMARK    4  A    between atoms: C_11  and  S_13
REMARK    5  A    between atoms: S_13  and  C_14
REMARK    6  A    between atoms: C_14  and  C_15
REMARK    7  A    between atoms: C_15  and  C_17
REMARK    8  A    between atoms: C_15  and  O_31
REMARK    9  A    between atoms: C_17  and  O_18
REMARK   10  A    between atoms: O_18  and  C_19
REMARK   11  A    between atoms: C_22  and  C_25
REMARK                            x       y       z     vdW  Elec       q    Type
REMARK                         _______ _______ _______ _____ _____    ______ ____
ROOT
ATOM      1  C   UNL     1      -5.758   1.075  10.184  0.00  0.00    +0.162 C 
ENDROOT
BRANCH   1   2
ATOM      2  O   UNL     1      -6.843   0.253   9.751  0.00  0.00    -0.388 OA
ATOM      3  H   UNL     1      -7.454  -0.286  10.490  0.00  0.00    +0.210 HD
ENDBRANCH   1   2
BRANCH   1   4
ATOM      4  C   UNL     1      -5.078   1.706   8.967  0.00  0.00    +0.113 C 
BRANCH   4   5
ATOM      5  S   UNL     1      -4.451   0.400   7.882  0.00  0.00    -0.063 S 
BRANCH   5   9
ATOM      6  C   UNL     1      -2.729   2.011   4.801  0.00  0.00    +0.258 A 
ATOM      7  N   UNL     1      -3.117   3.068   5.477  0.00  0.00    -0.106 NA
ATOM      8  N   UNL     1      -3.723   2.691   6.547  0.00  0.00    -0.101 NA
ATOM      9  C   UNL     1      -3.740   1.380   6.603  0.00  0.00    +0.278 A 
ATOM     10  O   UNL     1      -3.113   0.921   5.502  0.00  0.00    -0.410 OA
BRANCH   6  13
ATOM     11  C   UNL     1      -1.840   4.494   3.179  0.00  0.00    +0.067 C 
ATOM     12  C   UNL     1      -1.583   3.072   2.751  0.00  0.00    +0.058 A 
ATOM     13  C   UNL     1      -2.006   2.014   3.520  0.00  0.00    +0.098 A 
ATOM     14  S   UNL     1      -1.431   0.642   2.529  0.00  0.00    -0.067 S 
ATOM     15  C   UNL     1      -0.718   1.572   1.248  0.00  0.00    +0.076 A 
ATOM     16  N   UNL     1      -0.944   2.807   1.636  0.00  0.00    -0.249 NA
ATOM     17  C   UNL     1      -0.013   1.086   0.008  0.00  0.00    +0.073 C 
ENDBRANCH   6  13
ENDBRANCH   5   9
ENDBRANCH   4   5
ENDBRANCH   1   4
BRANCH   1  18
ATOM     18  C   UNL     1      -6.288   2.179  11.101  0.00  0.00    +0.261 C 
BRANCH  18  19
ATOM     19  O   UNL     1      -6.818   1.595  12.293  0.00  0.00    -0.489 OA
BRANCH  19  20
ATOM     20  C   UNL     1      -7.333   2.445  13.220  0.00  0.00    +0.121 A 
ATOM     21  C   UNL     1      -7.322   3.813  12.987  0.00  0.00    +0.046 A 
ATOM     22  C   UNL     1      -7.849   4.677  13.924  0.00  0.00    +0.012 A 
ATOM     23  C   UNL     1      -8.384   4.176  15.109  0.00  0.00    -0.018 A 
ATOM     24  C   UNL     1      -8.389   2.802  15.342  0.00  0.00    +0.012 A 
ATOM     25  C   UNL     1      -7.865   1.942  14.400  0.00  0.00    +0.046 A 
BRANCH  23  26
ATOM     26  C   UNL     1      -8.946   5.104  16.122  0.00  0.00    -0.018 A 
ATOM     27  C   UNL     1      -9.485   4.604  17.305  0.00  0.00    +0.008 A 
ATOM     28  C   UNL     1     -10.003   5.471  18.245  0.00  0.00    +0.001 A 
ATOM     29  C   UNL     1      -9.996   6.835  18.010  0.00  0.00    +0.000 A 
ATOM     30  C   UNL     1      -9.466   7.336  16.835  0.00  0.00    +0.001 A 
ATOM     31  C   UNL     1      -8.941   6.478  15.890  0.00  0.00    +0.008 A 
ENDBRANCH  23  26
ENDBRANCH  19  20
ENDBRANCH  18  19
ENDBRANCH   1  18
TORSDOF 9
