REMARK  Name = ZINC38702161
REMARK  12 active torsions:
REMARK  status: ('A' for Active; 'I' for Inactive)
REMARK    1  A    between atoms: C_1  and  C_2
REMARK    2  A    between atoms: C_2  and  C_3
REMARK    3  A    between atoms: C_3  and  C_4
REMARK    4  A    between atoms: C_4  and  C_5
REMARK    5  A    between atoms: C_5  and  O_6
REMARK    6  A    between atoms: O_6  and  C_7
REMARK    7  A    between atoms: C_11  and  C_13
REMARK    8  A    between atoms: C_16  and  C_32
REMARK    9  A    between atoms: N_23  and  C_24
REMARK   10  A    between atoms: C_34  and  C_40
REMARK   11  A    between atoms: C_36  and  C_39
REMARK   12  A    between atoms: C_37  and  O_38
REMARK                            x       y       z     vdW  Elec       q    Type
REMARK                         _______ _______ _______ _____ _____    ______ ____
ROOT
ATOM      1  C   UNL     1       2.817  -8.009  -4.841  0.00  0.00    +0.142 C 
ATOM      2  C   UNL     1       4.204  -8.516  -4.558  0.00  0.00    +0.035 A 
ATOM      3  C   UNL     1       5.265  -8.606  -3.650  0.00  0.00    +0.102 A 
ATOM      4  N   UNL     1       6.227  -9.293  -4.234  0.00  0.00    -0.173 NA
ATOM      5  N   UNL     1       5.879  -9.645  -5.420  0.00  0.00    -0.272 N 
ATOM      6  H   UNL     1       6.429 -10.157  -6.033  0.00  0.00    +0.189 HD
ATOM      7  C   UNL     1       4.620  -9.190  -5.690  0.00  0.00    +0.126 A 
ATOM      8  C   UNL     1       3.546  -9.132  -6.688  0.00  0.00    +0.266 C 
ATOM      9  O   UNL     1       3.599  -9.632  -7.795  0.00  0.00    -0.268 OA
ATOM     10  N   UNL     1       2.491  -8.448  -6.204  0.00  0.00    -0.280 N 
ENDROOT
BRANCH   3  11
ATOM     11  C   UNL     1       5.300  -8.034  -2.281  0.00  0.00    +0.044 A 
ATOM     12  C   UNL     1       4.161  -7.442  -1.740  0.00  0.00    +0.017 A 
ATOM     13  C   UNL     1       4.199  -6.912  -0.467  0.00  0.00    -0.049 A 
ATOM     14  C   UNL     1       5.365  -6.965   0.276  0.00  0.00    +0.010 A 
ATOM     15  C   UNL     1       6.501  -7.549  -0.252  0.00  0.00    -0.008 A 
ATOM     16  C   UNL     1       6.475  -8.091  -1.526  0.00  0.00    +0.129 A 
ATOM     17  C   UNL     1       7.768  -7.602   0.563  0.00  0.00    +0.047 C 
ATOM     18  C   UNL     1       2.966  -6.271   0.117  0.00  0.00    +0.044 C 
BRANCH  16  19
ATOM     19  O   UNL     1       7.590  -8.671  -2.043  0.00  0.00    -0.506 OA
ATOM     20  H   UNL     1       8.164  -8.060  -2.526  0.00  0.00    +0.292 HD
ENDBRANCH  16  19
ENDBRANCH   3  11
BRANCH  10  21
ATOM     21  C   UNL     1       1.237  -8.187  -6.914  0.00  0.00    +0.100 C 
ATOM     22  C   UNL     1       0.579  -9.518  -7.314  0.00  0.00    +0.047 C 
ATOM     23  C   UNL     1      -0.561  -9.259  -8.328  0.00  0.00    +0.168 C 
ATOM     24  S   UNL     1      -0.011  -7.718  -9.169  0.00  0.00    -0.029 S 
ATOM     25  O   UNL     1       0.338  -8.024 -10.512  0.00  0.00    -0.174 OA
ATOM     26  O   UNL     1      -0.955  -6.688  -8.909  0.00  0.00    -0.174 OA
ATOM     27  C   UNL     1       1.527  -7.381  -8.212  0.00  0.00    +0.188 C 
ENDBRANCH  10  21
BRANCH   1  32
ATOM     28  C   UNL     1       3.413  -4.364  -5.639  0.00  0.00    +0.121 A 
ATOM     29  C   UNL     1       2.730  -3.741  -4.605  0.00  0.00    +0.045 A 
ATOM     30  C   UNL     1       2.078  -4.501  -3.653  0.00  0.00    +0.004 A 
ATOM     31  C   UNL     1       2.107  -5.881  -3.730  0.00  0.00    +0.006 A 
ATOM     32  C   UNL     1       2.787  -6.505  -4.760  0.00  0.00    -0.019 A 
ATOM     33  C   UNL     1       3.436  -5.749  -5.718  0.00  0.00    +0.051 A 
BRANCH  28  34
ATOM     34  O   UNL     1       4.054  -3.619  -6.577  0.00  0.00    -0.492 OA
BRANCH  34  35
ATOM     35  C   UNL     1       3.989  -2.199  -6.434  0.00  0.00    +0.229 C 
BRANCH  35  36
ATOM     36  C   UNL     1       4.763  -1.534  -7.574  0.00  0.00    +0.041 C 
BRANCH  36  37
ATOM     37  C   UNL     1       4.693  -0.014  -7.420  0.00  0.00    +0.003 C 
BRANCH  37  39
ATOM     38  C   UNL     1       5.397   2.171  -8.406  0.00  0.00    +0.004 C 
ATOM     39  C   UNL     1       5.468   0.650  -8.560  0.00  0.00    -0.003 C 
ENDBRANCH  37  39
ENDBRANCH  36  37
ENDBRANCH  35  36
ENDBRANCH  34  35
ENDBRANCH  28  34
ENDBRANCH   1  32
TORSDOF 9
