REMARK  Name = ZINC09943078
REMARK  14 active torsions:
REMARK  status: ('A' for Active; 'I' for Inactive)
REMARK    1  A    between atoms: C_1  and  C_2
REMARK    2  A    between atoms: C_2  and  N_3
REMARK    3  A    between atoms: N_3  and  C_4
REMARK    4  A    between atoms: N_3  and  S_6
REMARK    5  A    between atoms: C_4  and  C_5
REMARK    6  A    between atoms: S_6  and  C_9
REMARK    7  A    between atoms: C_12  and  C_14
REMARK    8  A    between atoms: C_14  and  N_15
REMARK    9  A    between atoms: N_18  and  C_19
REMARK   10  A    between atoms: C_19  and  C_20
REMARK   11  A    between atoms: C_23  and  C_26
REMARK   12  A    between atoms: C_26  and  S_27
REMARK   13  A    between atoms: S_27  and  N_30
REMARK   14  A    between atoms: N_30  and  C_31
REMARK                            x       y       z     vdW  Elec       q    Type
REMARK                         _______ _______ _______ _____ _____    ______ ____
ROOT
ATOM      1  N   UNL     1      -2.406   9.846   4.824  0.00  0.00    -0.295 N 
ATOM      2  C   UNL     1      -1.841   9.513   3.647  0.00  0.00    +0.300 C 
ATOM      3  O   UNL     1      -1.482  10.383   2.876  0.00  0.00    -0.253 OA
ATOM      4  N   UNL     1      -1.672   8.216   3.323  0.00  0.00    -0.295 N 
ATOM      5  H   UNL     1      -2.692   9.152   5.438  0.00  0.00    +0.151 HD
ATOM      6  H   UNL     1      -1.958   7.522   3.938  0.00  0.00    +0.151 HD
ENDROOT
BRANCH   1   7
ATOM      7  C   UNL     1      -2.589  11.257   5.175  0.00  0.00    +0.148 C 
BRANCH   7  11
ATOM      8  C   UNL     1      -4.805  11.528   8.720  0.00  0.00    +0.143 A 
ATOM      9  C   UNL     1      -3.459  11.511   8.875  0.00  0.00    +0.037 A 
ATOM     10  C   UNL     1      -2.656  11.423   7.754  0.00  0.00    +0.015 A 
ATOM     11  C   UNL     1      -3.238  11.356   6.532  0.00  0.00    +0.009 A 
ATOM     12  S   UNL     1      -4.974  11.425   6.946  0.00  0.00    -0.072 S 
BRANCH   8  13
ATOM     13  S   UNL     1      -6.063  11.633   9.950  0.00  0.00    +0.067 S 
ATOM     14  O   UNL     1      -7.236  11.068   9.380  0.00  0.00    -0.152 OA
ATOM     15  O   UNL     1      -5.492  11.146  11.157  0.00  0.00    -0.152 OA
BRANCH  13  16
ATOM     16  N   UNL     1      -6.380  13.240  10.190  0.00  0.00    -0.177 NA
BRANCH  16  18
ATOM     17  C   UNL     1      -8.733  13.909  10.159  0.00  0.00    +0.022 C 
ATOM     18  C   UNL     1      -7.409  13.911   9.391  0.00  0.00    +0.106 C 
ENDBRANCH  16  18
BRANCH  16  19
ATOM     19  C   UNL     1      -5.633  13.991  11.201  0.00  0.00    +0.106 C 
ATOM     20  C   UNL     1      -4.449  14.699  10.539  0.00  0.00    +0.022 C 
ENDBRANCH  16  19
ENDBRANCH  13  16
ENDBRANCH   8  13
ENDBRANCH   7  11
ENDBRANCH   1   7
BRANCH   4  21
ATOM     21  C   UNL     1      -1.057   7.854   2.044  0.00  0.00    +0.141 C 
BRANCH  21  22
ATOM     22  C   UNL     1      -0.985   6.353   1.928  0.00  0.00    -0.030 A 
ATOM     23  C   UNL     1      -2.033   5.653   1.359  0.00  0.00    +0.005 A 
ATOM     24  C   UNL     1      -1.967   4.276   1.252  0.00  0.00    +0.005 A 
ATOM     25  C   UNL     1      -0.853   3.600   1.713  0.00  0.00    -0.025 A 
ATOM     26  C   UNL     1       0.192   4.299   2.287  0.00  0.00    +0.005 A 
ATOM     27  C   UNL     1       0.128   5.676   2.390  0.00  0.00    +0.005 A 
BRANCH  25  28
ATOM     28  C   UNL     1      -0.781   2.099   1.596  0.00  0.00    +0.220 C 
BRANCH  28  29
ATOM     29  S   UNL     1      -0.020   1.652   0.011  0.00  0.00    +0.033 S 
ATOM     30  O   UNL     1       1.349   2.033   0.000  0.00  0.00    -0.158 OA
ATOM     31  O   UNL     1      -0.880   2.009  -1.062  0.00  0.00    -0.158 OA
BRANCH  29  32
ATOM     32  N   UNL     1       0.002  -0.004   0.002  0.00  0.00    -0.197 NA
ATOM     33  C   UNL     1      -1.257  -0.754  -0.013  0.00  0.00    +0.127 C 
ATOM     34  H   UNL     1       0.849  -0.478   0.006  0.00  0.00    +0.147 HD
ENDBRANCH  29  32
ENDBRANCH  28  29
ENDBRANCH  25  28
ENDBRANCH  21  22
ENDBRANCH   4  21
TORSDOF 11
