REMARK  Name = ZINC15899942
REMARK  7 active torsions:
REMARK  status: ('A' for Active; 'I' for Inactive)
REMARK    1  A    between atoms: C_1  and  C_2
REMARK    2  A    between atoms: C_7  and  N_8
REMARK    3  A    between atoms: C_12  and  C_31
REMARK    4  A    between atoms: C_18  and  S_19
REMARK    5  A    between atoms: S_19  and  C_20
REMARK    6  A    between atoms: C_20  and  C_21
REMARK    7  A    between atoms: N_23  and  C_24
REMARK                            x       y       z     vdW  Elec       q    Type
REMARK                         _______ _______ _______ _____ _____    ______ ____
ROOT
ATOM      1  N   UNL     1       0.035   0.012   2.382  0.00  0.00    -0.274 N 
ATOM      2  C   UNL     1      -1.172   0.351   3.009  0.00  0.00    +0.124 A 
ATOM      3  N   UNL     1      -2.274  -0.347   2.885  0.00  0.00    -0.384 N 
ATOM      4  C   UNL     1      -1.068   1.575   3.823  0.00  0.00    +0.082 A 
ATOM      5  C   UNL     1      -2.010   2.456   4.341  0.00  0.00    +0.072 A 
ATOM      6  N   UNL     1      -1.373   3.390   5.005  0.00  0.00    -0.177 NA
ATOM      7  N   UNL     1       0.010   3.151   4.941  0.00  0.00    -0.260 N 
ATOM      8  H   UNL     1       0.700   3.694   5.351  0.00  0.00    +0.191 HD
ATOM      9  C   UNL     1       0.211   2.036   4.212  0.00  0.00    +0.162 A 
ATOM     10  N   UNL     1       1.320   1.375   3.835  0.00  0.00    -0.204 NA
ATOM     11  C   UNL     1       1.216   0.369   2.983  0.00  0.00    +0.177 A 
ATOM     12  C   UNL     1      -3.504   2.355   4.170  0.00  0.00    +0.068 C 
ATOM     13  H   UNL     1      -2.284  -1.146   2.336  0.00  0.00    +0.157 HD
ATOM     14  H   UNL     1      -3.081  -0.064   3.344  0.00  0.00    +0.157 HD
ENDROOT
BRANCH   1  21
ATOM     15  C   UNL     1       0.011   1.522  -0.030  0.00  0.00    +0.046 C 
ATOM     16  C   UNL     1       0.025   0.016  -0.034  0.00  0.00    -0.026 A 
ATOM     17  C   UNL     1       0.032  -0.673  -1.232  0.00  0.00    +0.005 A 
ATOM     18  C   UNL     1       0.043  -2.055  -1.236  0.00  0.00    +0.000 A 
ATOM     19  C   UNL     1       0.048  -2.753  -0.042  0.00  0.00    +0.002 A 
ATOM     20  C   UNL     1       0.041  -2.071   1.158  0.00  0.00    +0.026 A 
ATOM     21  C   UNL     1       0.035  -0.682   1.166  0.00  0.00    +0.053 A 
ENDBRANCH   1  21
BRANCH  11  22
ATOM     22  S   UNL     1       2.664  -0.556   2.595  0.00  0.00    -0.078 S 
BRANCH  22  23
ATOM     23  C   UNL     1       3.966   0.231   3.584  0.00  0.00    +0.173 C 
BRANCH  23  24
ATOM     24  C   UNL     1       5.276  -0.474   3.341  0.00  0.00    +0.228 C 
ATOM     25  O   UNL     1       5.326  -1.414   2.577  0.00  0.00    -0.275 OA
ATOM     26  N   UNL     1       6.391  -0.059   3.974  0.00  0.00    -0.284 N 
ATOM     27  H   UNL     1       6.365   0.732   4.535  0.00  0.00    +0.155 HD
BRANCH  26  28
ATOM     28  C   UNL     1       7.587  -0.770   3.822  0.00  0.00    +0.052 A 
ATOM     29  C   UNL     1       7.887  -1.377   2.610  0.00  0.00    +0.025 A 
ATOM     30  C   UNL     1       9.069  -2.077   2.463  0.00  0.00    +0.002 A 
ATOM     31  C   UNL     1       9.953  -2.175   3.522  0.00  0.00    +0.002 A 
ATOM     32  C   UNL     1       9.658  -1.572   4.731  0.00  0.00    +0.022 A 
ATOM     33  C   UNL     1       8.480  -0.865   4.883  0.00  0.00    +0.062 A 
ATOM     34 CL   UNL     1       8.114  -0.102   6.399  0.00  0.00    -0.082 Cl
ENDBRANCH  26  28
ENDBRANCH  23  24
ENDBRANCH  22  23
ENDBRANCH  11  22
TORSDOF 5
