REMARK  Name = ZINC04235675
REMARK  6 active torsions:
REMARK  status: ('A' for Active; 'I' for Inactive)
REMARK    1  A    between atoms: C_3  and  N_31
REMARK    2  A    between atoms: C_4  and  S_7
REMARK    3  A    between atoms: S_7  and  C_8
REMARK    4  A    between atoms: N_16  and  S_17
REMARK    5  A    between atoms: S_17  and  C_20
REMARK    6  A    between atoms: C_23  and  N_26
REMARK                            x       y       z     vdW  Elec       q    Type
REMARK                         _______ _______ _______ _____ _____    ______ ____
ROOT
ATOM      1  C   UNL     1       1.827   5.815   0.015  0.00  0.00    +0.197 A 
ATOM      2  N   UNL     1       2.727   4.863   0.007  0.00  0.00    -0.220 NA
ATOM      3  C   UNL     1       3.971   5.411  -0.006  0.00  0.00    +0.093 A 
ATOM      4  C   UNL     1       5.258   4.868  -0.020  0.00  0.00    +0.051 A 
ATOM      5  C   UNL     1       6.353   5.704  -0.025  0.00  0.00    +0.061 A 
ATOM      6  C   UNL     1       6.187   7.083  -0.017  0.00  0.00    +0.061 A 
ATOM      7  C   UNL     1       4.921   7.634  -0.004  0.00  0.00    +0.051 A 
ATOM      8  C   UNL     1       3.808   6.806   0.002  0.00  0.00    +0.095 A 
ATOM      9  N   UNL     1       2.442   7.035   0.015  0.00  0.00    -0.185 N 
ATOM     10 CL   UNL     1       7.579   8.121  -0.023  0.00  0.00    -0.082 Cl
ATOM     11 CL   UNL     1       7.953   5.029  -0.041  0.00  0.00    -0.082 Cl
ENDROOT
BRANCH   9  12
ATOM     12  S   UNL     1       1.693   8.512   0.029  0.00  0.00    +0.086 S 
ATOM     13  O   UNL     1       2.615   9.440  -0.525  0.00  0.00    -0.148 OA
ATOM     14  O   UNL     1       0.394   8.314  -0.511  0.00  0.00    -0.148 OA
BRANCH  12  15
ATOM     15  C   UNL     1       1.472   8.968   1.717  0.00  0.00    +0.111 A 
ATOM     16  C   UNL     1       0.315   8.611   2.384  0.00  0.00    +0.031 A 
ATOM     17  C   UNL     1       0.144   8.965   3.709  0.00  0.00    +0.034 A 
ATOM     18  C   UNL     1       1.125   9.684   4.364  0.00  0.00    +0.126 A 
ATOM     19  C   UNL     1       2.280  10.046   3.696  0.00  0.00    +0.034 A 
ATOM     20  C   UNL     1       2.453   9.688   2.372  0.00  0.00    +0.031 A 
BRANCH  18  21
ATOM     21  N   UNL     1       0.940  10.067   5.782  0.00  0.00    +0.056 N 
ATOM     22  O   UNL     1       1.805  10.701   6.360  0.00  0.00    -0.126 OA
ATOM     23  O   UNL     1      -0.077   9.748   6.371  0.00  0.00    -0.126 OA
ENDBRANCH  18  21
ENDBRANCH  12  15
ENDBRANCH   9  12
BRANCH   1  24
ATOM     24  S   UNL     1       0.084   5.559   0.030  0.00  0.00    -0.028 S 
BRANCH  24  28
ATOM     25  C   UNL     1      -0.013   1.076   0.008  0.00  0.00    +0.022 A 
ATOM     26  C   UNL     1      -1.221   1.761   0.017  0.00  0.00    +0.037 A 
ATOM     27  C   UNL     1      -1.195   3.144   0.029  0.00  0.00    +0.158 A 
ATOM     28  C   UNL     1       0.033   3.798   0.021  0.00  0.00    +0.134 A 
ATOM     29  N   UNL     1       1.163   3.109   0.007  0.00  0.00    -0.246 NA
ATOM     30  C   UNL     1       1.169   1.789   0.001  0.00  0.00    +0.112 A 
BRANCH  27  31
ATOM     31  N   UNL     1      -2.457   3.917   0.045  0.00  0.00    +0.059 N 
ATOM     32  O   UNL     1      -3.528   3.336   0.051  0.00  0.00    -0.126 OA
ATOM     33  O   UNL     1      -2.425   5.135   0.051  0.00  0.00    -0.126 OA
ENDBRANCH  27  31
ENDBRANCH  24  28
ENDBRANCH   1  24
TORSDOF 6
