REMARK  Name = ZINC12246445
REMARK  8 active torsions:
REMARK  status: ('A' for Active; 'I' for Inactive)
REMARK    1  A    between atoms: C_1  and  C_2
REMARK    2  A    between atoms: C_2  and  O_3
REMARK    3  A    between atoms: O_3  and  C_4
REMARK    4  A    between atoms: C_10  and  C_33
REMARK    5  A    between atoms: C_17  and  N_61
REMARK    6  A    between atoms: C_20  and  C_21
REMARK    7  A    between atoms: C_20  and  N_61
REMARK    8  A    between atoms: C_21  and  C_22
REMARK                            x       y       z     vdW  Elec       q    Type
REMARK                         _______ _______ _______ _____ _____    ______ ____
ROOT
ATOM      1  C   UNL     1      -4.236   1.823   0.154  0.00  0.00    +0.121 A 
ATOM      2  C   UNL     1      -4.838   2.274   1.333  0.00  0.00    +0.048 A 
ATOM      3  C   UNL     1      -4.104   2.479   2.461  0.00  0.00    +0.032 A 
ATOM      4  C   UNL     1      -2.720   2.251   2.441  0.00  0.00    +0.077 A 
ATOM      5  C   UNL     1      -2.107   1.798   1.244  0.00  0.00    +0.025 A 
ATOM      6  C   UNL     1      -2.891   1.586   0.101  0.00  0.00    +0.057 A 
ATOM      7  C   UNL     1      -0.718   1.572   1.248  0.00  0.00    +0.051 A 
ATOM      8  N   UNL     1      -0.048   1.799   2.358  0.00  0.00    -0.219 NA
ATOM      9  C   UNL     1      -0.655   2.229   3.463  0.00  0.00    +0.219 A 
ATOM     10  N   UNL     1      -1.953   2.453   3.520  0.00  0.00    -0.214 NA
ATOM     11  N   UNL     1       0.107   2.449   4.597  0.00  0.00    -0.300 N 
ATOM     12  C   UNL     1       0.859   1.243   4.968  0.00  0.00    +0.106 C 
ATOM     13  C   UNL     1       1.797   1.563   6.133  0.00  0.00    +0.003 C 
ATOM     14  C   UNL     1       0.973   2.060   7.324  0.00  0.00    -0.069 C 
ATOM     15  C   UNL     1       0.163   3.288   6.898  0.00  0.00    +0.003 C 
ATOM     16  C   UNL     1      -0.728   2.917   5.710  0.00  0.00    +0.106 C 
ATOM     17  C   UNL     1      -0.013   1.086   0.008  0.00  0.00    +0.066 C 
ENDROOT
BRANCH  14  18
ATOM     18  N   UNL     1       1.877   2.435   8.428  0.00  0.00    +0.381 N 
ATOM     19  H   UNL     1       1.414   3.133   9.022  0.00  0.00    -0.086 HD
ATOM     20  H   UNL     1       2.739   2.833   8.040  0.00  0.00    -0.086 HD
BRANCH  18  21
ATOM     21  C   UNL     1       2.211   1.250   9.241  0.00  0.00    -0.075 C 
BRANCH  21  22
ATOM     22  C   UNL     1       3.147   1.668  10.376  0.00  0.00    +0.055 C 
BRANCH  22  23
ATOM     23  C   UNL     1       3.494   0.463  11.212  0.00  0.00    +0.106 A 
ATOM     24  N   UNL     1       4.758   0.042  11.486  0.00  0.00    -0.342 N 
ATOM     25  H   UNL     1       5.606   0.471  11.175  0.00  0.00    +0.167 HD
ATOM     26  C   UNL     1       4.653  -1.087  12.275  0.00  0.00    +0.066 A 
ATOM     27  C   UNL     1       5.574  -1.945  12.860  0.00  0.00    +0.029 A 
ATOM     28  C   UNL     1       5.136  -3.013  13.611  0.00  0.00    +0.022 A 
ATOM     29  C   UNL     1       3.777  -3.238  13.789  0.00  0.00    +0.043 A 
ATOM     30  C   UNL     1       2.849  -2.398  13.216  0.00  0.00    +0.050 A 
ATOM     31  C   UNL     1       3.277  -1.310  12.451  0.00  0.00    +0.090 A 
ATOM     32  N   UNL     1       2.627  -0.324  11.780  0.00  0.00    -0.233 NA
ATOM     33 CL   UNL     1       3.244  -4.590  14.740  0.00  0.00    -0.083 Cl
ENDBRANCH  22  23
ENDBRANCH  21  22
ENDBRANCH  18  21
ENDBRANCH  14  18
BRANCH   1  34
ATOM     34  O   UNL     1      -4.998   1.619  -0.953  0.00  0.00    -0.492 OA
BRANCH  34  36
ATOM     35  C   UNL     1      -7.085   1.598  -2.171  0.00  0.00    +0.048 C 
ATOM     36  C   UNL     1      -6.397   1.884  -0.835  0.00  0.00    +0.225 C 
ENDBRANCH  34  36
ENDBRANCH   1  34
TORSDOF 6
