REMARK  Name = ZINC35430278
REMARK  2 active torsions:
REMARK  status: ('A' for Active; 'I' for Inactive)
REMARK    1  A    between atoms: C_2  and  C_14
REMARK    2  A    between atoms: N_16  and  C_17
REMARK                            x       y       z     vdW  Elec       q    Type
REMARK                         _______ _______ _______ _____ _____    ______ ____
ROOT
ATOM      1  C   UNL     1      -0.016   1.318   0.030  0.00  0.00    +0.132 A 
ATOM      2  C   UNL     1       1.201   2.008   0.003  0.00  0.00    +0.119 A 
ATOM      3  C   UNL     1       2.407   1.274  -0.030  0.00  0.00    +0.271 A 
ATOM      4  O   UNL     1       3.478   1.854  -0.053  0.00  0.00    -0.266 OA
ATOM      5  N   UNL     1       2.363  -0.092  -0.036  0.00  0.00    -0.258 N 
ATOM      6  C   UNL     1       3.480  -0.927  -0.070  0.00  0.00    +0.039 A 
ATOM      7  C   UNL     1       3.233  -2.236  -0.070  0.00  0.00    +0.013 A 
ATOM      8  S   UNL     1       1.460  -2.323  -0.021  0.00  0.00    -0.054 S 
ATOM      9  C   UNL     1       1.137  -0.678  -0.007  0.00  0.00    +0.180 A 
ATOM     10  N   UNL     1       0.002  -0.004   0.024  0.00  0.00    -0.230 NA
ATOM     11  C   UNL     1       4.491  -3.056  -0.113  0.00  0.00    +0.044 C 
ATOM     12  C   UNL     1       5.584  -2.063  -0.569  0.00  0.00    +0.011 C 
ATOM     13  C   UNL     1       4.993  -0.716  -0.106  0.00  0.00    +0.055 C 
ENDROOT
BRANCH   2  14
ATOM     14  C   UNL     1       1.224   3.476   0.009  0.00  0.00    +0.251 C 
ATOM     15  O   UNL     1       0.183   4.101  -0.071  0.00  0.00    -0.270 OA
ATOM     16  N   UNL     1       2.399   4.131   0.103  0.00  0.00    -0.308 N 
ATOM     17  H   UNL     1       3.232   3.635   0.093  0.00  0.00    +0.149 HD
BRANCH  16  18
ATOM     18  C   UNL     1       2.415   5.591   0.222  0.00  0.00    +0.073 C 
ATOM     19  C   UNL     1       2.346   6.216  -1.173  0.00  0.00    +0.022 C 
ATOM     20  C   UNL     1       1.966   7.693  -1.051  0.00  0.00    +0.002 C 
ATOM     21  C   UNL     1       0.828   7.846  -0.039  0.00  0.00    +0.000 C 
ATOM     22  C   UNL     1       1.337   8.600   1.191  0.00  0.00    +0.000 C 
ATOM     23  C   UNL     1       2.188   7.661   2.048  0.00  0.00    +0.000 C 
ATOM     24  C   UNL     1       3.559   7.477   1.395  0.00  0.00    +0.002 C 
ATOM     25  C   UNL     1       3.706   6.032   0.915  0.00  0.00    +0.022 C 
ENDBRANCH  16  18
ENDBRANCH   2  14
TORSDOF 2
