REMARK  Name = ZINC09277203
REMARK  9 active torsions:
REMARK  status: ('A' for Active; 'I' for Inactive)
REMARK    1  A    between atoms: C_7  and  S_23
REMARK    2  A    between atoms: N_9  and  C_10
REMARK    3  A    between atoms: C_10  and  C_11
REMARK    4  A    between atoms: C_11  and  N_12
REMARK    5  A    between atoms: C_13  and  C_15
REMARK    6  A    between atoms: S_23  and  C_24
REMARK    7  A    between atoms: C_24  and  C_25
REMARK    8  A    between atoms: N_27  and  C_28
REMARK    9  A    between atoms: C_31  and  N_34
REMARK                            x       y       z     vdW  Elec       q    Type
REMARK                         _______ _______ _______ _____ _____    ______ ____
ROOT
ATOM      1  C   UNL     1       7.489   0.107  -0.058  0.00  0.00    +0.001 A 
ATOM      2  C   UNL     1       8.258   1.263  -0.049  0.00  0.00    +0.002 A 
ATOM      3  C   UNL     1       7.660   2.504  -0.030  0.00  0.00    +0.026 A 
ATOM      4  C   UNL     1       6.272   2.603  -0.019  0.00  0.00    +0.050 A 
ATOM      5  C   UNL     1       5.498   1.428  -0.024  0.00  0.00    +0.013 A 
ATOM      6  C   UNL     1       6.125   0.181  -0.049  0.00  0.00    +0.011 A 
ATOM      7  C   UNL     1       4.096   1.863  -0.014  0.00  0.00    +0.034 A 
ATOM      8  C   UNL     1       4.102   3.209   0.003  0.00  0.00    +0.101 A 
ATOM      9  N   UNL     1       5.400   3.667   0.000  0.00  0.00    -0.344 N 
ENDROOT
BRANCH   9  10
ATOM     10  C   UNL     1       5.794   5.078   0.016  0.00  0.00    +0.140 C 
BRANCH  10  11
ATOM     11  C   UNL     1       6.043   5.554  -1.417  0.00  0.00    +0.126 C 
BRANCH  11  12
ATOM     12  N   UNL     1       6.438   6.965  -1.401  0.00  0.00    -0.309 N 
ATOM     13  C   UNL     1       6.710   7.602  -2.557  0.00  0.00    +0.250 C 
ATOM     14  O   UNL     1       6.628   7.005  -3.614  0.00  0.00    -0.270 OA
ATOM     15  H   UNL     1       6.503   7.441  -0.558  0.00  0.00    +0.149 HD
BRANCH  13  16
ATOM     16  C   UNL     1       7.107   9.023  -2.541  0.00  0.00    +0.107 A 
ATOM     17  C   UNL     1       8.457   9.375  -2.434  0.00  0.00    +0.138 A 
ATOM     18  C   UNL     1       8.820  10.708  -2.425  0.00  0.00    +0.039 A 
ATOM     19  C   UNL     1       7.853  11.693  -2.510  0.00  0.00    +0.006 A 
ATOM     20  C   UNL     1       6.516  11.354  -2.611  0.00  0.00    +0.039 A 
ATOM     21  C   UNL     1       6.135  10.026  -2.627  0.00  0.00    +0.138 A 
ATOM     22  F   UNL     1       4.829   9.697  -2.726  0.00  0.00    -0.205 F 
ATOM     23  F   UNL     1       9.402   8.414  -2.345  0.00  0.00    -0.205 F 
ENDBRANCH  13  16
ENDBRANCH  11  12
ENDBRANCH  10  11
ENDBRANCH   9  10
BRANCH   7  24
ATOM     24  S   UNL     1       2.675   0.821  -0.017  0.00  0.00    -0.114 S 
BRANCH  24  25
ATOM     25  C   UNL     1       1.280   1.980   0.007  0.00  0.00    +0.170 C 
BRANCH  25  26
ATOM     26  C   UNL     1      -0.014   1.209   0.007  0.00  0.00    +0.227 C 
ATOM     27  O   UNL     1       0.002  -0.004  -0.008  0.00  0.00    -0.275 OA
ATOM     28  N   UNL     1      -1.191   1.867   0.018  0.00  0.00    -0.285 N 
ATOM     29  H   UNL     1      -1.205   2.833   0.098  0.00  0.00    +0.155 HD
BRANCH  28  30
ATOM     30  C   UNL     1      -2.391   1.155  -0.086  0.00  0.00    +0.034 A 
ATOM     31  C   UNL     1      -3.468   1.704  -0.769  0.00  0.00    +0.025 A 
ATOM     32  C   UNL     1      -4.650   0.997  -0.874  0.00  0.00    +0.034 A 
ATOM     33  C   UNL     1      -4.765  -0.251  -0.290  0.00  0.00    +0.126 A 
ATOM     34  C   UNL     1      -3.696  -0.798   0.395  0.00  0.00    +0.034 A 
ATOM     35  C   UNL     1      -2.510  -0.099   0.499  0.00  0.00    +0.025 A 
BRANCH  33  36
ATOM     36  N   UNL     1      -6.035  -1.003  -0.399  0.00  0.00    +0.056 N 
ATOM     37  O   UNL     1      -6.138  -2.103   0.114  0.00  0.00    -0.126 OA
ATOM     38  O   UNL     1      -6.978  -0.523  -1.003  0.00  0.00    -0.126 OA
ENDBRANCH  33  36
ENDBRANCH  28  30
ENDBRANCH  25  26
ENDBRANCH  24  25
ENDBRANCH   7  24
TORSDOF 9
