REMARK  Name = ZINC63385645
REMARK  7 active torsions:
REMARK  status: ('A' for Active; 'I' for Inactive)
REMARK    1  A    between atoms: C_6  and  C_7
REMARK    2  A    between atoms: C_7  and  N_8
REMARK    3  A    between atoms: C_11  and  C_16
REMARK    4  A    between atoms: C_16  and  C_17
REMARK    5  A    between atoms: N_19  and  C_20
REMARK    6  A    between atoms: C_20  and  C_21
REMARK    7  A    between atoms: C_21  and  C_22
REMARK                            x       y       z     vdW  Elec       q    Type
REMARK                         _______ _______ _______ _____ _____    ______ ____
ROOT
ATOM      1  N   UNL     1      -1.727  -1.016  -1.368  0.00  0.00    -0.220 N 
ATOM      2  C   UNL     1      -2.515  -0.179  -2.072  0.00  0.00    +0.244 C 
ATOM      3  O   UNL     1      -2.983   0.875  -1.698  0.00  0.00    -0.273 OA
ATOM      4  C   UNL     1      -2.696  -0.831  -3.429  0.00  0.00    +0.170 C 
ATOM      5  N   UNL     1      -1.915  -2.075  -3.322  0.00  0.00    -0.287 N 
ATOM      6  C   UNL     1      -1.383  -2.091  -2.086  0.00  0.00    +0.309 C 
ATOM      7  O   UNL     1      -0.673  -2.984  -1.667  0.00  0.00    -0.252 OA
ATOM      8  H   UNL     1      -1.803  -2.750  -4.010  0.00  0.00    +0.151 HD
ENDROOT
BRANCH   1   9
ATOM      9  C   UNL     1      -1.294  -0.774   0.010  0.00  0.00    +0.153 C 
BRANCH   9  15
ATOM     10  C   UNL     1      -0.017   1.378   0.010  0.00  0.00    +0.009 A 
ATOM     11  C   UNL     1       1.170   2.088   0.002  0.00  0.00    +0.050 A 
ATOM     12  C   UNL     1       2.380   1.416  -0.013  0.00  0.00    +0.166 A 
ATOM     13  C   UNL     1       2.399   0.023  -0.021  0.00  0.00    +0.167 A 
ATOM     14  C   UNL     1       1.207  -0.682  -0.014  0.00  0.00    +0.054 A 
ATOM     15  C   UNL     1       0.002  -0.004   0.002  0.00  0.00    -0.026 A 
ATOM     16  O   UNL     1       3.698  -0.395  -0.036  0.00  0.00    -0.453 OA
ATOM     17  C   UNL     1       4.466   0.750  -0.450  0.00  0.00    +0.466 C 
ATOM     18  O   UNL     1       3.668   1.870  -0.024  0.00  0.00    -0.453 OA
ENDBRANCH   9  15
ENDBRANCH   1   9
BRANCH   4  19
ATOM     19  C   UNL     1      -4.172  -1.139  -3.686  0.00  0.00    +0.127 C 
BRANCH  19  20
ATOM     20  C   UNL     1      -4.338  -1.671  -5.086  0.00  0.00    +0.215 C 
ATOM     21  O   UNL     1      -3.370  -1.792  -5.807  0.00  0.00    -0.276 OA
ATOM     22  N   UNL     1      -5.561  -2.013  -5.537  0.00  0.00    -0.315 N 
ATOM     23  H   UNL     1      -6.335  -1.916  -4.960  0.00  0.00    +0.149 HD
BRANCH  22  24
ATOM     24  C   UNL     1      -5.723  -2.530  -6.898  0.00  0.00    +0.108 C 
BRANCH  24  25
ATOM     25  C   UNL     1      -7.199  -2.838  -7.155  0.00  0.00    +0.052 C 
BRANCH  25  26
ATOM     26  C   UNL     1      -7.365  -3.370  -8.555  0.00  0.00    -0.040 C 
ATOM     27  C   UNL     1      -7.407  -4.668  -8.931  0.00  0.00    +0.002 A 
ATOM     28  C   UNL     1      -7.313  -5.925  -8.179  0.00  0.00    +0.048 A 
ATOM     29  C   UNL     1      -7.390  -7.099  -8.849  0.00  0.00    +0.124 A 
ATOM     30  C   UNL     1      -7.556  -7.143 -10.243  0.00  0.00    +0.040 A 
ATOM     31  C   UNL     1      -7.649  -6.030 -11.001  0.00  0.00    +0.029 A 
ATOM     32  C   UNL     1      -7.582  -4.743 -10.400  0.00  0.00    +0.043 A 
ATOM     33  N   UNL     1      -7.645  -3.537 -10.911  0.00  0.00    -0.380 N 
ATOM     34  C   UNL     1      -7.525  -2.561  -9.822  0.00  0.00    +0.144 C 
ATOM     35  F   UNL     1      -7.304  -8.258  -8.160  0.00  0.00    -0.205 F 
ATOM     36  H   UNL     1      -7.758  -3.326 -11.851  0.00  0.00    +0.160 HD
ENDBRANCH  25  26
ENDBRANCH  24  25
ENDBRANCH  22  24
ENDBRANCH  19  20
ENDBRANCH   4  19
TORSDOF 7
