REMARK  Name = ZINC66947698
REMARK  10 active torsions:
REMARK  status: ('A' for Active; 'I' for Inactive)
REMARK    1  A    between atoms: C_1  and  C_2
REMARK    2  A    between atoms: C_2  and  C_3
REMARK    3  A    between atoms: C_8  and  N_9
REMARK    4  A    between atoms: C_13  and  S_14
REMARK    5  A    between atoms: S_14  and  C_15
REMARK    6  A    between atoms: C_15  and  C_16
REMARK    7  A    between atoms: C_23  and  C_25
REMARK    8  A    between atoms: C_25  and  N_26
REMARK    9  A    between atoms: N_26  and  C_27
REMARK   10  A    between atoms: N_26  and  C_28
REMARK                            x       y       z     vdW  Elec       q    Type
REMARK                         _______ _______ _______ _____ _____    ______ ____
ROOT
ATOM      1  S   UNL     1       0.682  -5.359   0.829  0.00  0.00    -0.076 S 
ENDROOT
BRANCH   1   6
ATOM      2  N   UNL     1       2.787  -4.687   2.550  0.00  0.00    -0.276 N 
ATOM      3  C   UNL     1       2.909  -4.053   3.758  0.00  0.00    +0.230 A 
ATOM      4  N   UNL     1       1.709  -3.716   4.141  0.00  0.00    -0.137 NA
ATOM      5  N   UNL     1       0.845  -4.090   3.267  0.00  0.00    -0.122 NA
ATOM      6  C   UNL     1       1.449  -4.686   2.266  0.00  0.00    +0.196 A 
BRANCH   2  12
ATOM      7  C   UNL     1       4.101  -4.674   0.521  0.00  0.00    -0.024 A 
ATOM      8  C   UNL     1       5.123  -5.198  -0.247  0.00  0.00    +0.005 A 
ATOM      9  C   UNL     1       5.861  -6.270   0.220  0.00  0.00    +0.000 A 
ATOM     10  C   UNL     1       5.579  -6.820   1.457  0.00  0.00    +0.002 A 
ATOM     11  C   UNL     1       4.559  -6.300   2.229  0.00  0.00    +0.026 A 
ATOM     12  C   UNL     1       3.820  -5.221   1.765  0.00  0.00    +0.053 A 
BRANCH   7  14
ATOM     13  C   UNL     1       3.888  -2.204   0.553  0.00  0.00    +0.009 C 
ATOM     14  C   UNL     1       3.297  -3.506   0.011  0.00  0.00    +0.034 C 
ENDBRANCH   7  14
ENDBRANCH   2  12
ENDBRANCH   1   6
BRANCH   1  15
ATOM     15  C   UNL     1      -1.084  -5.027   1.078  0.00  0.00    +0.173 C 
BRANCH  15  16
ATOM     16  C   UNL     1      -1.865  -5.560  -0.095  0.00  0.00    +0.226 C 
ATOM     17  O   UNL     1      -1.288  -6.110  -1.009  0.00  0.00    -0.275 OA
ATOM     18  N   UNL     1      -3.206  -5.426  -0.129  0.00  0.00    -0.300 N 
ATOM     19  C   UNL     1      -3.931  -4.869   1.021  0.00  0.00    +0.108 C 
ATOM     20  C   UNL     1      -5.037  -5.849   1.427  0.00  0.00    +0.019 C 
ATOM     21  C   UNL     1      -5.919  -6.149   0.213  0.00  0.00    +0.003 C 
ATOM     22  C   UNL     1      -5.074  -6.801  -0.884  0.00  0.00    +0.021 C 
ATOM     23  C   UNL     1      -3.969  -5.827  -1.319  0.00  0.00    +0.059 C 
BRANCH  23  24
ATOM     24  C   UNL     1      -3.037  -6.518  -2.316  0.00  0.00    -0.057 C 
BRANCH  24  25
ATOM     25  N   UNL     1      -3.767  -6.786  -3.563  0.00  0.00    +0.377 N 
ATOM     26  C   UNL     1      -2.814  -7.159  -4.617  0.00  0.00    -0.097 C 
ATOM     27  C   UNL     1      -4.715  -7.887  -3.348  0.00  0.00    -0.097 C 
ATOM     28  H   UNL     1      -4.271  -5.958  -3.842  0.00  0.00    -0.083 HD
ENDBRANCH  24  25
ENDBRANCH  23  24
ENDBRANCH  15  16
ENDBRANCH   1  15
TORSDOF 7
