REMARK  Name = ZINC20705544
REMARK  6 active torsions:
REMARK  status: ('A' for Active; 'I' for Inactive)
REMARK    1  A    between atoms: C_3  and  C_10
REMARK    2  A    between atoms: C_5  and  N_7
REMARK    3  A    between atoms: C_21  and  S_26
REMARK    4  A    between atoms: S_26  and  N_29
REMARK    5  A    between atoms: N_29  and  C_30
REMARK    6  A    between atoms: C_30  and  C_31
REMARK                            x       y       z     vdW  Elec       q    Type
REMARK                         _______ _______ _______ _____ _____    ______ ____
ROOT
ATOM      1  C   UNL     1       2.490   1.048  -0.016  0.00  0.00    +0.105 C 
ATOM      2  C   UNL     1       3.163   1.144   1.342  0.00  0.00    +0.029 C 
ATOM      3  C   UNL     1       2.341   0.722   2.564  0.00  0.00    +0.033 C 
ATOM      4  C   UNL     1       2.939   1.603   3.661  0.00  0.00    -0.030 C 
ATOM      5  C   UNL     1       3.460   2.702   3.128  0.00  0.00    -0.023 C 
ATOM      6  C   UNL     1       3.230   2.671   1.661  0.00  0.00    +0.049 C 
ATOM      7  C   UNL     1       4.170   3.297   0.706  0.00  0.00    -0.018 A 
ATOM      8  C   UNL     1       4.979   4.357   1.052  0.00  0.00    +0.034 A 
ATOM      9  C   UNL     1       5.827   4.923   0.117  0.00  0.00    +0.106 A 
ATOM     10  C   UNL     1       5.866   4.423  -1.172  0.00  0.00    +0.030 A 
ATOM     11  C   UNL     1       5.066   3.356  -1.526  0.00  0.00    +0.025 A 
ATOM     12  C   UNL     1       4.214   2.777  -0.592  0.00  0.00    +0.031 A 
ATOM     13  N   UNL     1       3.421   1.687  -0.971  0.00  0.00    -0.336 N 
ATOM     14  H   UNL     1       3.500   1.307  -2.001  0.00  0.00    +0.147 HD
ENDROOT
BRANCH   1  17
ATOM     15  C   UNL     1      -0.081   3.793  -0.339  0.00  0.00    +0.003 A 
ATOM     16  C   UNL     1       1.126   3.118  -0.354  0.00  0.00    +0.005 A 
ATOM     17  C   UNL     1       1.175   1.783   0.000  0.00  0.00    -0.025 A 
ATOM     18  C   UNL     1       0.018   1.123   0.369  0.00  0.00    +0.038 A 
ATOM     19  C   UNL     1      -1.189   1.796   0.379  0.00  0.00    +0.127 A 
ATOM     20  C   UNL     1      -1.238   3.133   0.030  0.00  0.00    +0.033 A 
BRANCH  19  21
ATOM     21  N   UNL     1      -2.429   1.087   0.768  0.00  0.00    +0.056 N 
ATOM     22  O   UNL     1      -2.385  -0.090   1.080  0.00  0.00    -0.126 OA
ATOM     23  O   UNL     1      -3.492   1.680   0.777  0.00  0.00    -0.126 OA
ENDBRANCH  19  21
ENDBRANCH   1  17
BRANCH   9  24
ATOM     24  S   UNL     1       6.856   6.280   0.568  0.00  0.00    +0.058 S 
ATOM     25  O   UNL     1       7.157   6.977  -0.633  0.00  0.00    -0.153 OA
ATOM     26  O   UNL     1       6.235   6.910   1.679  0.00  0.00    -0.153 OA
BRANCH  24  27
ATOM     27  N   UNL     1       8.285   5.649   1.119  0.00  0.00    -0.187 NA
ATOM     28  H   UNL     1       8.491   5.649   2.199  0.00  0.00    +0.148 HD
BRANCH  27  29
ATOM     29  C   UNL     1       9.158   4.905   0.207  0.00  0.00    +0.137 C 
BRANCH  29  30
ATOM     30  C   UNL     1      10.545   4.759   0.835  0.00  0.00    +0.134 C 
ATOM     31  C   UNL     1      11.504   4.078  -0.166  0.00  0.00    +0.035 C 
ATOM     32  C   UNL     1      12.332   3.142   0.756  0.00  0.00    +0.031 C 
ATOM     33  C   UNL     1      11.265   2.744   1.806  0.00  0.00    +0.160 C 
ATOM     34  O   UNL     1      10.467   3.924   1.996  0.00  0.00    -0.375 OA
ENDBRANCH  29  30
ENDBRANCH  27  29
ENDBRANCH  24  27
ENDBRANCH   9  24
TORSDOF 6
