REMARK  Name = ZINC39711107
REMARK  13 active torsions:
REMARK  status: ('A' for Active; 'I' for Inactive)
REMARK    1  A    between atoms: C_1  and  C_2
REMARK    2  A    between atoms: C_5  and  C_41
REMARK    3  A    between atoms: C_10  and  C_14
REMARK    4  A    between atoms: C_14  and  C_16
REMARK    5  A    between atoms: C_14  and  N_26
REMARK    6  A    between atoms: N_21  and  C_22
REMARK    7  A    between atoms: C_22  and  C_23
REMARK    8  A    between atoms: C_22  and  C_24
REMARK    9  A    between atoms: C_22  and  C_25
REMARK   10  A    between atoms: N_26  and  C_27
REMARK   11  A    between atoms: N_26  and  C_35
REMARK   12  A    between atoms: C_27  and  C_28
REMARK   13  A    between atoms: C_35  and  C_36
REMARK                            x       y       z     vdW  Elec       q    Type
REMARK                         _______ _______ _______ _____ _____    ______ ____
ROOT
ATOM      1  C   UNL     1      -1.386  -0.718   4.223  0.00  0.00    -0.010 C 
ENDROOT
BRANCH   1  11
ATOM      2  C   UNL     1      -1.822  -5.689   3.003  0.00  0.00    +0.044 C 
ATOM      3  C   UNL     1      -0.471  -5.313   3.554  0.00  0.00    -0.042 A 
ATOM      4  C   UNL     1       0.393  -6.271   3.981  0.00  0.00    +0.004 A 
ATOM      5  C   UNL     1       1.648  -5.942   4.493  0.00  0.00    +0.005 A 
ATOM      6  C   UNL     1       2.083  -4.659   4.598  0.00  0.00    -0.029 A 
ATOM      7  C   UNL     1       1.266  -3.591   4.184  0.00  0.00    +0.043 A 
ATOM      8  N   UNL     1       1.703  -2.337   4.291  0.00  0.00    -0.284 N 
ATOM      9  C   UNL     1       0.988  -1.288   3.921  0.00  0.00    +0.223 C 
ATOM     10  O   UNL     1       1.441  -0.166   4.043  0.00  0.00    -0.275 OA
ATOM     11  C   UNL     1      -0.396  -1.490   3.346  0.00  0.00    +0.088 C 
ATOM     12  C   UNL     1      -0.899  -2.915   3.222  0.00  0.00    -0.006 C 
ATOM     13  C   UNL     1      -0.063  -3.910   3.633  0.00  0.00    -0.004 A 
ATOM     14  C   UNL     1       3.451  -4.378   5.163  0.00  0.00    +0.045 C 
ATOM     15  H   UNL     1       2.588  -2.186   4.658  0.00  0.00    +0.155 HD
ENDBRANCH   1  11
BRANCH   1  16
ATOM     16  C   UNL     1      -2.797  -0.870   3.652  0.00  0.00    +0.183 C 
ATOM     17  N   UNL     1      -3.158  -2.295   3.522  0.00  0.00    -0.229 N 
ATOM     18  N   UNL     1      -3.378  -2.510   2.157  0.00  0.00    -0.064 NA
ATOM     19  N   UNL     1      -3.216  -1.496   1.485  0.00  0.00    -0.061 NA
ATOM     20  N   UNL     1      -2.854  -0.384   2.261  0.00  0.00    -0.211 N 
ATOM     21  H   UNL     1      -3.227  -2.948   4.236  0.00  0.00    +0.172 HD
BRANCH  20  22
ATOM     22  C   UNL     1      -2.586   0.978   1.790  0.00  0.00    +0.047 C 
ATOM     23  C   UNL     1      -1.105   1.306   1.993  0.00  0.00    +0.033 C 
ATOM     24  C   UNL     1      -2.932   1.080   0.303  0.00  0.00    +0.033 C 
ATOM     25  C   UNL     1      -3.441   1.969   2.583  0.00  0.00    +0.033 C 
ENDBRANCH  20  22
ENDBRANCH   1  16
BRANCH   1  26
ATOM     26  N   UNL     1      -1.350  -1.254   5.590  0.00  0.00    +0.392 N 
ATOM     27  H   UNL     1      -2.237  -1.086   6.040  0.00  0.00    -0.080 HD
BRANCH  26  28
ATOM     28  C   UNL     1      -1.090  -2.699   5.543  0.00  0.00    -0.040 C 
BRANCH  28  29
ATOM     29  C   UNL     1      -1.228  -3.280   6.927  0.00  0.00    -0.046 A 
ATOM     30  C   UNL     1      -0.101  -3.530   7.687  0.00  0.00    +0.003 A 
ATOM     31  C   UNL     1      -0.228  -4.062   8.956  0.00  0.00    +0.000 A 
ATOM     32  C   UNL     1      -1.481  -4.345   9.466  0.00  0.00    +0.001 A 
ATOM     33  C   UNL     1      -2.609  -4.095   8.707  0.00  0.00    +0.020 A 
ATOM     34  C   UNL     1      -2.483  -3.557   7.439  0.00  0.00    +0.042 A 
ATOM     35 CL   UNL     1      -3.899  -3.236   6.487  0.00  0.00    -0.083 Cl
ENDBRANCH  28  29
ENDBRANCH  26  28
BRANCH  26  36
ATOM     36  C   UNL     1      -0.281  -0.589   6.348  0.00  0.00    -0.002 C 
BRANCH  36  37
ATOM     37  C   UNL     1      -0.604   0.876   6.492  0.00  0.00    +0.089 A 
ATOM     38  C   UNL     1      -1.226   1.445   7.539  0.00  0.00    +0.042 A 
ATOM     39  C   UNL     1      -1.322   2.827   7.257  0.00  0.00    +0.041 A 
ATOM     40  C   UNL     1      -0.752   3.020   6.054  0.00  0.00    +0.195 A 
ATOM     41  O   UNL     1      -0.314   1.835   5.598  0.00  0.00    -0.470 OA
ENDBRANCH  36  37
ENDBRANCH  26  36
ENDBRANCH   1  26
TORSDOF 8
