REMARK  Name = ZINC58405144
REMARK  10 active torsions:
REMARK  status: ('A' for Active; 'I' for Inactive)
REMARK    1  A    between atoms: C_1  and  C_2
REMARK    2  A    between atoms: C_2  and  N_3
REMARK    3  A    between atoms: N_3  and  C_4
REMARK    4  A    between atoms: C_4  and  C_5
REMARK    5  A    between atoms: C_11  and  C_13
REMARK    6  A    between atoms: C_13  and  C_14
REMARK    7  A    between atoms: C_14  and  C_16
REMARK    8  A    between atoms: C_14  and  C_17
REMARK    9  A    between atoms: C_17  and  C_18
REMARK   10  A    between atoms: C_18  and  C_19
REMARK                            x       y       z     vdW  Elec       q    Type
REMARK                         _______ _______ _______ _____ _____    ______ ____
ROOT
ATOM      1  N   UNL     1      -1.546  -0.536   0.080  0.00  0.00    -0.301 N 
ATOM      2  C   UNL     1      -2.310  -0.662   1.183  0.00  0.00    +0.216 C 
ATOM      3  O   UNL     1      -3.454  -1.053   1.088  0.00  0.00    -0.276 OA
ENDROOT
BRANCH   1   5
ATOM      4  C   UNL     1      -0.012   1.367   0.152  0.00  0.00    +0.024 C 
ATOM      5  C   UNL     1      -0.136  -0.157   0.204  0.00  0.00    +0.104 C 
ENDBRANCH   1   5
BRANCH   1   6
ATOM      6  C   UNL     1      -2.125  -0.780  -1.244  0.00  0.00    +0.113 C 
BRANCH   6   7
ATOM      7  C   UNL     1      -1.809  -2.210  -1.684  0.00  0.00    +0.034 C 
ATOM      8  C   UNL     1      -2.396  -2.487  -3.089  0.00  0.00    +0.035 C 
ATOM      9  C   UNL     1      -2.938  -3.931  -2.936  0.00  0.00    +0.160 C 
ATOM     10  O   UNL     1      -3.452  -3.957  -1.586  0.00  0.00    -0.379 OA
ATOM     11  C   UNL     1      -2.519  -3.226  -0.767  0.00  0.00    +0.165 C 
ENDBRANCH   6   7
ENDBRANCH   1   6
BRANCH   2  12
ATOM     12  C   UNL     1      -1.742  -0.316   2.536  0.00  0.00    +0.099 C 
BRANCH  12  13
ATOM     13  C   UNL     1      -2.808  -0.545   3.610  0.00  0.00    -0.005 C 
ATOM     14  C   UNL     1      -3.147  -2.036   3.682  0.00  0.00    +0.008 C 
BRANCH  13  15
ATOM     15  C   UNL     1      -2.275  -0.077   4.965  0.00  0.00    +0.008 C 
BRANCH  15  16
ATOM     16  C   UNL     1      -3.381  -0.190   6.015  0.00  0.00    +0.035 C 
BRANCH  16  17
ATOM     17  C   UNL     1      -2.856   0.271   7.351  0.00  0.00    -0.047 A 
ATOM     18  C   UNL     1      -2.261  -0.635   8.209  0.00  0.00    +0.003 A 
ATOM     19  C   UNL     1      -1.779  -0.212   9.434  0.00  0.00    +0.000 A 
ATOM     20  C   UNL     1      -1.892   1.116   9.800  0.00  0.00    +0.000 A 
ATOM     21  C   UNL     1      -2.487   2.022   8.941  0.00  0.00    +0.000 A 
ATOM     22  C   UNL     1      -2.965   1.600   7.715  0.00  0.00    +0.003 A 
ENDBRANCH  16  17
ENDBRANCH  15  16
ENDBRANCH  13  15
ENDBRANCH  12  13
ENDBRANCH   2  12
TORSDOF 8
