REMARK  Name = ZINC08790482
REMARK  15 active torsions:
REMARK  status: ('A' for Active; 'I' for Inactive)
REMARK    1  A    between atoms: C_1  and  C_2
REMARK    2  A    between atoms: C_6  and  O_34
REMARK    3  A    between atoms: C_7  and  C_33
REMARK    4  A    between atoms: C_12  and  C_13
REMARK    5  A    between atoms: C_13  and  C_14
REMARK    6  A    between atoms: C_14  and  C_15
REMARK    7  A    between atoms: N_17  and  C_18
REMARK    8  A    between atoms: C_18  and  C_20
REMARK    9  A    between atoms: C_18  and  C_27
REMARK   10  A    between atoms: C_20  and  C_21
REMARK   11  A    between atoms: C_21  and  C_22
REMARK   12  A    between atoms: C_22  and  N_23
REMARK   13  A    between atoms: N_29  and  CA_30
REMARK   14  A    between atoms: CA_30  and  C_31
REMARK   15  A    between atoms: O_34  and  C_35
REMARK                            x       y       z     vdW  Elec       q    Type
REMARK                         _______ _______ _______ _____ _____    ______ ____
ROOT
ATOM      1  C   UNK A   0      -3.107   1.630  -4.440  0.00  0.00    +0.214 C 
ATOM      2  O   UNK A   0      -2.899   2.691  -4.989  0.00  0.00    -0.276 OA
ATOM      3  N   UNK A   1      -2.111   1.004  -3.782  0.00  0.00    -0.304 N 
ATOM      4  H   UNK A   1      -2.278   0.155  -3.343  0.00  0.00    +0.149 HD
ENDROOT
BRANCH   1   5
ATOM      5  C   UNK A   0      -4.480   1.010  -4.494  0.00  0.00    +0.100 C 
BRANCH   5   6
ATOM      6  C   UNK A   0      -5.417   1.916  -5.295  0.00  0.00    +0.052 C 
BRANCH   6  18
ATOM      7  C   UNK A   0      -6.123   0.122  -7.445  0.00  0.00    +0.045 C 
ATOM      8  C   UNK A   0      -7.118   0.454  -6.362  0.00  0.00    -0.030 A 
ATOM      9  C   UNK A   0      -8.461  -0.129  -6.371  0.00  0.00    +0.021 A 
ATOM     10  C   UNK A   0      -8.859  -1.009  -7.384  0.00  0.00    +0.015 A 
ATOM     11  C   UNK A   0     -10.119  -1.533  -7.371  0.00  0.00    +0.047 A 
ATOM     12  C   UNK A   0     -11.012  -1.198  -6.355  0.00  0.00    +0.127 A 
ATOM     13  C   UNK A   0     -10.635  -0.329  -5.345  0.00  0.00    +0.034 A 
ATOM     14  C   UNK A   0      -9.359   0.213  -5.342  0.00  0.00    +0.146 A 
ATOM     15  O   UNK A   0      -8.972   1.062  -4.367  0.00  0.00    -0.422 OA
ATOM     16  C   UNK A   0      -7.740   1.596  -4.350  0.00  0.00    +0.341 A 
ATOM     17  O   UNK A   0      -7.435   2.357  -3.450  0.00  0.00    -0.245 OA
ATOM     18  C   UNK A   0      -6.790   1.297  -5.349  0.00  0.00    +0.041 A 
ATOM     19  C   UNK A   0     -11.609   0.027  -4.251  0.00  0.00    +0.051 C 
BRANCH  12  20
ATOM     20  O   UNK A   0     -12.262  -1.727  -6.356  0.00  0.00    -0.495 OA
ATOM     21  C   UNK A   0     -12.589  -2.616  -7.426  0.00  0.00    +0.277 C 
ENDBRANCH  12  20
ENDBRANCH   6  18
ENDBRANCH   5   6
ENDBRANCH   1   5
BRANCH   3  22
ATOM     22  C   UNK A   1      -0.777   1.606  -3.730  0.00  0.00    +0.159 C 
BRANCH  22  23
ATOM     23  C   UNK A   1      -0.005   1.225  -4.967  0.00  0.00    +0.234 C 
ATOM     24  O   UNK A   1      -0.519   0.519  -5.809  0.00  0.00    -0.274 OA
ATOM     25  N   GLY A   2       1.257   1.667  -5.137  0.00  0.00    -0.303 N 
ATOM     26  H   GLY A   2       1.668   2.231  -4.463  0.00  0.00    +0.149 HD
BRANCH  25  27
ATOM     27  CA  GLY A   2       2.007   1.296  -6.339  0.00  0.00    +0.229 C 
BRANCH  27  28
ATOM     28  C   GLY A   2       3.380   1.916  -6.286  0.00  0.00    +0.373 C 
ATOM     29  O   GLY A   2       3.699   2.597  -5.340  0.00  0.00    -0.245 OA
ATOM     30  OXT GLY A   2       4.249   1.710  -7.288  0.00  0.00    -0.245 OA
ENDBRANCH  27  28
ENDBRANCH  25  27
ENDBRANCH  22  23
BRANCH  22  31
ATOM     31  C   UNK A   1      -0.037   1.099  -2.490  0.00  0.00    +0.033 C 
BRANCH  31  32
ATOM     32  C   UNK A   1      -0.753   1.593  -1.232  0.00  0.00    +0.021 C 
BRANCH  32  33
ATOM     33  C   UNK A   1      -0.013   1.086   0.008  0.00  0.00    +0.106 C 
BRANCH  33  34
ATOM     34  N   UNK A   1      -0.698   1.558   1.213  0.00  0.00    -0.300 N 
ATOM     35  C   UNK A   1      -0.222   1.232   2.431  0.00  0.00    +0.297 C 
ATOM     36  O   UNK A   1       0.777   0.546   2.530  0.00  0.00    -0.253 OA
ATOM     37  N   UNK A   1      -0.853   1.667   3.540  0.00  0.00    -0.313 N 
ATOM     38  H   UNK A   1      -1.495   2.106   1.135  0.00  0.00    +0.150 HD
ATOM     39  H   UNK A   1      -1.650   2.214   3.462  0.00  0.00    +0.146 HD
ATOM     40  H   UNK A   1      -0.510   1.433   4.417  0.00  0.00    +0.146 HD
ENDBRANCH  33  34
ENDBRANCH  32  33
ENDBRANCH  31  32
ENDBRANCH  22  31
ENDBRANCH   3  22
TORSDOF 12
