REMARK  Name = ZINC65299215
REMARK  4 active torsions:
REMARK  status: ('A' for Active; 'I' for Inactive)
REMARK    1  A    between atoms: C_1  and  C_2
REMARK    2  A    between atoms: C_3  and  C_17
REMARK    3  A    between atoms: C_4  and  N_8
REMARK    4  A    between atoms: C_9  and  C_11
REMARK                            x       y       z     vdW  Elec       q    Type
REMARK                         _______ _______ _______ _____ _____    ______ ____
ROOT
ATOM      1  C   UNL     1      -0.018   1.503   0.010  0.00  0.00    +0.068 C 
ATOM      2  C   UNL     1       0.002  -0.004   0.002  0.00  0.00    +0.068 C 
ATOM      3  C   UNL     1      -1.100  -0.790   0.003  0.00  0.00    +0.026 C 
ATOM      4  C   UNL     1      -0.534  -2.200  -0.007  0.00  0.00    +0.247 C 
ATOM      5  N   UNL     1       0.920  -1.969  -0.013  0.00  0.00    -0.160 NA
ATOM      6  N   UNL     1       1.113  -0.751  -0.013  0.00  0.00    -0.157 NA
ENDROOT
BRANCH   3   7
ATOM      7  C   UNL     1      -2.513  -0.376   0.013  0.00  0.00    -0.016 A 
ATOM      8  C   UNL     1      -3.323  -0.670   1.114  0.00  0.00    +0.009 A 
ATOM      9  C   UNL     1      -4.645  -0.279   1.116  0.00  0.00    +0.016 A 
ATOM     10  C   UNL     1      -5.171   0.403   0.031  0.00  0.00    +0.018 A 
ATOM     11  C   UNL     1      -4.374   0.698  -1.063  0.00  0.00    +0.016 A 
ATOM     12  C   UNL     1      -3.049   0.318  -1.077  0.00  0.00    +0.009 A 
ATOM     13 BR   UNL     1      -6.985   0.935   0.044  0.00  0.00    -0.050 Br
ENDBRANCH   3   7
BRANCH   4  14
ATOM     14  N   UNL     1      -0.943  -2.931   1.194  0.00  0.00    -0.288 N 
ATOM     15  C   UNL     1      -1.390  -4.199   1.093  0.00  0.00    +0.218 C 
ATOM     16  O   UNL     1      -1.454  -4.733   0.006  0.00  0.00    -0.275 OA
ATOM     17  H   UNL     1      -0.891  -2.503   2.063  0.00  0.00    +0.151 HD
BRANCH  15  18
ATOM     18  C   UNL     1      -1.810  -4.951   2.329  0.00  0.00    +0.075 C 
ATOM     19  C   UNL     1      -2.959  -4.208   3.013  0.00  0.00    +0.013 C 
ATOM     20  C   UNL     1      -3.385  -4.972   4.268  0.00  0.00    +0.001 C 
ATOM     21  C   UNL     1      -3.848  -6.377   3.877  0.00  0.00    +0.000 C 
ATOM     22  C   UNL     1      -2.699  -7.120   3.193  0.00  0.00    +0.001 C 
ATOM     23  C   UNL     1      -2.272  -6.356   1.938  0.00  0.00    +0.013 C 
ENDBRANCH  15  18
ENDBRANCH   4  14
TORSDOF 3
