REMARK  Name = ZINC06442396
REMARK  9 active torsions:
REMARK  status: ('A' for Active; 'I' for Inactive)
REMARK    1  A    between atoms: C_1  and  C_2
REMARK    2  A    between atoms: C_7  and  C_15
REMARK    3  A    between atoms: C_13  and  C_14
REMARK    4  A    between atoms: C_15  and  C_17
REMARK    5  A    between atoms: C_15  and  N_66
REMARK    6  A    between atoms: N_21  and  C_22
REMARK    7  A    between atoms: C_22  and  C_23
REMARK    8  A    between atoms: C_29  and  N_66
REMARK    9  A    between atoms: C_30  and  N_66
REMARK                            x       y       z     vdW  Elec       q    Type
REMARK                         _______ _______ _______ _____ _____    ______ ____
ROOT
ATOM      1  C   UNL     1       1.967   6.444  -1.786  0.00  0.00    +0.039 C 
ENDROOT
BRANCH   1   8
ATOM      2  C   UNL     1      -5.624   5.876  -4.167  0.00  0.00    +0.044 C 
ATOM      3  C   UNL     1      -4.274   5.955  -3.501  0.00  0.00    -0.046 A 
ATOM      4  C   UNL     1      -4.181   5.837  -2.121  0.00  0.00    +0.004 A 
ATOM      5  C   UNL     1      -2.968   5.905  -1.498  0.00  0.00    +0.010 A 
ATOM      6  C   UNL     1      -1.808   6.095  -2.257  0.00  0.00    -0.001 A 
ATOM      7  C   UNL     1      -0.491   6.173  -1.621  0.00  0.00    +0.017 A 
ATOM      8  C   UNL     1       0.597   6.359  -2.408  0.00  0.00    +0.011 A 
ATOM      9  C   UNL     1       0.452   6.479  -3.807  0.00  0.00    +0.251 A 
ATOM     10  O   UNL     1       1.443   6.651  -4.495  0.00  0.00    -0.268 OA
ATOM     11  N   UNL     1      -0.753   6.403  -4.400  0.00  0.00    -0.322 N 
ATOM     12  H   UNL     1      -0.817   6.486  -5.364  0.00  0.00    +0.169 HD
ATOM     13  C   UNL     1      -1.898   6.215  -3.656  0.00  0.00    +0.052 A 
ATOM     14  C   UNL     1      -3.145   6.142  -4.269  0.00  0.00    -0.024 A 
ATOM     15  C   UNL     1      -3.261   6.267  -5.766  0.00  0.00    +0.046 C 
ENDBRANCH   1   8
BRANCH   1  16
ATOM     16  C   UNL     1       2.811   5.293  -2.269  0.00  0.00    +0.143 A 
ATOM     17  N   UNL     1       3.223   5.085  -3.495  0.00  0.00    -0.115 NA
ATOM     18  N   UNL     1       3.915   3.998  -3.504  0.00  0.00    -0.023 NA
ATOM     19  N   UNL     1       3.960   3.511  -2.313  0.00  0.00    -0.044 NA
ATOM     20  N   UNL     1       3.286   4.277  -1.524  0.00  0.00    -0.226 N 
BRANCH  20  21
ATOM     21  C   UNL     1       3.082   4.082  -0.087  0.00  0.00    +0.182 C 
BRANCH  21  22
ATOM     22  C   UNL     1       1.948   3.114   0.133  0.00  0.00    -0.026 A 
ATOM     23  C   UNL     1       2.187   1.752   0.102  0.00  0.00    +0.005 A 
ATOM     24  C   UNL     1       1.147   0.864   0.303  0.00  0.00    +0.000 A 
ATOM     25  C   UNL     1      -0.132   1.336   0.530  0.00  0.00    +0.000 A 
ATOM     26  C   UNL     1      -0.369   2.698   0.567  0.00  0.00    +0.000 A 
ATOM     27  C   UNL     1       0.670   3.586   0.366  0.00  0.00    +0.005 A 
ENDBRANCH  21  22
ENDBRANCH  20  21
ENDBRANCH   1  16
BRANCH   1  29
ATOM     28  C   UNL     1       1.806   8.859  -1.716  0.00  0.00    -0.094 C 
ATOM     29  N   UNL     1       2.604   7.713  -2.200  0.00  0.00    +0.389 N 
ATOM     30  H   UNL     1       2.646   7.745  -3.225  0.00  0.00    -0.080 HD
BRANCH  29  31
ATOM     31  C   UNL     1       3.977   7.788  -1.660  0.00  0.00    -0.068 C 
ATOM     32  C   UNL     1       3.951   7.819  -0.130  0.00  0.00    -0.015 C 
ATOM     33  C   UNL     1       5.383   7.899   0.403  0.00  0.00    -0.002 C 
ATOM     34  C   UNL     1       6.052   9.171  -0.122  0.00  0.00    -0.000 C 
ATOM     35  C   UNL     1       6.078   9.141  -1.651  0.00  0.00    -0.002 C 
ATOM     36  C   UNL     1       4.646   9.061  -2.184  0.00  0.00    -0.015 C 
ENDBRANCH  29  31
ENDBRANCH   1  29
TORSDOF 6
