REMARK  Name = ZINC44974994
REMARK  2 active torsions:
REMARK  status: ('A' for Active; 'I' for Inactive)
REMARK    1  A    between atoms: C_15  and  C_17
REMARK    2  A    between atoms: C_23  and  C_25
REMARK                            x       y       z     vdW  Elec       q    Type
REMARK                         _______ _______ _______ _____ _____    ______ ____
ROOT
ATOM      1  C   UNL     1      -0.018   1.362   0.012  0.00  0.00    +0.001 A 
ATOM      2  C   UNL     1       1.168   2.084   0.004  0.00  0.00    +0.002 A 
ATOM      3  C   UNL     1       2.384   1.436  -0.012  0.00  0.00    +0.026 A 
ATOM      4  C   UNL     1       2.427   0.046  -0.020  0.00  0.00    +0.047 A 
ATOM      5  C   UNL     1       1.222  -0.682  -0.011  0.00  0.00    +0.003 A 
ATOM      6  C   UNL     1       0.001  -0.004   0.004  0.00  0.00    +0.010 A 
ATOM      7  C   UNL     1       1.605  -2.091  -0.022  0.00  0.00    -0.016 A 
ATOM      8  C   UNL     1       2.951  -2.138  -0.038  0.00  0.00    +0.038 A 
ATOM      9  N   UNL     1       3.457  -0.869  -0.035  0.00  0.00    -0.356 N 
ATOM     10  H   UNL     1       4.401  -0.646  -0.043  0.00  0.00    +0.166 HD
ATOM     11  C   UNL     1       3.740  -3.429  -0.061  0.00  0.00    +0.161 C 
ATOM     12  N   UNL     1       2.798  -4.526   0.218  0.00  0.00    -0.295 N 
ATOM     13  C   UNL     1       1.497  -4.521  -0.468  0.00  0.00    +0.113 C 
ATOM     14  C   UNL     1       0.698  -3.294  -0.013  0.00  0.00    +0.056 C 
ATOM     15  C   UNL     1       3.120  -5.509   1.082  0.00  0.00    +0.220 C 
ATOM     16  O   UNL     1       2.333  -6.405   1.302  0.00  0.00    -0.275 OA
ENDROOT
BRANCH  15  17
ATOM     17  C   UNL     1       4.458  -5.495   1.776  0.00  0.00    +0.087 C 
ATOM     18  C   UNL     1       5.574  -5.541   0.730  0.00  0.00    +0.013 C 
ATOM     19  C   UNL     1       6.933  -5.527   1.434  0.00  0.00    +0.001 C 
ATOM     20  C   UNL     1       7.044  -6.745   2.353  0.00  0.00    +0.001 C 
ATOM     21  C   UNL     1       5.927  -6.699   3.398  0.00  0.00    +0.013 C 
ATOM     22  C   UNL     1       4.569  -6.713   2.695  0.00  0.00    +0.087 C 
BRANCH  22  23
ATOM     23  C   UNL     1       3.469  -6.668   3.724  0.00  0.00    +0.219 C 
ATOM     24  O   UNL     1       3.098  -5.602   4.168  0.00  0.00    -0.275 OA
ATOM     25  N   UNL     1       2.899  -7.811   4.152  0.00  0.00    -0.301 N 
ATOM     26  C   UNL     1       3.323  -9.170   3.784  0.00  0.00    +0.108 C 
ATOM     27  C   UNL     1       2.366 -10.155   4.488  0.00  0.00    +0.020 C 
ATOM     28  C   UNL     1       1.110  -9.286   4.759  0.00  0.00    +0.020 C 
ATOM     29  C   UNL     1       1.750  -7.907   5.070  0.00  0.00    +0.108 C 
ENDBRANCH  22  23
ENDBRANCH  15  17
TORSDOF 2
