REMARK  Name = ZINC16157911
REMARK  11 active torsions:
REMARK  status: ('A' for Active; 'I' for Inactive)
REMARK    1  A    between atoms: C_1  and  C_2
REMARK    2  A    between atoms: C_5  and  S_8
REMARK    3  A    between atoms: S_8  and  O_11
REMARK    4  A    between atoms: O_11  and  C_12
REMARK    5  A    between atoms: C_17  and  C_18
REMARK    6  A    between atoms: N_19  and  N_20
REMARK    7  A    between atoms: C_21  and  C_23
REMARK    8  A    between atoms: C_23  and  C_25
REMARK    9  A    between atoms: C_23  and  C_33
REMARK   10  A    between atoms: C_25  and  C_26
REMARK   11  A    between atoms: C_31  and  C_32
REMARK                            x       y       z     vdW  Elec       q    Type
REMARK                         _______ _______ _______ _____ _____    ______ ____
ROOT
ATOM      1  C   UNL     1      -1.867   3.949   0.316  0.00  0.00    +0.142 C 
ATOM      2  N   UNL     1      -1.308   5.094   0.066  0.00  0.00    -0.188 NA
ENDROOT
BRANCH   1   8
ATOM      3  C   UNL     1       0.249   2.747  -0.223  0.00  0.00    +0.165 A 
ATOM      4  C   UNL     1       0.987   1.576  -0.291  0.00  0.00    +0.049 A 
ATOM      5  C   UNL     1       0.420   0.377   0.097  0.00  0.00    +0.004 A 
ATOM      6  C   UNL     1      -0.886   0.335   0.555  0.00  0.00    +0.001 A 
ATOM      7  C   UNL     1      -1.636   1.490   0.624  0.00  0.00    +0.013 A 
ATOM      8  C   UNL     1      -1.073   2.710   0.240  0.00  0.00    +0.039 A 
BRANCH   3   9
ATOM      9  O   UNL     1       0.806   3.926  -0.604  0.00  0.00    -0.342 OA
BRANCH   9  10
ATOM     10  S   UNL     1       0.809   4.152  -2.109  0.00  0.00    +0.151 S 
ATOM     11  O   UNL     1       1.544   5.346  -2.338  0.00  0.00    -0.131 OA
ATOM     12  O   UNL     1       1.165   2.912  -2.705  0.00  0.00    -0.131 OA
BRANCH  10  17
ATOM     13  C   UNL     1      -4.884   5.286  -3.755  0.00  0.00    +0.044 C 
ATOM     14  C   UNL     1      -3.462   5.003  -3.344  0.00  0.00    -0.050 A 
ATOM     15  C   UNL     1      -2.572   6.046  -3.169  0.00  0.00    +0.005 A 
ATOM     16  C   UNL     1      -1.268   5.786  -2.792  0.00  0.00    +0.031 A 
ATOM     17  C   UNL     1      -0.854   4.483  -2.589  0.00  0.00    +0.128 A 
ATOM     18  C   UNL     1      -1.742   3.440  -2.769  0.00  0.00    +0.031 A 
ATOM     19  C   UNL     1      -3.047   3.700  -3.142  0.00  0.00    +0.005 A 
ENDBRANCH  10  17
ENDBRANCH   9  10
ENDBRANCH   3   9
ENDBRANCH   1   8
BRANCH   2  20
ATOM     20  N   UNL     1      -2.027   6.281   0.259  0.00  0.00    -0.206 N 
ATOM     21  C   UNL     1      -1.468   7.466  -0.057  0.00  0.00    +0.240 C 
ATOM     22  O   UNL     1      -0.378   7.500  -0.587  0.00  0.00    -0.273 OA
ATOM     23  H   UNL     1      -2.926   6.250   0.621  0.00  0.00    +0.177 HD
BRANCH  21  24
ATOM     24  C   UNL     1      -2.198   8.748   0.248  0.00  0.00    +0.111 C 
BRANCH  24  25
ATOM     25  C   UNL     1      -2.443   8.846   1.732  0.00  0.00    -0.035 A 
ATOM     26  C   UNL     1      -1.375   8.938   2.605  0.00  0.00    +0.004 A 
ATOM     27  C   UNL     1      -1.600   9.032   3.965  0.00  0.00    +0.000 A 
ATOM     28  C   UNL     1      -2.893   9.024   4.454  0.00  0.00    +0.000 A 
ATOM     29  C   UNL     1      -3.961   8.927   3.582  0.00  0.00    +0.000 A 
ATOM     30  C   UNL     1      -3.736   8.838   2.221  0.00  0.00    +0.004 A 
ENDBRANCH  24  25
BRANCH  24  31
ATOM     31  C   UNL     1      -1.351   9.938  -0.208  0.00  0.00    +0.053 C 
BRANCH  31  32
ATOM     32  C   UNL     1      -2.132  11.213  -0.017  0.00  0.00    -0.043 A 
ATOM     33  C   UNL     1      -1.859  12.036   1.060  0.00  0.00    +0.004 A 
ATOM     34  C   UNL     1      -2.575  13.205   1.236  0.00  0.00    +0.000 A 
ATOM     35  C   UNL     1      -3.563  13.552   0.333  0.00  0.00    +0.000 A 
ATOM     36  C   UNL     1      -3.835  12.730  -0.744  0.00  0.00    +0.003 A 
ATOM     37  C   UNL     1      -3.117  11.562  -0.921  0.00  0.00    -0.047 A 
ATOM     38  C   UNL     1      -3.410  10.669  -2.099  0.00  0.00    +0.044 C 
ENDBRANCH  31  32
ENDBRANCH  24  31
ENDBRANCH  21  24
ENDBRANCH   2  20
TORSDOF 9
