REMARK  Name = ZINC63696061
REMARK  7 active torsions:
REMARK  status: ('A' for Active; 'I' for Inactive)
REMARK    1  A    between atoms: C_1  and  S_2
REMARK    2  A    between atoms: S_2  and  C_3
REMARK    3  A    between atoms: C_6  and  C_9
REMARK    4  A    between atoms: C_9  and  C_10
REMARK    5  A    between atoms: C_10  and  N_11
REMARK    6  A    between atoms: C_12  and  C_14
REMARK    7  A    between atoms: N_19  and  C_21
REMARK                            x       y       z     vdW  Elec       q    Type
REMARK                         _______ _______ _______ _____ _____    ______ ____
ROOT
ATOM      1  C   UNL     1      -9.874  -2.602  -2.527  0.00  0.00    +0.089 C 
ATOM      2  C   UNL     1     -10.682  -1.524  -1.800  0.00  0.00    +0.015 C 
ATOM      3  C   UNL     1     -12.167  -1.892  -1.845  0.00  0.00    +0.016 C 
ATOM      4  C   UNL     1     -12.608  -2.039  -3.303  0.00  0.00    +0.088 C 
ATOM      5  N   UNL     1     -11.806  -3.083  -3.954  0.00  0.00    -0.265 NA
ATOM      6  C   UNL     1     -10.381  -2.729  -3.966  0.00  0.00    +0.100 C 
ENDROOT
BRANCH   5   7
ATOM      7  C   UNL     1     -12.293  -3.348  -5.315  0.00  0.00    +0.252 C 
ATOM      8  N   UNL     1     -12.173  -2.138  -6.138  0.00  0.00    -0.351 N 
ATOM      9  C   UNL     1     -13.370  -1.813  -6.533  0.00  0.00    +0.061 A 
ATOM     10  C   UNL     1     -13.883  -0.717  -7.366  0.00  0.00    +0.029 A 
ATOM     11  C   UNL     1     -15.205  -0.631  -7.612  0.00  0.00    +0.022 A 
ATOM     12  C   UNL     1     -16.134  -1.557  -7.099  0.00  0.00    +0.043 A 
ATOM     13  C   UNL     1     -15.768  -2.599  -6.323  0.00  0.00    +0.047 A 
ATOM     14  C   UNL     1     -14.351  -2.792  -5.990  0.00  0.00    +0.063 A 
ATOM     15  N   UNL     1     -13.722  -3.687  -5.281  0.00  0.00    -0.351 N 
ATOM     16 CL   UNL     1     -17.815  -1.349  -7.478  0.00  0.00    -0.083 Cl
ATOM     17  H   UNL     1     -11.351  -1.667  -6.349  0.00  0.00    +0.163 HD
ATOM     18  H   UNL     1     -14.122  -4.439  -4.817  0.00  0.00    +0.163 HD
ENDBRANCH   5   7
BRANCH   1  20
ATOM     19  N   UNL     1      -7.756  -2.047  -1.377  0.00  0.00    -0.315 N 
ATOM     20  C   UNL     1      -8.417  -2.218  -2.539  0.00  0.00    +0.217 C 
ATOM     21  O   UNL     1      -7.840  -2.062  -3.594  0.00  0.00    -0.275 OA
ATOM     22  H   UNL     1      -8.218  -2.171  -0.533  0.00  0.00    +0.149 HD
BRANCH  19  23
ATOM     23  C   UNL     1      -6.339  -1.673  -1.389  0.00  0.00    +0.109 C 
BRANCH  23  24
ATOM     24  C   UNL     1      -5.834  -1.544   0.050  0.00  0.00    +0.054 C 
BRANCH  24  28
ATOM     25  C   UNL     1      -1.702  -0.454   0.016  0.00  0.00    +0.008 A 
ATOM     26  C   UNL     1      -2.682   0.531   0.025  0.00  0.00    +0.015 A 
ATOM     27  C   UNL     1      -4.016   0.176   0.036  0.00  0.00    +0.005 A 
ATOM     28  C   UNL     1      -4.377  -1.159   0.038  0.00  0.00    -0.046 A 
ATOM     29  C   UNL     1      -3.404  -2.143   0.029  0.00  0.00    +0.005 A 
ATOM     30  C   UNL     1      -2.068  -1.794   0.012  0.00  0.00    +0.015 A 
BRANCH  25  32
ATOM     31  C   UNL     1      -0.022   1.810   0.012  0.00  0.00    +0.090 C 
ATOM     32  S   UNL     1       0.002  -0.004   0.002  0.00  0.00    -0.129 S 
ENDBRANCH  25  32
ENDBRANCH  24  28
ENDBRANCH  23  24
ENDBRANCH  19  23
ENDBRANCH   1  20
TORSDOF 6
