REMARK  Name = ZINC00091641
REMARK  7 active torsions:
REMARK  status: ('A' for Active; 'I' for Inactive)
REMARK    1  A    between atoms: C_1  and  C_2
REMARK    2  A    between atoms: C_5  and  C_7
REMARK    3  A    between atoms: C_12  and  C_14
REMARK    4  A    between atoms: C_17  and  O_20
REMARK    5  A    between atoms: O_20  and  C_21
REMARK    6  A    between atoms: C_21  and  C_22
REMARK    7  A    between atoms: C_21  and  C_23
REMARK                            x       y       z     vdW  Elec       q    Type
REMARK                         _______ _______ _______ _____ _____    ______ ____
ROOT
ATOM      1  C   UNL     1       5.580   5.092   0.278  0.00  0.00    +0.081 C 
ATOM      2  C   UNL     1       5.058   3.817   0.120  0.00  0.00    +0.155 C 
ATOM      3  C   UNL     1       5.800   2.580  -0.163  0.00  0.00    +0.364 C 
ATOM      4  O   UNL     1       7.003   2.457  -0.308  0.00  0.00    -0.243 OA
ATOM      5  O   UNL     1       4.864   1.609  -0.227  0.00  0.00    -0.402 OA
ATOM      6  C   UNL     1       3.655   2.162  -0.010  0.00  0.00    +0.232 C 
ATOM      7  N   UNL     1       3.747   3.449   0.190  0.00  0.00    -0.205 NA
ENDROOT
BRANCH   1  12
ATOM      8  C   UNL     1      10.409   4.202  -0.372  0.00  0.00    +0.086 C 
ATOM      9  C   UNL     1       9.113   4.925  -0.117  0.00  0.00    +0.103 A 
ATOM     10  C   UNL     1       8.987   6.252   0.118  0.00  0.00    +0.045 A 
ATOM     11  C   UNL     1       7.622   6.515   0.297  0.00  0.00    +0.049 A 
ATOM     12  C   UNL     1       6.968   5.302   0.169  0.00  0.00    +0.130 A 
ATOM     13  O   UNL     1       7.899   4.358  -0.085  0.00  0.00    -0.461 OA
ENDBRANCH   1  12
BRANCH   6  14
ATOM     14  C   UNL     1       2.386   1.409  -0.004  0.00  0.00    +0.037 A 
ATOM     15  C   UNL     1       1.178   2.073   0.231  0.00  0.00    +0.017 A 
ATOM     16  C   UNL     1      -0.004   1.366   0.234  0.00  0.00    +0.046 A 
ATOM     17  C   UNL     1       0.002  -0.004   0.005  0.00  0.00    +0.121 A 
ATOM     18  C   UNL     1       1.200  -0.668  -0.228  0.00  0.00    +0.046 A 
ATOM     19  C   UNL     1       2.388   0.031  -0.234  0.00  0.00    +0.017 A 
BRANCH  17  20
ATOM     20  O   UNL     1      -1.166  -0.697   0.009  0.00  0.00    -0.489 OA
BRANCH  20  21
ATOM     21  C   UNL     1      -2.370   0.062   0.136  0.00  0.00    +0.167 C 
ATOM     22  C   UNL     1      -3.533  -0.721  -0.476  0.00  0.00    +0.051 C 
ATOM     23  C   UNL     1      -2.655   0.324   1.616  0.00  0.00    +0.051 C 
ENDBRANCH  20  21
ENDBRANCH  17  20
ENDBRANCH   6  14
TORSDOF 4
