REMARK  Name = ZINC08963345
REMARK  15 active torsions:
REMARK  status: ('A' for Active; 'I' for Inactive)
REMARK    1  A    between atoms: C_1  and  C_2
REMARK    2  A    between atoms: C_2  and  O_3
REMARK    3  A    between atoms: O_3  and  C_4
REMARK    4  A    between atoms: C_6  and  C_16
REMARK    5  A    between atoms: C_8  and  O_13
REMARK    6  A    between atoms: C_9  and  O_10
REMARK    7  A    between atoms: O_10  and  C_11
REMARK    8  A    between atoms: C_11  and  C_12
REMARK    9  A    between atoms: O_13  and  C_14
REMARK   10  A    between atoms: C_14  and  C_15
REMARK   11  A    between atoms: N_18  and  C_19
REMARK   12  A    between atoms: C_19  and  C_20
REMARK   13  A    between atoms: C_20  and  C_22
REMARK   14  A    between atoms: C_20  and  N_74
REMARK   15  A    between atoms: N_30  and  C_31
REMARK                            x       y       z     vdW  Elec       q    Type
REMARK                         _______ _______ _______ _____ _____    ______ ____
ROOT
ATOM      1  C   UNL     1      -0.131   7.354   1.358  0.00  0.00    +0.244 C 
ATOM      2  O   UNL     1      -1.330   7.495   1.216  0.00  0.00    -0.270 OA
ATOM      3  N   UNL     1       0.574   8.258   2.068  0.00  0.00    -0.313 N 
ATOM      4  H   UNL     1       1.531   8.146   2.181  0.00  0.00    +0.149 HD
ENDROOT
BRANCH   1   7
ATOM      5  C   UNL     1       2.570   4.944   0.351  0.00  0.00    +0.166 A 
ATOM      6  C   UNL     1       1.932   6.033   0.915  0.00  0.00    +0.062 A 
ATOM      7  C   UNL     1       0.554   6.195   0.752  0.00  0.00    +0.044 A 
ATOM      8  C   UNL     1      -0.175   5.258   0.016  0.00  0.00    +0.062 A 
ATOM      9  C   UNL     1       0.468   4.174  -0.550  0.00  0.00    +0.166 A 
ATOM     10  C   UNL     1       1.841   4.014  -0.387  0.00  0.00    +0.204 A 
BRANCH   5  11
ATOM     11  O   UNL     1       3.910   4.783   0.513  0.00  0.00    -0.488 OA
BRANCH  11  13
ATOM     12  C   UNL     1       6.083   5.426   1.354  0.00  0.00    +0.048 C 
ATOM     13  C   UNL     1       4.595   5.774   1.282  0.00  0.00    +0.226 C 
ENDBRANCH  11  13
ENDBRANCH   5  11
BRANCH  10  14
ATOM     14  O   UNL     1       2.472   2.947  -0.944  0.00  0.00    -0.485 OA
BRANCH  14  15
ATOM     15  C   UNL     1       2.976   3.112  -2.271  0.00  0.00    +0.226 C 
ATOM     16  C   UNL     1       3.648   1.815  -2.726  0.00  0.00    +0.048 C 
ENDBRANCH  14  15
ENDBRANCH  10  14
BRANCH   9  17
ATOM     17  O   UNL     1      -0.241   3.261  -1.267  0.00  0.00    -0.488 OA
BRANCH  17  18
ATOM     18  C   UNL     1      -1.647   3.486  -1.394  0.00  0.00    +0.226 C 
ATOM     19  C   UNL     1      -2.270   2.364  -2.227  0.00  0.00    +0.048 C 
ENDBRANCH  17  18
ENDBRANCH   9  17
ENDBRANCH   1   7
BRANCH   3  20
ATOM     20  C   UNL     1      -0.105   9.408   2.669  0.00  0.00    +0.094 C 
BRANCH  20  21
ATOM     21  C   UNL     1       0.875  10.169   3.564  0.00  0.00    -0.020 C 
BRANCH  21  22
ATOM     22  C   UNL     1       0.240  11.456   4.023  0.00  0.00    -0.059 A 
ATOM     23  C   UNL     1      -0.728  11.438   5.011  0.00  0.00    +0.004 A 
ATOM     24  C   UNL     1      -1.312  12.614   5.433  0.00  0.00    +0.023 A 
ATOM     25  C   UNL     1      -0.931  13.829   4.867  0.00  0.00    +0.033 A 
ATOM     26  C   UNL     1       0.046  13.837   3.878  0.00  0.00    -0.025 A 
ATOM     27  C   UNL     1       0.630  12.659   3.462  0.00  0.00    +0.007 A 
ATOM     28  C   UNL     1       0.269  15.275   3.453  0.00  0.00    +0.056 C 
ATOM     29  C   UNL     1      -0.389  16.078   4.599  0.00  0.00    +0.109 C 
ATOM     30  N   UNL     1      -1.391  15.126   5.126  0.00  0.00    -0.332 N 
ATOM     31  C   UNL     1      -1.605  15.331   6.565  0.00  0.00    +0.129 C 
ENDBRANCH  21  22
BRANCH  21  36
ATOM     32  C   UNL     1       2.069   8.196   4.345  0.00  0.00    -0.078 C 
ATOM     33  C   UNL     1       2.733   7.782   5.683  0.00  0.00    -0.020 C 
ATOM     34  C   UNL     1       2.985   9.140   6.378  0.00  0.00    -0.020 C 
ATOM     35  C   UNL     1       1.995  10.118   5.720  0.00  0.00    -0.078 C 
ATOM     36  N   UNL     1       1.228   9.333   4.751  0.00  0.00    +0.385 N 
ATOM     37  H   UNL     1       0.366   8.989   5.189  0.00  0.00    -0.081 HD
ENDBRANCH  21  36
ENDBRANCH  20  21
ENDBRANCH   3  20
TORSDOF 11
