REMARK  Name = ZINC42117195
REMARK  7 active torsions:
REMARK  status: ('A' for Active; 'I' for Inactive)
REMARK    1  A    between atoms: C_1  and  C_2
REMARK    2  A    between atoms: C_2  and  C_3
REMARK    3  A    between atoms: C_3  and  C_4
REMARK    4  A    between atoms: C_4  and  C_6
REMARK    5  A    between atoms: C_4  and  N_7
REMARK    6  A    between atoms: N_7  and  C_8
REMARK    7  A    between atoms: C_14  and  C_19
REMARK                            x       y       z     vdW  Elec       q    Type
REMARK                         _______ _______ _______ _____ _____    ______ ____
ROOT
ATOM      1  C   UNL     1      -0.757  -4.052  -0.911  0.00  0.00    +0.049 C 
ATOM      2  C   UNL     1      -0.111  -4.663  -2.133  0.00  0.00    -0.030 A 
ATOM      3  C   UNL     1       1.119  -4.491  -2.727  0.00  0.00    +0.019 A 
ATOM      4  C   UNL     1       1.441  -5.206  -3.868  0.00  0.00    +0.018 A 
ATOM      5  C   UNL     1       0.525  -6.092  -4.406  0.00  0.00    +0.020 A 
ATOM      6  C   UNL     1      -0.708  -6.266  -3.812  0.00  0.00    -0.028 A 
ATOM      7  C   UNL     1      -1.039  -5.550  -2.664  0.00  0.00    +0.038 A 
ATOM      8  N   UNL     1      -2.202  -5.551  -1.892  0.00  0.00    -0.286 N 
ATOM      9  C   UNL     1      -2.122  -4.705  -0.847  0.00  0.00    +0.208 C 
ATOM     10  O   UNL     1      -2.979  -4.502  -0.013  0.00  0.00    -0.277 OA
ATOM     11  C   UNL     1      -1.699  -7.234  -4.407  0.00  0.00    +0.046 C 
ATOM     12 BR   UNL     1       3.129  -4.972  -4.689  0.00  0.00    -0.050 Br
ATOM     13  H   UNL     1      -2.979  -6.098  -2.085  0.00  0.00    +0.155 HD
ENDROOT
BRANCH   1  14
ATOM     14  N   UNL     1      -0.890  -2.598  -1.073  0.00  0.00    +0.391 N 
ATOM     15  H   UNL     1      -1.487  -2.231  -0.347  0.00  0.00    -0.084 HD
ATOM     16  H   UNL     1      -1.295  -2.395  -1.975  0.00  0.00    -0.084 HD
BRANCH  14  17
ATOM     17  C   UNL     1       0.436  -1.972  -0.980  0.00  0.00    -0.074 C 
ATOM     18  C   UNL     1       0.990  -2.160   0.434  0.00  0.00    -0.014 C 
BRANCH  17  19
ATOM     19  C   UNL     1       0.317  -0.477  -1.287  0.00  0.00    -0.016 C 
BRANCH  19  21
ATOM     20  C   UNL     1      -0.237   1.206  -3.048  0.00  0.00    +0.004 C 
ATOM     21  C   UNL     1      -0.118  -0.289  -2.741  0.00  0.00    -0.005 C 
ENDBRANCH  19  21
ENDBRANCH  17  19
ENDBRANCH  14  17
ENDBRANCH   1  14
TORSDOF 4
