REMARK  Name = ZINC04422354
REMARK  8 active torsions:
REMARK  status: ('A' for Active; 'I' for Inactive)
REMARK    1  A    between atoms: C_1  and  C_2
REMARK    2  A    between atoms: C_2  and  C_3
REMARK    3  A    between atoms: C_2  and  C_4
REMARK    4  A    between atoms: C_4  and  N_5
REMARK    5  A    between atoms: C_6  and  C_8
REMARK    6  A    between atoms: C_10  and  C_22
REMARK    7  A    between atoms: N_12  and  C_13
REMARK    8  A    between atoms: C_16  and  N_19
REMARK                            x       y       z     vdW  Elec       q    Type
REMARK                         _______ _______ _______ _____ _____    ______ ____
ROOT
ATOM      1  C   UNL     1       1.356   5.957   1.442  0.00  0.00    +0.130 A 
ATOM      2  C   UNL     1       1.577   4.629   1.755  0.00  0.00    +0.063 A 
ATOM      3  C   UNL     1       0.347   3.984   1.527  0.00  0.00    +0.097 A 
ATOM      4  N   UNL     1      -0.508   4.894   1.107  0.00  0.00    -0.166 NA
ATOM      5  N   UNL     1       0.047   6.051   1.052  0.00  0.00    -0.227 N 
ENDROOT
BRANCH   3   6
ATOM      6  C   UNL     1       0.066   2.540   1.719  0.00  0.00    +0.037 A 
ATOM      7  C   UNL     1      -1.204   2.033   1.453  0.00  0.00    +0.013 A 
ATOM      8  C   UNL     1      -1.460   0.689   1.633  0.00  0.00    +0.001 A 
ATOM      9  C   UNL     1      -0.458  -0.157   2.075  0.00  0.00    +0.003 A 
ATOM     10  C   UNL     1       0.805   0.339   2.341  0.00  0.00    +0.039 A 
ATOM     11  C   UNL     1       1.073   1.684   2.165  0.00  0.00    +0.133 A 
ATOM     12  F   UNL     1       2.308   2.168   2.425  0.00  0.00    -0.205 F 
ENDBRANCH   3   6
BRANCH   5  13
ATOM     13  C   UNL     1      -0.590   7.230   0.649  0.00  0.00    +0.066 A 
ATOM     14  C   UNL     1      -1.682   7.709   1.361  0.00  0.00    +0.030 A 
ATOM     15  C   UNL     1      -2.305   8.876   0.963  0.00  0.00    +0.035 A 
ATOM     16  C   UNL     1      -1.849   9.561  -0.148  0.00  0.00    +0.126 A 
ATOM     17  C   UNL     1      -0.765   9.084  -0.862  0.00  0.00    +0.035 A 
ATOM     18  C   UNL     1      -0.135   7.920  -0.467  0.00  0.00    +0.030 A 
BRANCH  16  19
ATOM     19  N   UNL     1      -2.523  10.808  -0.575  0.00  0.00    +0.056 N 
ATOM     20  O   UNL     1      -2.123  11.412  -1.554  0.00  0.00    -0.126 OA
ATOM     21  O   UNL     1      -3.478  11.230   0.053  0.00  0.00    -0.126 OA
ENDBRANCH  16  19
ENDBRANCH   5  13
BRANCH   1  23
ATOM     22  N   UNL     1       1.935   8.327   1.327  0.00  0.00    -0.310 N 
ATOM     23  C   UNL     1       2.334   7.054   1.514  0.00  0.00    +0.263 C 
ATOM     24  O   UNL     1       3.504   6.811   1.742  0.00  0.00    -0.269 OA
ATOM     25  H   UNL     1       0.995   8.525   1.192  0.00  0.00    +0.149 HD
BRANCH  22  26
ATOM     26  C   UNL     1       2.919   9.412   1.327  0.00  0.00    +0.107 C 
BRANCH  26  28
ATOM     27  C   UNL     1       3.202  11.888   1.149  0.00  0.00    +0.009 C 
ATOM     28  C   UNL     1       2.235  10.722   0.933  0.00  0.00    -0.000 C 
ATOM     29  C   UNL     1       1.829  10.663  -0.541  0.00  0.00    +0.009 C 
ENDBRANCH  26  28
ENDBRANCH  22  26
ENDBRANCH   1  23
TORSDOF 6
