REMARK  Name = ZINC41001577
REMARK  10 active torsions:
REMARK  status: ('A' for Active; 'I' for Inactive)
REMARK    1  A    between atoms: C_1  and  C_2
REMARK    2  A    between atoms: C_2  and  C_3
REMARK    3  A    between atoms: C_6  and  O_9
REMARK    4  A    between atoms: O_9  and  C_10
REMARK    5  A    between atoms: C_10  and  C_12
REMARK    6  A    between atoms: C_10  and  C_13
REMARK    7  A    between atoms: C_18  and  C_33
REMARK    8  A    between atoms: C_19  and  C_21
REMARK    9  A    between atoms: C_23  and  C_26
REMARK   10  A    between atoms: C_29  and  C_32
REMARK                            x       y       z     vdW  Elec       q    Type
REMARK                         _______ _______ _______ _____ _____    ______ ____
ROOT
ATOM      1  C   UNL     1      -7.403  -1.758  -1.058  0.00  0.00    +0.259 C 
ATOM      2  O   UNL     1      -7.841  -1.460   0.033  0.00  0.00    -0.271 OA
ATOM      3  N   UNL     1      -8.226  -1.807  -2.124  0.00  0.00    -0.262 N 
ATOM      4  C   UNL     1      -9.573  -1.516  -1.973  0.00  0.00    +0.165 A 
ATOM      5  N   UNL     1     -10.217  -1.171  -0.875  0.00  0.00    -0.229 NA
ATOM      6  C   UNL     1     -11.505  -0.923  -0.888  0.00  0.00    +0.060 A 
ATOM      7  C   UNL     1     -12.144  -1.043  -2.100  0.00  0.00    +0.101 A 
ATOM      8  S   UNL     1     -10.777  -1.512  -3.149  0.00  0.00    -0.047 S 
ATOM      9  C   UNL     1     -12.248  -0.529   0.363  0.00  0.00    +0.067 C 
ATOM     10  H   UNL     1      -7.876  -2.045  -2.996  0.00  0.00    +0.157 HD
ENDROOT
BRANCH   7  11
ATOM     11  C   UNL     1     -13.556  -0.838  -2.439  0.00  0.00    +0.267 A 
ATOM     12  N   UNL     1     -14.093  -0.979  -3.634  0.00  0.00    -0.187 NA
ATOM     13  C   UNL     1     -15.406  -0.713  -3.578  0.00  0.00    +0.202 A 
ATOM     14  N   UNL     1     -15.724  -0.397  -2.345  0.00  0.00    -0.056 NA
ATOM     15  O   UNL     1     -14.530  -0.478  -1.581  0.00  0.00    -0.332 OA
BRANCH  13  16
ATOM     16  C   UNL     1     -16.347  -0.765  -4.725  0.00  0.00    +0.022 A 
ATOM     17  C   UNL     1     -15.887  -1.121  -5.990  0.00  0.00    +0.012 A 
ATOM     18  C   UNL     1     -16.766  -1.168  -7.053  0.00  0.00    +0.004 A 
ATOM     19  C   UNL     1     -18.102  -0.863  -6.864  0.00  0.00    -0.050 A 
ATOM     20  C   UNL     1     -18.564  -0.509  -5.609  0.00  0.00    +0.004 A 
ATOM     21  C   UNL     1     -17.695  -0.465  -4.538  0.00  0.00    +0.012 A 
ATOM     22  C   UNL     1     -19.057  -0.917  -8.028  0.00  0.00    +0.044 C 
ENDBRANCH  13  16
ENDBRANCH   7  11
BRANCH   1  23
ATOM     23  C   UNL     1      -5.939  -2.074  -1.221  0.00  0.00    +0.256 C 
ATOM     24  C   UNL     1      -5.781  -3.503  -1.746  0.00  0.00    +0.062 C 
BRANCH  23  25
ATOM     25  O   UNL     1      -5.282  -1.955   0.042  0.00  0.00    -0.480 OA
BRANCH  25  29
ATOM     26  C   UNL     1      -1.236  -1.149  -0.020  0.00  0.00    -0.047 A 
ATOM     27  C   UNL     1      -1.911  -1.388  -1.203  0.00  0.00    +0.007 A 
ATOM     28  C   UNL     1      -3.265  -1.658  -1.185  0.00  0.00    +0.046 A 
ATOM     29  C   UNL     1      -3.949  -1.690   0.022  0.00  0.00    +0.122 A 
ATOM     30  C   UNL     1      -3.270  -1.450   1.207  0.00  0.00    +0.046 A 
ATOM     31  C   UNL     1      -1.914  -1.186   1.184  0.00  0.00    +0.007 A 
BRANCH  26  33
ATOM     32  C   UNL     1       1.025  -2.164   0.066  0.00  0.00    +0.009 C 
ATOM     33  C   UNL     1       0.242  -0.854  -0.043  0.00  0.00    +0.032 C 
ENDBRANCH  26  33
ENDBRANCH  25  29
ENDBRANCH  23  25
ENDBRANCH   1  23
TORSDOF 6
