REMARK  Name = ZINC06301113
REMARK  11 active torsions:
REMARK  status: ('A' for Active; 'I' for Inactive)
REMARK    1  A    between atoms: C_1  and  C_2
REMARK    2  A    between atoms: C_4  and  C_42
REMARK    3  A    between atoms: C_9  and  C_14
REMARK    4  A    between atoms: C_14  and  C_16
REMARK    5  A    between atoms: C_14  and  N_28
REMARK    6  A    between atoms: N_20  and  C_21
REMARK    7  A    between atoms: C_21  and  C_22
REMARK    8  A    between atoms: N_28  and  C_29
REMARK    9  A    between atoms: N_28  and  C_36
REMARK   10  A    between atoms: C_29  and  C_30
REMARK   11  A    between atoms: C_36  and  C_37
REMARK                            x       y       z     vdW  Elec       q    Type
REMARK                         _______ _______ _______ _____ _____    ______ ____
ROOT
ATOM      1  C   UNL     1      -0.206  -5.627   3.198  0.00  0.00    +0.040 C 
ENDROOT
BRANCH   1  10
ATOM      2  C   UNL     1       0.611   1.702   2.090  0.00  0.00    +0.044 C 
ATOM      3  C   UNL     1       0.755   0.278   1.619  0.00  0.00    -0.050 A 
ATOM      4  C   UNL     1       1.298   0.018   0.368  0.00  0.00    +0.008 A 
ATOM      5  C   UNL     1       1.439  -1.277  -0.083  0.00  0.00    -0.026 A 
ATOM      6  C   UNL     1       1.035  -2.336   0.724  0.00  0.00    +0.052 A 
ATOM      7  C   UNL     1       0.486  -2.069   1.992  0.00  0.00    -0.001 A 
ATOM      8  C   UNL     1       0.357  -0.747   2.430  0.00  0.00    +0.013 A 
ATOM      9  C   UNL     1       0.064  -3.190   2.833  0.00  0.00    +0.017 A 
ATOM     10  C   UNL     1       0.218  -4.451   2.357  0.00  0.00    +0.011 A 
ATOM     11  C   UNL     1       0.774  -4.664   1.078  0.00  0.00    +0.251 A 
ATOM     12  O   UNL     1       0.904  -5.805   0.670  0.00  0.00    -0.268 OA
ATOM     13  N   UNL     1       1.165  -3.641   0.298  0.00  0.00    -0.322 N 
ATOM     14  H   UNL     1       1.543  -3.823  -0.576  0.00  0.00    +0.169 HD
ATOM     15  C   UNL     1       2.028  -1.544  -1.444  0.00  0.00    +0.046 C 
ENDBRANCH   1  10
BRANCH   1  16
ATOM     16  C   UNL     1       0.980  -6.524   3.443  0.00  0.00    +0.143 A 
ATOM     17  N   UNL     1       1.459  -7.429   2.625  0.00  0.00    -0.115 NA
ATOM     18  N   UNL     1       2.474  -7.982   3.194  0.00  0.00    -0.023 NA
ATOM     19  N   UNL     1       2.656  -7.452   4.353  0.00  0.00    -0.044 NA
ATOM     20  N   UNL     1       1.758  -6.545   4.541  0.00  0.00    -0.228 N 
BRANCH  20  21
ATOM     21  C   UNL     1       1.611  -5.700   5.728  0.00  0.00    +0.178 C 
BRANCH  21  22
ATOM     22  C   UNL     1       0.708  -6.402   6.745  0.00  0.00    +0.140 C 
ATOM     23  C   UNL     1       0.598  -5.557   8.040  0.00  0.00    +0.035 C 
ATOM     24  C   UNL     1      -0.763  -6.052   8.600  0.00  0.00    +0.031 C 
ATOM     25  C   UNL     1      -1.571  -6.318   7.311  0.00  0.00    +0.160 C 
ATOM     26  O   UNL     1      -0.633  -6.495   6.241  0.00  0.00    -0.375 OA
ENDBRANCH  21  22
ENDBRANCH  20  21
ENDBRANCH   1  16
BRANCH   1  27
ATOM     27  N   UNL     1      -1.252  -6.381   2.493  0.00  0.00    +0.397 N 
ATOM     28  H   UNL     1      -0.879  -6.746   1.629  0.00  0.00    -0.079 HD
BRANCH  27  29
ATOM     29  C   UNL     1      -2.384  -5.491   2.200  0.00  0.00    -0.041 C 
BRANCH  29  30
ATOM     30  C   UNL     1      -2.304  -5.032   0.767  0.00  0.00    -0.064 A 
ATOM     31  C   UNL     1      -1.755  -3.800   0.465  0.00  0.00    +0.002 A 
ATOM     32  C   UNL     1      -1.681  -3.379  -0.850  0.00  0.00    +0.000 A 
ATOM     33  C   UNL     1      -2.157  -4.190  -1.863  0.00  0.00    +0.000 A 
ATOM     34  C   UNL     1      -2.705  -5.423  -1.561  0.00  0.00    +0.000 A 
ATOM     35  C   UNL     1      -2.775  -5.846  -0.247  0.00  0.00    +0.002 A 
ENDBRANCH  29  30
ENDBRANCH  27  29
BRANCH  27  36
ATOM     36  C   UNL     1      -1.709  -7.492   3.338  0.00  0.00    -0.001 C 
BRANCH  36  37
ATOM     37  C   UNL     1      -0.614  -8.522   3.448  0.00  0.00    +0.089 A 
ATOM     38  C   UNL     1       0.118  -8.778   4.547  0.00  0.00    +0.042 A 
ATOM     39  C   UNL     1       1.021  -9.810   4.207  0.00  0.00    +0.041 A 
ATOM     40  C   UNL     1       0.787 -10.125   2.920  0.00  0.00    +0.195 A 
ATOM     41  O   UNL     1      -0.209  -9.345   2.467  0.00  0.00    -0.470 OA
ENDBRANCH  36  37
ENDBRANCH  27  36
ENDBRANCH   1  27
TORSDOF 9
