REMARK  Name = ZINC06321014
REMARK  10 active torsions:
REMARK  status: ('A' for Active; 'I' for Inactive)
REMARK    1  A    between atoms: C_1  and  C_2
REMARK    2  A    between atoms: C_6  and  C_15
REMARK    3  A    between atoms: C_13  and  C_14
REMARK    4  A    between atoms: C_15  and  C_17
REMARK    5  A    between atoms: C_15  and  N_74
REMARK    6  A    between atoms: N_21  and  C_22
REMARK    7  A    between atoms: C_28  and  C_29
REMARK    8  A    between atoms: C_28  and  N_74
REMARK    9  A    between atoms: C_34  and  C_35
REMARK   10  A    between atoms: C_34  and  N_74
REMARK                            x       y       z     vdW  Elec       q    Type
REMARK                         _______ _______ _______ _____ _____    ______ ____
ROOT
ATOM      1  C   UNL     1      -1.578   3.105  -0.993  0.00  0.00    +0.039 C 
ENDROOT
BRANCH   1   7
ATOM      2  C   UNL     1      -3.347   9.227   2.882  0.00  0.00    +0.044 C 
ATOM      3  C   UNL     1      -2.938   7.777   2.829  0.00  0.00    -0.047 A 
ATOM      4  C   UNL     1      -2.752   7.170   1.620  0.00  0.00    +0.013 A 
ATOM      5  C   UNL     1      -2.373   5.824   1.570  0.00  0.00    -0.001 A 
ATOM      6  C   UNL     1      -2.166   5.142   0.292  0.00  0.00    +0.017 A 
ATOM      7  C   UNL     1      -1.799   3.837   0.306  0.00  0.00    +0.011 A 
ATOM      8  C   UNL     1      -1.628   3.160   1.532  0.00  0.00    +0.251 A 
ATOM      9  O   UNL     1      -1.302   1.986   1.522  0.00  0.00    -0.268 OA
ATOM     10  N   UNL     1      -1.810   3.780   2.712  0.00  0.00    -0.322 N 
ATOM     11  H   UNL     1      -1.680   3.285   3.536  0.00  0.00    +0.169 HD
ATOM     12  C   UNL     1      -2.184   5.105   2.766  0.00  0.00    +0.049 A 
ATOM     13  C   UNL     1      -2.378   5.745   3.985  0.00  0.00    +0.030 A 
ATOM     14  C   UNL     1      -2.752   7.072   4.010  0.00  0.00    -0.046 A 
ATOM     15  C   UNL     1      -2.962   7.763   5.332  0.00  0.00    +0.044 C 
ENDBRANCH   1   7
BRANCH   1  16
ATOM     16  C   UNL     1      -0.133   2.689  -1.095  0.00  0.00    +0.143 A 
ATOM     17  N   UNL     1       0.577   2.091  -0.170  0.00  0.00    -0.115 NA
ATOM     18  N   UNL     1       1.761   1.899  -0.639  0.00  0.00    -0.023 NA
ATOM     19  N   UNL     1       1.825   2.359  -1.839  0.00  0.00    -0.044 NA
ATOM     20  N   UNL     1       0.677   2.854  -2.157  0.00  0.00    -0.227 N 
BRANCH  20  21
ATOM     21  C   UNL     1       0.323   3.479  -3.434  0.00  0.00    +0.111 C 
ATOM     22  C   UNL     1       0.512   2.467  -4.566  0.00  0.00    +0.027 C 
ATOM     23  C   UNL     1       0.141   3.119  -5.900  0.00  0.00    +0.002 C 
ATOM     24  C   UNL     1       1.042   4.332  -6.143  0.00  0.00    +0.000 C 
ATOM     25  C   UNL     1       0.853   5.343  -5.010  0.00  0.00    +0.002 C 
ATOM     26  C   UNL     1       1.224   4.691  -3.677  0.00  0.00    +0.027 C 
ENDBRANCH  20  21
ENDBRANCH   1  16
BRANCH   1  27
ATOM     27  N   UNL     1      -2.432   1.899  -1.010  0.00  0.00    +0.396 N 
ATOM     28  H   UNL     1      -2.311   1.392  -0.126  0.00  0.00    -0.080 HD
BRANCH  27  29
ATOM     29  C   UNL     1      -2.036   1.016  -2.127  0.00  0.00    -0.002 C 
BRANCH  29  30
ATOM     30  C   UNL     1      -1.128  -0.060  -1.588  0.00  0.00    +0.089 A 
ATOM     31  C   UNL     1      -1.525  -1.234  -1.064  0.00  0.00    +0.042 A 
ATOM     32  C   UNL     1      -0.354  -1.931  -0.690  0.00  0.00    +0.041 A 
ATOM     33  C   UNL     1       0.688  -1.139  -1.000  0.00  0.00    +0.195 A 
ATOM     34  O   UNL     1       0.213  -0.007  -1.544  0.00  0.00    -0.470 OA
ENDBRANCH  29  30
ENDBRANCH  27  29
BRANCH  27  35
ATOM     35  C   UNL     1      -3.851   2.286  -1.151  0.00  0.00    -0.045 C 
BRANCH  35  36
ATOM     36  C   UNL     1      -4.545   2.081   0.197  0.00  0.00    +0.102 C 
ATOM     37  C   UNL     1      -6.067   2.304   0.057  0.00  0.00    +0.032 C 
ATOM     38  C   UNL     1      -6.467   3.002   1.377  0.00  0.00    +0.030 C 
ATOM     39  C   UNL     1      -5.139   3.118   2.157  0.00  0.00    +0.160 C 
ATOM     40  O   UNL     1      -4.111   3.082   1.143  0.00  0.00    -0.378 OA
ENDBRANCH  35  36
ENDBRANCH  27  35
ENDBRANCH   1  27
TORSDOF 8
