REMARK  Name = ZINC09763683
REMARK  4 active torsions:
REMARK  status: ('A' for Active; 'I' for Inactive)
REMARK    1  A    between atoms: C_3  and  C_7
REMARK    2  A    between atoms: N_8  and  N_9
REMARK    3  A    between atoms: C_10  and  C_12
REMARK    4  A    between atoms: C_14  and  C_18
REMARK                            x       y       z     vdW  Elec       q    Type
REMARK                         _______ _______ _______ _____ _____    ______ ____
ROOT
ATOM      1  C   UNL     1      -0.722  -2.241  -1.153  0.00  0.00    +0.122 A 
ATOM      2  C   UNL     1      -1.197  -0.943  -1.162  0.00  0.00    +0.062 A 
ATOM      3  C   UNL     1      -0.185  -0.182  -1.775  0.00  0.00    +0.093 A 
ATOM      4  N   UNL     1       0.792  -1.004  -2.095  0.00  0.00    -0.173 NA
ATOM      5  N   UNL     1       0.511  -2.206  -1.741  0.00  0.00    -0.272 N 
ATOM      6  H   UNL     1       1.106  -2.999  -1.876  0.00  0.00    +0.189 HD
ENDROOT
BRANCH   3   7
ATOM      7  C   UNL     1      -0.216   1.282  -2.022  0.00  0.00    +0.005 A 
ATOM      8  C   UNL     1      -1.325   2.031  -1.639  0.00  0.00    +0.030 A 
ATOM      9  C   UNL     1      -1.347   3.394  -1.868  0.00  0.00    +0.043 A 
ATOM     10  C   UNL     1      -0.274   4.012  -2.484  0.00  0.00    +0.040 A 
ATOM     11  C   UNL     1       0.829   3.270  -2.871  0.00  0.00    +0.043 A 
ATOM     12  C   UNL     1       0.863   1.908  -2.643  0.00  0.00    +0.030 A 
ATOM     13 CL   UNL     1       2.172   4.053  -3.645  0.00  0.00    -0.083 Cl
ATOM     14 CL   UNL     1      -2.727   4.331  -1.386  0.00  0.00    -0.083 Cl
ENDBRANCH   3   7
BRANCH   1  16
ATOM     15  N   UNL     1      -0.817  -4.635  -0.681  0.00  0.00    -0.202 N 
ATOM     16  C   UNL     1      -1.410  -3.426  -0.618  0.00  0.00    +0.281 C 
ATOM     17  O   UNL     1      -2.513  -3.316  -0.118  0.00  0.00    -0.267 OA
ATOM     18  H   UNL     1       0.063  -4.724  -1.080  0.00  0.00    +0.178 HD
BRANCH  15  20
ATOM     19  C   UNL     1      -0.856  -6.906  -0.126  0.00  0.00    +0.139 C 
ATOM     20  N   UNL     1      -1.472  -5.764  -0.172  0.00  0.00    -0.187 NA
BRANCH  19  23
ATOM     21  C   UNL     1       2.748  -5.881   0.046  0.00  0.00    +0.020 A 
ATOM     22  C   UNL     1       1.367  -5.784   0.064  0.00  0.00    +0.012 A 
ATOM     23  C   UNL     1       0.618  -6.950  -0.140  0.00  0.00    +0.013 A 
ATOM     24  C   UNL     1       1.290  -8.154  -0.361  0.00  0.00    +0.120 A 
ATOM     25  N   UNL     1       2.607  -8.193  -0.374  0.00  0.00    -0.263 NA
ATOM     26  C   UNL     1       3.337  -7.112  -0.180  0.00  0.00    +0.111 A 
ENDBRANCH  19  23
ENDBRANCH  15  20
ENDBRANCH   1  16
TORSDOF 4
