REMARK  Name = ZINC12421510
REMARK  8 active torsions:
REMARK  status: ('A' for Active; 'I' for Inactive)
REMARK    1  A    between atoms: N_14  and  O_15
REMARK    2  A    between atoms: O_15  and  C_16
REMARK    3  A    between atoms: C_16  and  C_17
REMARK    4  A    between atoms: C_17  and  C_19
REMARK    5  A    between atoms: C_17  and  O_36
REMARK    6  A    between atoms: C_19  and  N_20
REMARK    7  A    between atoms: N_23  and  S_26
REMARK    8  A    between atoms: S_26  and  C_29
REMARK                            x       y       z     vdW  Elec       q    Type
REMARK                         _______ _______ _______ _____ _____    ______ ____
ROOT
ATOM      1  C   UNL     1      -1.434   6.011   2.003  0.00  0.00    +0.168 C 
ENDROOT
BRANCH   1   2
ATOM      2  O   UNL     1      -1.737   6.517   0.701  0.00  0.00    -0.387 OA
ATOM      3  H   UNL     1      -1.778   5.832  -0.159  0.00  0.00    +0.210 HD
ENDBRANCH   1   2
BRANCH   1   4
ATOM      4  C   UNL     1      -1.440   7.162   3.011  0.00  0.00    +0.295 C 
BRANCH   4   5
ATOM      5  O   UNL     1      -2.760   7.700   3.112  0.00  0.00    -0.391 OA
BRANCH   5  19
ATOM      6  C   UNL     1      -7.909   8.802   2.610  0.00  0.00    +0.001 A 
ATOM      7  C   UNL     1      -6.932   7.947   2.131  0.00  0.00    +0.001 A 
ATOM      8  C   UNL     1      -5.633   8.045   2.590  0.00  0.00    +0.011 A 
ATOM      9  C   UNL     1      -5.303   9.009   3.537  0.00  0.00    +0.012 A 
ATOM     10  C   UNL     1      -6.293   9.876   4.027  0.00  0.00    -0.008 A 
ATOM     11  C   UNL     1      -7.599   9.759   3.556  0.00  0.00    +0.009 A 
ATOM     12  C   UNL     1      -5.675  10.796   5.009  0.00  0.00    -0.008 A 
ATOM     13  C   UNL     1      -6.206  11.835   5.771  0.00  0.00    +0.009 A 
ATOM     14  C   UNL     1      -5.391  12.549   6.628  0.00  0.00    +0.001 A 
ATOM     15  C   UNL     1      -4.046  12.241   6.737  0.00  0.00    +0.001 A 
ATOM     16  C   UNL     1      -3.503  11.214   5.989  0.00  0.00    +0.011 A 
ATOM     17  C   UNL     1      -4.311  10.486   5.121  0.00  0.00    +0.012 A 
ATOM     18  C   UNL     1      -4.027   9.354   4.208  0.00  0.00    +0.118 C 
ATOM     19  N   UNL     1      -2.875   8.776   4.024  0.00  0.00    -0.084 NA
ENDBRANCH   5  19
ENDBRANCH   4   5
ENDBRANCH   1   4
BRANCH   1  20
ATOM     20  C   UNL     1      -0.052   5.355   1.986  0.00  0.00    +0.119 C 
BRANCH  20  21
ATOM     21  N   UNL     1      -0.046   4.250   1.018  0.00  0.00    -0.297 NA
ATOM     22  C   UNL     1       1.179   3.448   1.142  0.00  0.00    +0.101 C 
ATOM     23  C   UNL     1       1.232   2.424   0.003  0.00  0.00    +0.125 C 
ATOM     24  N   UNL     1      -0.020   1.652   0.011  0.00  0.00    -0.174 NA
ATOM     25  C   UNL     1      -1.293   2.389   0.021  0.00  0.00    +0.125 C 
ATOM     26  C   UNL     1      -1.246   3.415   1.165  0.00  0.00    +0.101 C 
BRANCH  24  27
ATOM     27  S   UNL     1       0.002  -0.004   0.002  0.00  0.00    +0.061 S 
ATOM     28  O   UNL     1      -1.243  -0.424  -0.539  0.00  0.00    -0.153 OA
ATOM     29  O   UNL     1       1.248  -0.390  -0.563  0.00  0.00    -0.153 OA
BRANCH  27  30
ATOM     30  C   UNL     1       0.025  -0.534   1.682  0.00  0.00    +0.106 A 
ATOM     31  C   UNL     1       1.232  -0.731   2.328  0.00  0.00    +0.030 A 
ATOM     32  C   UNL     1       1.250  -1.141   3.648  0.00  0.00    +0.022 A 
ATOM     33  C   UNL     1       0.061  -1.366   4.319  0.00  0.00    +0.041 A 
ATOM     34  C   UNL     1      -1.145  -1.174   3.671  0.00  0.00    +0.022 A 
ATOM     35  C   UNL     1      -1.163  -0.758   2.353  0.00  0.00    +0.030 A 
ATOM     36 CL   UNL     1       0.084  -1.887   5.975  0.00  0.00    -0.084 Cl
ENDBRANCH  27  30
ENDBRANCH  24  27
ENDBRANCH  20  21
ENDBRANCH   1  20
TORSDOF 8
