REMARK  Name = ZINC08867263
REMARK  8 active torsions:
REMARK  status: ('A' for Active; 'I' for Inactive)
REMARK    1  A    between atoms: C_4  and  C_7
REMARK    2  A    between atoms: N_9  and  C_10
REMARK    3  A    between atoms: C_10  and  C_11
REMARK    4  A    between atoms: C_10  and  C_15
REMARK    5  A    between atoms: C_10  and  N_56
REMARK    6  A    between atoms: C_19  and  C_20
REMARK    7  A    between atoms: C_19  and  N_56
REMARK    8  A    between atoms: C_20  and  C_21
REMARK                            x       y       z     vdW  Elec       q    Type
REMARK                         _______ _______ _______ _____ _____    ______ ____
ROOT
ATOM      1  C   UNL     1      -1.213  -2.157   0.086  0.00  0.00    +0.193 C 
ENDROOT
BRANCH   1   4
ATOM      2  C   UNL     1      -1.962   0.040  -0.656  0.00  0.00    +0.243 C 
ATOM      3  O   UNL     1      -2.855  -0.504  -1.275  0.00  0.00    -0.270 OA
ATOM      4  N   UNL     1      -1.058  -0.702   0.015  0.00  0.00    -0.307 N 
ATOM      5  H   UNL     1      -0.305  -0.273   0.450  0.00  0.00    +0.148 HD
BRANCH   2   9
ATOM      6  C   UNL     1      -1.688   4.278  -0.605  0.00  0.00    +0.000 A 
ATOM      7  C   UNL     1      -2.707   3.662  -1.310  0.00  0.00    +0.001 A 
ATOM      8  C   UNL     1      -2.801   2.286  -1.331  0.00  0.00    +0.013 A 
ATOM      9  C   UNL     1      -1.867   1.515  -0.638  0.00  0.00    +0.037 A 
ATOM     10  C   UNL     1      -0.846   2.143   0.077  0.00  0.00    +0.013 A 
ATOM     11  C   UNL     1      -0.759   3.520   0.085  0.00  0.00    +0.001 A 
ENDBRANCH   2   9
ENDBRANCH   1   4
BRANCH   1  12
ATOM     12  C   UNL     1      -0.815  -2.779  -1.255  0.00  0.00    +0.404 C 
ATOM     13  F   UNL     1       0.466  -2.343  -1.609  0.00  0.00    -0.170 F 
ATOM     14  F   UNL     1      -0.819  -4.173  -1.142  0.00  0.00    -0.170 F 
ATOM     15  F   UNL     1      -1.730  -2.388  -2.239  0.00  0.00    -0.170 F 
ENDBRANCH   1  12
BRANCH   1  16
ATOM     16  C   UNL     1      -0.313  -2.712   1.192  0.00  0.00    +0.404 C 
ATOM     17  F   UNL     1      -0.764  -2.254   2.434  0.00  0.00    -0.170 F 
ATOM     18  F   UNL     1      -0.353  -4.111   1.168  0.00  0.00    -0.170 F 
ATOM     19  F   UNL     1       1.001  -2.280   0.985  0.00  0.00    -0.170 F 
ENDBRANCH   1  16
BRANCH   1  20
ATOM     20  N   UNL     1      -2.621  -2.480   0.383  0.00  0.00    +0.405 N 
ATOM     21  H   UNL     1      -3.209  -2.187  -0.406  0.00  0.00    -0.082 HD
ATOM     22  H   UNL     1      -2.912  -1.979   1.231  0.00  0.00    -0.082 HD
BRANCH  20  23
ATOM     23  C   UNL     1      -2.780  -3.931   0.597  0.00  0.00    -0.078 C 
BRANCH  23  24
ATOM     24  C   UNL     1      -4.265  -4.250   0.782  0.00  0.00    -0.012 C 
BRANCH  24  25
ATOM     25  C   UNL     1      -4.439  -5.754   1.005  0.00  0.00    -0.030 C 
ATOM     26  C   UNL     1      -3.901  -6.515  -0.208  0.00  0.00    +0.010 C 
ATOM     27  C   UNL     1      -4.075  -8.019   0.015  0.00  0.00    -0.010 C 
ATOM     28  C   UNL     1      -5.560  -8.338   0.201  0.00  0.00    +0.007 C 
ATOM     29  C   UNL     1      -6.097  -7.577   1.414  0.00  0.00    -0.010 C 
ATOM     30  C   UNL     1      -5.923  -6.074   1.191  0.00  0.00    +0.010 C 
ATOM     31  C   UNL     1      -5.324  -8.000   2.665  0.00  0.00    +0.007 C 
ATOM     32  C   UNL     1      -3.839  -7.680   2.479  0.00  0.00    -0.010 C 
ATOM     33  C   UNL     1      -3.302  -8.441   1.266  0.00  0.00    +0.007 C 
ATOM     34  C   UNL     1      -3.666  -6.177   2.256  0.00  0.00    +0.010 C 
ENDBRANCH  24  25
ENDBRANCH  23  24
ENDBRANCH  20  23
ENDBRANCH   1  20
TORSDOF 8
