REMARK  Name = ZINC14550688
REMARK  7 active torsions:
REMARK  status: ('A' for Active; 'I' for Inactive)
REMARK    1  A    between atoms: C_1  and  C_2
REMARK    2  A    between atoms: C_5  and  N_9
REMARK    3  A    between atoms: C_7  and  C_8
REMARK    4  A    between atoms: N_9  and  S_10
REMARK    5  A    between atoms: S_10  and  C_13
REMARK    6  A    between atoms: C_26  and  C_29
REMARK    7  A    between atoms: C_32  and  N_35
REMARK                            x       y       z     vdW  Elec       q    Type
REMARK                         _______ _______ _______ _____ _____    ______ ____
ROOT
ATOM      1  C   UNL     1       0.703  -3.072  -0.473  0.00  0.00    +0.109 A 
ATOM      2  C   UNL     1      -0.574  -2.542  -0.449  0.00  0.00    +0.030 A 
ATOM      3  C   UNL     1      -0.756  -1.175  -0.415  0.00  0.00    +0.025 A 
ATOM      4  C   UNL     1       0.340  -0.321  -0.403  0.00  0.00    +0.031 A 
ATOM      5  C   UNL     1       1.629  -0.865  -0.415  0.00  0.00    -0.018 A 
ATOM      6  C   UNL     1       1.801  -2.231  -0.457  0.00  0.00    +0.034 A 
ATOM      7  C   UNL     1       2.768   0.078  -0.371  0.00  0.00    +0.049 C 
ATOM      8  C   UNL     1       4.099  -0.269  -0.931  0.00  0.00    -0.023 C 
ATOM      9  C   UNL     1       4.677   0.843  -1.370  0.00  0.00    -0.030 C 
ATOM     10  C   UNL     1       3.741   2.035  -1.163  0.00  0.00    +0.033 C 
ATOM     11  C   UNL     1       2.366   1.354  -1.169  0.00  0.00    +0.029 C 
ATOM     12  C   UNL     1       1.265   2.010  -0.354  0.00  0.00    +0.105 C 
ATOM     13  N   UNL     1       0.129   1.063  -0.383  0.00  0.00    -0.336 N 
ATOM     14  H   UNL     1      -0.777   1.407  -0.391  0.00  0.00    +0.147 HD
ENDROOT
BRANCH  12  15
ATOM     15  C   UNL     1       1.726   2.228   1.064  0.00  0.00    -0.027 A 
ATOM     16  C   UNL     1       1.510   1.252   2.018  0.00  0.00    +0.008 A 
ATOM     17  C   UNL     1       1.937   1.449   3.318  0.00  0.00    +0.033 A 
ATOM     18  C   UNL     1       2.572   2.627   3.665  0.00  0.00    +0.126 A 
ATOM     19  C   UNL     1       2.784   3.605   2.712  0.00  0.00    +0.033 A 
ATOM     20  C   UNL     1       2.361   3.406   1.411  0.00  0.00    +0.008 A 
BRANCH  18  21
ATOM     21  N   UNL     1       3.025   2.840   5.058  0.00  0.00    +0.056 N 
ATOM     22  O   UNL     1       3.585   3.878   5.364  0.00  0.00    -0.126 OA
ATOM     23  O   UNL     1       2.838   1.978   5.898  0.00  0.00    -0.126 OA
ENDBRANCH  18  21
ENDBRANCH  12  15
BRANCH   1  24
ATOM     24  S   UNL     1       0.932  -4.819  -0.526  0.00  0.00    +0.072 S 
ATOM     25  O   UNL     1      -0.199  -5.356  -1.198  0.00  0.00    -0.150 OA
ATOM     26  O   UNL     1       2.261  -5.040  -0.976  0.00  0.00    -0.150 OA
BRANCH  24  27
ATOM     27  N   UNL     1       0.862  -5.369   1.034  0.00  0.00    -0.216 N 
ATOM     28  H   UNL     1       0.171  -5.997   1.296  0.00  0.00    +0.174 HD
BRANCH  27  33
ATOM     29  C   UNL     1       4.665  -3.587   4.844  0.00  0.00    +0.044 C 
ATOM     30  C   UNL     1       3.655  -4.060   3.831  0.00  0.00    -0.047 A 
ATOM     31  C   UNL     1       4.073  -4.468   2.578  0.00  0.00    +0.005 A 
ATOM     32  C   UNL     1       3.150  -4.908   1.649  0.00  0.00    +0.025 A 
ATOM     33  C   UNL     1       1.799  -4.929   1.972  0.00  0.00    +0.048 A 
ATOM     34  C   UNL     1       1.382  -4.519   3.232  0.00  0.00    +0.028 A 
ATOM     35  C   UNL     1       2.311  -4.085   4.157  0.00  0.00    -0.046 A 
ATOM     36  C   UNL     1       1.860  -3.639   5.524  0.00  0.00    +0.044 C 
ENDBRANCH  27  33
ENDBRANCH  24  27
ENDBRANCH   1  24
TORSDOF 5
