REMARK  Name = ZINC13164219
REMARK  11 active torsions:
REMARK  status: ('A' for Active; 'I' for Inactive)
REMARK    1  A    between atoms: C_1  and  C_2
REMARK    2  A    between atoms: C_5  and  N_35
REMARK    3  A    between atoms: C_7  and  N_8
REMARK    4  A    between atoms: C_9  and  C_11
REMARK    5  A    between atoms: C_11  and  N_12
REMARK    6  A    between atoms: C_15  and  C_19
REMARK    7  A    between atoms: C_15  and  C_27
REMARK    8  A    between atoms: C_22  and  O_25
REMARK    9  A    between atoms: O_25  and  C_26
REMARK   10  A    between atoms: C_30  and  O_33
REMARK   11  A    between atoms: O_33  and  C_34
REMARK                            x       y       z     vdW  Elec       q    Type
REMARK                         _______ _______ _______ _____ _____    ______ ____
ROOT
ATOM      1  N   UNL     1       1.107   1.893  -0.547  0.00  0.00    -0.215 N 
ATOM      2  C   UNL     1       0.014   1.107  -0.494  0.00  0.00    +0.256 C 
ATOM      3  O   UNL     1      -0.021  -0.103  -0.561  0.00  0.00    -0.272 OA
ATOM      4  C   UNL     1      -1.162   2.050  -0.340  0.00  0.00    +0.164 C 
ATOM      5  N   UNL     1      -0.536   3.383  -0.314  0.00  0.00    -0.278 N 
ATOM      6  C   UNL     1       0.788   3.189  -0.444  0.00  0.00    +0.310 C 
ATOM      7  O   UNL     1       1.604   4.089  -0.465  0.00  0.00    -0.252 OA
ATOM      8  H   UNL     1      -0.991   4.235  -0.224  0.00  0.00    +0.152 HD
ENDROOT
BRANCH   4   9
ATOM      9  C   UNL     1      -2.099   1.924  -1.514  0.00  0.00    -0.011 A 
ATOM     10  C   UNL     1      -2.893   2.995  -1.881  0.00  0.00    +0.010 A 
ATOM     11  C   UNL     1      -3.748   2.885  -2.960  0.00  0.00    +0.046 A 
ATOM     12  C   UNL     1      -3.820   1.694  -3.667  0.00  0.00    +0.120 A 
ATOM     13  C   UNL     1      -3.027   0.619  -3.293  0.00  0.00    +0.046 A 
ATOM     14  C   UNL     1      -2.168   0.736  -2.218  0.00  0.00    +0.010 A 
BRANCH  12  15
ATOM     15  O   UNL     1      -4.665   1.580  -4.725  0.00  0.00    -0.495 OA
ATOM     16  C   UNL     1      -5.452   2.728  -5.053  0.00  0.00    +0.277 C 
ENDBRANCH  12  15
ENDBRANCH   4   9
BRANCH   4  17
ATOM     17  C   UNL     1      -1.890   1.783   0.952  0.00  0.00    -0.011 A 
ATOM     18  C   UNL     1      -2.857   0.795   1.009  0.00  0.00    +0.010 A 
ATOM     19  C   UNL     1      -3.521   0.545   2.194  0.00  0.00    +0.046 A 
ATOM     20  C   UNL     1      -3.227   1.293   3.325  0.00  0.00    +0.120 A 
ATOM     21  C   UNL     1      -2.260   2.286   3.264  0.00  0.00    +0.046 A 
ATOM     22  C   UNL     1      -1.594   2.529   2.078  0.00  0.00    +0.010 A 
BRANCH  20  23
ATOM     23  O   UNL     1      -3.884   1.052   4.490  0.00  0.00    -0.495 OA
ATOM     24  C   UNL     1      -4.865   0.015   4.479  0.00  0.00    +0.277 C 
ENDBRANCH  20  23
ENDBRANCH   4  17
BRANCH   1  25
ATOM     25  C   UNL     1       2.476   1.392  -0.697  0.00  0.00    +0.214 C 
BRANCH  25  27
ATOM     26  N   UNL     1       4.035   0.862  -2.543  0.00  0.00    -0.284 N 
ATOM     27  C   UNL     1       2.819   1.301  -2.162  0.00  0.00    +0.235 C 
ATOM     28  O   UNL     1       2.001   1.623  -2.998  0.00  0.00    -0.274 OA
ATOM     29  H   UNL     1       4.670   0.555  -1.878  0.00  0.00    +0.155 HD
BRANCH  26  36
ATOM     30  C   UNL     1       6.739   1.400  -3.247  0.00  0.00    +0.045 C 
ATOM     31  C   UNL     1       5.688   1.105  -4.287  0.00  0.00    -0.029 A 
ATOM     32  C   UNL     1       6.027   1.085  -5.625  0.00  0.00    +0.007 A 
ATOM     33  C   UNL     1       5.063   0.820  -6.580  0.00  0.00    +0.033 A 
ATOM     34  C   UNL     1       3.758   0.569  -6.198  0.00  0.00    +0.128 A 
ATOM     35  C   UNL     1       3.413   0.582  -4.861  0.00  0.00    +0.056 A 
ATOM     36  C   UNL     1       4.380   0.848  -3.899  0.00  0.00    +0.039 A 
BRANCH  34  37
ATOM     37  N   UNL     1       2.728   0.287  -7.224  0.00  0.00    +0.056 N 
ATOM     38  O   UNL     1       1.579   0.066  -6.888  0.00  0.00    -0.126 OA
ATOM     39  O   UNL     1       3.031   0.275  -8.403  0.00  0.00    -0.126 OA
ENDBRANCH  34  37
ENDBRANCH  26  36
ENDBRANCH  25  27
ENDBRANCH   1  25
TORSDOF 8
