REMARK  Name = ZINC09500508
REMARK  11 active torsions:
REMARK  status: ('A' for Active; 'I' for Inactive)
REMARK    1  A    between atoms: C_1  and  C_2
REMARK    2  A    between atoms: C_5  and  N_9
REMARK    3  A    between atoms: C_6  and  C_8
REMARK    4  A    between atoms: C_22  and  S_23
REMARK    5  A    between atoms: S_23  and  C_24
REMARK    6  A    between atoms: C_24  and  C_25
REMARK    7  A    between atoms: N_27  and  C_28
REMARK    8  A    between atoms: C_28  and  C_30
REMARK    9  A    between atoms: C_28  and  C_31
REMARK   10  A    between atoms: C_31  and  C_32
REMARK   11  A    between atoms: C_31  and  C_33
REMARK                            x       y       z     vdW  Elec       q    Type
REMARK                         _______ _______ _______ _____ _____    ______ ____
ROOT
ATOM      1  N   UNL     1      -4.781  -6.004   0.015  0.00  0.00    -0.245 N 
ATOM      2  C   UNL     1      -4.055  -7.141   0.003  0.00  0.00    +0.268 A 
ATOM      3  O   UNL     1      -4.606  -8.226   0.002  0.00  0.00    -0.267 OA
ATOM      4  C   UNL     1      -2.584  -7.049  -0.010  0.00  0.00    +0.064 A 
ATOM      5  C   UNL     1      -1.788  -8.193  -0.023  0.00  0.00    +0.015 A 
ATOM      6  C   UNL     1      -0.414  -8.067  -0.034  0.00  0.00    +0.001 A 
ATOM      7  C   UNL     1       0.174  -6.812  -0.033  0.00  0.00    +0.002 A 
ATOM      8  C   UNL     1      -0.604  -5.671  -0.021  0.00  0.00    +0.027 A 
ATOM      9  C   UNL     1      -1.986  -5.778  -0.009  0.00  0.00    +0.064 A 
ATOM     10  N   UNL     1      -2.796  -4.650  -0.002  0.00  0.00    -0.255 N 
ATOM     11  C   UNL     1      -4.162  -4.763   0.016  0.00  0.00    +0.245 A 
ATOM     12  N   UNL     1      -4.645  -3.544   0.027  0.00  0.00    -0.109 NA
ATOM     13  N   UNL     1      -3.686  -2.688   0.022  0.00  0.00    -0.120 NA
ATOM     14  C   UNL     1      -2.530  -3.307   0.009  0.00  0.00    +0.198 A 
ENDROOT
BRANCH   1  19
ATOM     15  C   UNL     1     -10.447  -6.302   0.063  0.00  0.00    +0.044 C 
ATOM     16  C   UNL     1      -8.942  -6.222   0.051  0.00  0.00    -0.050 A 
ATOM     17  C   UNL     1      -8.263  -6.180  -1.154  0.00  0.00    +0.005 A 
ATOM     18  C   UNL     1      -6.885  -6.103  -1.169  0.00  0.00    +0.027 A 
ATOM     19  C   UNL     1      -6.179  -6.078   0.027  0.00  0.00    +0.056 A 
ATOM     20  C   UNL     1      -6.863  -6.120   1.235  0.00  0.00    -0.026 A 
ATOM     21  C   UNL     1      -8.243  -6.192   1.243  0.00  0.00    +0.008 A 
ATOM     22  C   UNL     1      -6.102  -6.087   2.535  0.00  0.00    +0.046 C 
ENDBRANCH   1  19
BRANCH  14  23
ATOM     23  S   UNL     1      -0.937  -2.554  -0.003  0.00  0.00    -0.076 S 
BRANCH  23  24
ATOM     24  C   UNL     1      -1.293  -0.775   0.010  0.00  0.00    +0.173 C 
BRANCH  24  25
ATOM     25  C   UNL     1       0.002  -0.004   0.002  0.00  0.00    +0.224 C 
ATOM     26  O   UNL     1       1.060  -0.596  -0.011  0.00  0.00    -0.275 OA
ATOM     27  N   UNL     1      -0.016   1.344   0.009  0.00  0.00    -0.312 N 
ATOM     28  H   UNL     1      -0.863   1.817   0.016  0.00  0.00    +0.149 HD
BRANCH  27  29
ATOM     29  C   UNL     1       1.242   2.093   0.001  0.00  0.00    +0.072 C 
ATOM     30  C   UNL     1       1.759   2.239   1.434  0.00  0.00    +0.028 C 
BRANCH  29  31
ATOM     31  C   UNL     1       1.006   3.481  -0.599  0.00  0.00    +0.003 C 
ATOM     32  C   UNL     1       2.320   4.264  -0.607  0.00  0.00    +0.009 C 
ATOM     33  C   UNL     1       0.490   3.335  -2.031  0.00  0.00    +0.009 C 
ENDBRANCH  29  31
ENDBRANCH  27  29
ENDBRANCH  24  25
ENDBRANCH  23  24
ENDBRANCH  14  23
TORSDOF 6
