REMARK  Name = ZINC12795538
REMARK  10 active torsions:
REMARK  status: ('A' for Active; 'I' for Inactive)
REMARK    1  A    between atoms: C_1  and  C_2
REMARK    2  A    between atoms: C_6  and  N_9
REMARK    3  A    between atoms: C_7  and  C_8
REMARK    4  A    between atoms: C_10  and  C_12
REMARK    5  A    between atoms: C_12  and  N_58
REMARK    6  A    between atoms: C_13  and  N_58
REMARK    7  A    between atoms: C_14  and  C_15
REMARK    8  A    between atoms: C_14  and  N_58
REMARK    9  A    between atoms: N_17  and  C_18
REMARK   10  A    between atoms: C_23  and  N_24
REMARK                            x       y       z     vdW  Elec       q    Type
REMARK                         _______ _______ _______ _____ _____    ______ ____
ROOT
ATOM      1  C   UNL     1       2.030   3.771  -0.607  0.00  0.00    +0.201 C 
ATOM      2  O   UNL     1       3.085   3.174  -0.571  0.00  0.00    -0.278 OA
ATOM      3  N   UNL     1       2.015   5.099  -0.835  0.00  0.00    -0.285 N 
ATOM      4  H   UNL     1       1.180   5.591  -0.784  0.00  0.00    +0.155 HD
ENDROOT
BRANCH   3   5
ATOM      5  C   UNL     1       3.205   5.770  -1.147  0.00  0.00    +0.068 A 
ATOM      6  C   UNL     1       4.260   5.078  -1.727  0.00  0.00    +0.075 A 
ATOM      7  C   UNL     1       5.431   5.747  -2.036  0.00  0.00    +0.164 A 
ATOM      8  C   UNL     1       5.554   7.101  -1.758  0.00  0.00    +0.164 A 
ATOM      9  C   UNL     1       4.504   7.790  -1.175  0.00  0.00    +0.084 A 
ATOM     10  C   UNL     1       3.330   7.125  -0.870  0.00  0.00    +0.151 A 
ATOM     11  O   UNL     1       6.717   7.750  -2.062  0.00  0.00    -0.488 OA
ATOM     12  C   UNL     1       7.001   7.903  -3.453  0.00  0.00    +0.232 C 
ATOM     13  C   UNL     1       7.681   6.659  -4.005  0.00  0.00    +0.082 C 
ATOM     14  C   UNL     1       6.777   5.438  -3.961  0.00  0.00    +0.232 C 
ATOM     15  O   UNL     1       6.474   5.080  -2.611  0.00  0.00    -0.488 OA
BRANCH  10  16
ATOM     16  N   UNL     1       2.205   7.858  -0.247  0.00  0.00    +0.058 N 
ATOM     17  O   UNL     1       2.276   9.064  -0.093  0.00  0.00    -0.126 OA
ATOM     18  O   UNL     1       1.209   7.256   0.110  0.00  0.00    -0.126 OA
ENDBRANCH  10  16
ENDBRANCH   3   5
BRANCH   1  19
ATOM     19  C   UNL     1       0.736   3.028  -0.396  0.00  0.00    +0.019 C 
BRANCH  19  21
ATOM     20  C   UNL     1       1.745   1.408   1.094  0.00  0.00    -0.095 C 
ATOM     21  N   UNL     1       1.036   1.596  -0.190  0.00  0.00    +0.389 N 
ATOM     22  H   UNL     1       1.638   1.268  -0.954  0.00  0.00    -0.081 HD
BRANCH  21  23
ATOM     23  C   UNL     1      -0.216   0.811  -0.195  0.00  0.00    +0.019 C 
BRANCH  23  25
ATOM     24  N   UNL     1      -0.852  -1.579  -0.229  0.00  0.00    -0.287 N 
ATOM     25  C   UNL     1       0.130  -0.656  -0.205  0.00  0.00    +0.201 C 
ATOM     26  O   UNL     1       1.291  -1.005  -0.191  0.00  0.00    -0.278 OA
ATOM     27  H   UNL     1      -1.779  -1.303  -0.158  0.00  0.00    +0.155 HD
BRANCH  24  33
ATOM     28  C   UNL     1      -2.042  -6.293   0.505  0.00  0.00    +0.044 C 
ATOM     29  C   UNL     1      -1.092  -5.242  -0.008  0.00  0.00    -0.046 A 
ATOM     30  C   UNL     1       0.097  -5.618  -0.607  0.00  0.00    +0.004 A 
ATOM     31  C   UNL     1       0.971  -4.657  -1.079  0.00  0.00    +0.002 A 
ATOM     32  C   UNL     1       0.659  -3.317  -0.956  0.00  0.00    +0.023 A 
ATOM     33  C   UNL     1      -0.533  -2.936  -0.355  0.00  0.00    +0.036 A 
ATOM     34  C   UNL     1      -1.407  -3.904   0.124  0.00  0.00    -0.026 A 
ATOM     35  C   UNL     1      -2.699  -3.494   0.782  0.00  0.00    +0.046 C 
ENDBRANCH  24  33
ENDBRANCH  23  25
ENDBRANCH  21  23
ENDBRANCH  19  21
ENDBRANCH   1  19
TORSDOF 7
