REMARK  Name = ZINC39974955
REMARK  9 active torsions:
REMARK  status: ('A' for Active; 'I' for Inactive)
REMARK    1  A    between atoms: C_1  and  C_2
REMARK    2  A    between atoms: N_11  and  S_12
REMARK    3  A    between atoms: S_12  and  C_15
REMARK    4  A    between atoms: C_18  and  N_21
REMARK    5  A    between atoms: N_21  and  C_22
REMARK    6  A    between atoms: C_22  and  N_24
REMARK    7  A    between atoms: N_27  and  C_30
REMARK    8  A    between atoms: C_30  and  C_31
REMARK    9  A    between atoms: C_31  and  C_32
REMARK                            x       y       z     vdW  Elec       q    Type
REMARK                         _______ _______ _______ _____ _____    ______ ____
ROOT
ATOM      1  C   UNL     1       2.226   1.272   2.563  0.00  0.00    +0.109 A 
ATOM      2  C   UNL     1       1.290   1.458   3.564  0.00  0.00    +0.030 A 
ATOM      3  C   UNL     1       1.319   2.603   4.335  0.00  0.00    +0.025 A 
ATOM      4  C   UNL     1       2.291   3.569   4.104  0.00  0.00    +0.033 A 
ATOM      5  C   UNL     1       3.229   3.379   3.099  0.00  0.00    +0.025 A 
ATOM      6  C   UNL     1       3.197   2.229   2.335  0.00  0.00    +0.030 A 
ENDROOT
BRANCH   1   7
ATOM      7  S   UNL     1       2.184  -0.191   1.581  0.00  0.00    +0.075 S 
ATOM      8  O   UNL     1       2.836   0.122   0.358  0.00  0.00    -0.150 OA
ATOM      9  O   UNL     1       0.850  -0.676   1.631  0.00  0.00    -0.150 OA
BRANCH   7  19
ATOM     10  C   UNL     1       2.084  -1.536   4.560  0.00  0.00    +0.030 C 
ATOM     11  C   UNL     1       2.647  -2.276   3.345  0.00  0.00    +0.099 C 
ATOM     12  C   UNL     1       3.883  -3.097   3.746  0.00  0.00    +0.061 C 
ATOM     13  C   UNL     1       5.007  -2.521   2.914  0.00  0.00    -0.023 A 
ATOM     14  C   UNL     1       6.346  -2.854   2.845  0.00  0.00    +0.005 A 
ATOM     15  C   UNL     1       7.190  -2.168   1.992  0.00  0.00    +0.000 A 
ATOM     16  C   UNL     1       6.690  -1.146   1.205  0.00  0.00    +0.002 A 
ATOM     17  C   UNL     1       5.355  -0.810   1.270  0.00  0.00    +0.025 A 
ATOM     18  C   UNL     1       4.496  -1.499   2.130  0.00  0.00    +0.055 A 
ATOM     19  N   UNL     1       3.127  -1.319   2.344  0.00  0.00    -0.200 N 
ENDBRANCH   7  19
ENDBRANCH   1   7
BRANCH   4  20
ATOM     20  N   UNL     1       2.323   4.730   4.883  0.00  0.00    -0.297 N 
ATOM     21  H   UNL     1       2.504   5.588   4.468  0.00  0.00    +0.154 HD
BRANCH  20  22
ATOM     22  C   UNL     1       2.103   4.658   6.211  0.00  0.00    +0.137 C 
ATOM     23  S   UNL     1       1.934   3.132   6.968  0.00  0.00    -0.018 S 
BRANCH  22  24
ATOM     24  N   UNL     1       2.015   5.787   6.942  0.00  0.00    -0.316 N 
ATOM     25  C   UNL     1       2.029   7.109   6.297  0.00  0.00    +0.088 C 
ATOM     26  C   UNL     1       0.841   7.920   6.827  0.00  0.00    -0.060 C 
ATOM     27  N   UNL     1       0.892   7.960   8.293  0.00  0.00    +0.382 N 
ATOM     28  C   UNL     1       0.721   6.607   8.838  0.00  0.00    -0.060 C 
ATOM     29  C   UNL     1       1.897   5.731   8.407  0.00  0.00    +0.088 C 
ATOM     30  H   UNL     1       1.784   8.329   8.587  0.00  0.00    -0.082 HD
BRANCH  27  31
ATOM     31  C   UNL     1      -0.181   8.828   8.795  0.00  0.00    -0.074 C 
BRANCH  31  32
ATOM     32  C   UNL     1      -0.054   8.972  10.313  0.00  0.00    +0.016 C 
BRANCH  32  33
ATOM     33  C   UNL     1      -1.155   9.861  10.828  0.00  0.00    -0.049 A 
ATOM     34  C   UNL     1      -0.960  11.227  10.909  0.00  0.00    +0.003 A 
ATOM     35  C   UNL     1      -1.970  12.044  11.381  0.00  0.00    +0.000 A 
ATOM     36  C   UNL     1      -3.177  11.494  11.772  0.00  0.00    +0.000 A 
ATOM     37  C   UNL     1      -3.373  10.129  11.690  0.00  0.00    +0.000 A 
ATOM     38  C   UNL     1      -2.364   9.312  11.214  0.00  0.00    +0.003 A 
ENDBRANCH  32  33
ENDBRANCH  31  32
ENDBRANCH  27  31
ENDBRANCH  22  24
ENDBRANCH  20  22
ENDBRANCH   4  20
TORSDOF 8
