REMARK  Name = ZINC18338419
REMARK  5 active torsions:
REMARK  status: ('A' for Active; 'I' for Inactive)
REMARK    1  A    between atoms: C_8  and  C_10
REMARK    2  A    between atoms: C_11  and  C_12
REMARK    3  A    between atoms: C_12  and  O_14
REMARK    4  A    between atoms: O_14  and  C_15
REMARK    5  A    between atoms: C_15  and  C_16
REMARK                            x       y       z     vdW  Elec       q    Type
REMARK                         _______ _______ _______ _____ _____    ______ ____
ROOT
ATOM      1  C   UNL     1       0.018  -0.004   0.187  0.00  0.00    +0.170 A 
ATOM      2  N   UNL     1       0.000   1.317   0.188  0.00  0.00    -0.214 NA
ATOM      3  C   UNL     1       1.094   2.037   0.003  0.00  0.00    +0.128 A 
ATOM      4  C   UNL     1       2.334   1.371  -0.205  0.00  0.00    +0.051 A 
ATOM      5  C   UNL     1       3.659   1.951  -0.429  0.00  0.00    -0.025 A 
ATOM      6  C   UNL     1       4.683   1.089  -0.600  0.00  0.00    -0.004 A 
ATOM      7  S   UNL     1       3.957  -0.523  -0.475  0.00  0.00    -0.073 S 
ATOM      8  C   UNL     1       2.274  -0.037  -0.193  0.00  0.00    +0.114 A 
ATOM      9  N   UNL     1       1.137  -0.677   0.000  0.00  0.00    -0.221 NA
ATOM     10  C   UNL     1       6.122   1.428  -0.842  0.00  0.00    +0.043 C 
ATOM     11  C   UNL     1       6.213   2.908  -1.239  0.00  0.00    +0.005 C 
ATOM     12  C   UNL     1       5.382   3.733  -0.252  0.00  0.00    +0.005 C 
ATOM     13  C   UNL     1       3.893   3.458  -0.471  0.00  0.00    +0.037 C 
ATOM     14  N   UNL     1       1.034   3.419   0.010  0.00  0.00    -0.343 N 
ATOM     15  H   UNL     1       0.255   3.868   0.375  0.00  0.00    +0.144 HD
ATOM     16  H   UNL     1       1.770   3.938  -0.349  0.00  0.00    +0.144 HD
ENDROOT
BRANCH   1  17
ATOM     17  C   UNL     1      -1.267  -0.759   0.406  0.00  0.00    +0.308 C 
BRANCH  17  18
ATOM     18  O   UNL     1      -1.908  -1.004  -0.874  0.00  0.00    -0.454 OA
BRANCH  18  19
ATOM     19  C   UNL     1      -3.079  -1.674  -0.855  0.00  0.00    +0.333 C 
ATOM     20  O   UNL     1      -3.550  -2.044   0.203  0.00  0.00    -0.246 OA
BRANCH  19  22
ATOM     21  C   UNL     1      -4.953  -2.628  -2.090  0.00  0.00    +0.074 C 
ATOM     22  C   UNL     1      -3.782  -1.957  -2.109  0.00  0.00    +0.097 C 
BRANCH  21  30
ATOM     23  C   UNL     1      -8.313  -4.102  -6.776  0.00  0.00    +0.002 A 
ATOM     24  C   UNL     1      -7.315  -3.464  -7.499  0.00  0.00    +0.004 A 
ATOM     25  C   UNL     1      -6.231  -2.906  -6.855  0.00  0.00    +0.048 A 
ATOM     26  C   UNL     1      -6.136  -2.982  -5.474  0.00  0.00    +0.156 A 
ATOM     27  C   UNL     1      -7.148  -3.630  -4.740  0.00  0.00    +0.110 A 
ATOM     28  C   UNL     1      -8.239  -4.189  -5.415  0.00  0.00    +0.031 A 
ATOM     29  N   UNL     1      -6.797  -3.552  -3.441  0.00  0.00    -0.209 NA
ATOM     30  C   UNL     1      -5.658  -2.911  -3.346  0.00  0.00    +0.221 A 
ATOM     31  O   UNL     1      -5.232  -2.545  -4.571  0.00  0.00    -0.436 OA
ENDBRANCH  21  30
ENDBRANCH  19  22
ENDBRANCH  18  19
ENDBRANCH  17  18
ENDBRANCH   1  17
TORSDOF 5
