REMARK  Name = ZINC07888800
REMARK  9 active torsions:
REMARK  status: ('A' for Active; 'I' for Inactive)
REMARK    1  A    between atoms: C_1  and  C_2
REMARK    2  A    between atoms: C_2  and  C_3
REMARK    3  A    between atoms: C_2  and  C_4
REMARK    4  A    between atoms: C_2  and  C_5
REMARK    5  A    between atoms: N_13  and  C_17
REMARK    6  A    between atoms: C_17  and  C_18
REMARK    7  A    between atoms: C_18  and  O_20
REMARK    8  A    between atoms: O_20  and  C_21
REMARK    9  A    between atoms: C_21  and  C_22
REMARK                            x       y       z     vdW  Elec       q    Type
REMARK                         _______ _______ _______ _____ _____    ______ ____
ROOT
ATOM      1  C   UNL     1       1.282   4.683   0.015  0.00  0.00    -0.005 C 
ATOM      2  C   UNL     1       0.926   3.877  -1.236  0.00  0.00    +0.006 C 
ATOM      3  C   UNL     1       1.741   2.581  -1.255  0.00  0.00    +0.035 C 
ATOM      4  C   UNL     1       1.435   1.768  -0.002  0.00  0.00    +0.113 C 
ATOM      5  C   UNL     1       1.765   2.568   1.254  0.00  0.00    +0.035 C 
ATOM      6  C   UNL     1       0.951   3.864   1.264  0.00  0.00    +0.006 C 
ATOM      7  C   UNL     1      -0.016   1.345   0.009  0.00  0.00    +0.247 C 
ATOM      8  O   UNL     1      -0.991   2.066   0.018  0.00  0.00    -0.273 OA
ATOM      9  N   UNL     1       0.002  -0.004   0.002  0.00  0.00    -0.213 N 
ATOM     10  C   UNL     1       1.253  -0.480  -0.013  0.00  0.00    +0.310 C 
ATOM     11  O   UNL     1       1.526  -1.665  -0.021  0.00  0.00    -0.252 OA
ATOM     12  N   UNL     1       2.176   0.501  -0.016  0.00  0.00    -0.285 N 
ATOM     13  H   UNL     1       3.140   0.392  -0.026  0.00  0.00    +0.151 HD
ENDROOT
BRANCH   1  15
ATOM     14  C   UNL     1      -1.018   5.657   0.041  0.00  0.00    +0.011 C 
ATOM     15  C   UNL     1       0.477   5.984   0.030  0.00  0.00    -0.035 C 
ATOM     16  C   UNL     1       0.833   6.790   1.280  0.00  0.00    +0.011 C 
ATOM     17  C   UNL     1       0.810   6.804  -1.218  0.00  0.00    +0.011 C 
ENDBRANCH   1  15
BRANCH   9  18
ATOM     18  C   UNL     1      -1.198  -0.844   0.009  0.00  0.00    +0.238 C 
BRANCH  18  19
ATOM     19  C   UNL     1      -1.624  -1.124  -1.409  0.00  0.00    +0.326 C 
ATOM     20  O   UNL     1      -0.990  -0.669  -2.331  0.00  0.00    -0.249 OA
BRANCH  19  21
ATOM     21  O   UNL     1      -2.708  -1.879  -1.647  0.00  0.00    -0.459 OA
BRANCH  21  22
ATOM     22  C   UNL     1      -3.059  -2.108  -3.038  0.00  0.00    +0.267 C 
BRANCH  22  23
ATOM     23  C   UNL     1      -4.293  -2.970  -3.109  0.00  0.00    -0.010 A 
ATOM     24  C   UNL     1      -4.172  -4.346  -3.159  0.00  0.00    +0.008 A 
ATOM     25  C   UNL     1      -5.304  -5.138  -3.219  0.00  0.00    +0.020 A 
ATOM     26  C   UNL     1      -6.557  -4.552  -3.240  0.00  0.00    +0.041 A 
ATOM     27  C   UNL     1      -6.677  -3.175  -3.195  0.00  0.00    +0.020 A 
ATOM     28  C   UNL     1      -5.545  -2.384  -3.130  0.00  0.00    +0.008 A 
ATOM     29 CL   UNL     1      -7.978  -5.545  -3.321  0.00  0.00    -0.084 Cl
ENDBRANCH  22  23
ENDBRANCH  21  22
ENDBRANCH  19  21
ENDBRANCH  18  19
ENDBRANCH   9  18
TORSDOF 6
