REMARK  Name = ZINC65702116
REMARK  7 active torsions:
REMARK  status: ('A' for Active; 'I' for Inactive)
REMARK    1  A    between atoms: C_1  and  C_2
REMARK    2  A    between atoms: C_2  and  N_3
REMARK    3  A    between atoms: N_3  and  C_4
REMARK    4  A    between atoms: C_4  and  C_5
REMARK    5  A    between atoms: C_4  and  C_6
REMARK    6  A    between atoms: C_15  and  C_17
REMARK    7  A    between atoms: C_20  and  N_22
REMARK                            x       y       z     vdW  Elec       q    Type
REMARK                         _______ _______ _______ _____ _____    ______ ____
ROOT
ATOM      1  N   UNL     1      -1.317  -0.392  -0.155  0.00  0.00    -0.288 N 
ATOM      2  C   UNL     1      -2.030  -0.482   0.985  0.00  0.00    +0.254 C 
ATOM      3  O   UNL     1      -3.228  -0.691   0.939  0.00  0.00    -0.269 OA
ENDROOT
BRANCH   2   4
ATOM      4  C   UNL     1      -1.363  -0.328   2.281  0.00  0.00    +0.076 A 
ATOM      5  C   UNL     1      -1.910  -0.358   3.555  0.00  0.00    +0.023 A 
ATOM      6  C   UNL     1      -1.023  -0.182   4.590  0.00  0.00    +0.041 A 
ATOM      7  C   UNL     1       0.290   0.005   4.308  0.00  0.00    +0.164 A 
ATOM      8  S   UNL     1       0.365  -0.061   2.631  0.00  0.00    -0.060 S 
BRANCH   7   9
ATOM      9  N   UNL     1       1.404   0.213   5.260  0.00  0.00    +0.063 N 
ATOM     10  O   UNL     1       1.187   0.230   6.450  0.00  0.00    -0.126 OA
ATOM     11  O   UNL     1       2.530   0.366   4.849  0.00  0.00    -0.126 OA
ENDBRANCH   7   9
ENDBRANCH   2   4
BRANCH   1  13
ATOM     12  C   UNL     1       0.940  -1.283   0.149  0.00  0.00    +0.024 C 
ATOM     13  C   UNL     1       0.101  -0.029  -0.105  0.00  0.00    +0.105 C 
ENDBRANCH   1  13
BRANCH   1  14
ATOM     14  C   UNL     1      -1.960  -0.657  -1.444  0.00  0.00    +0.139 C 
ATOM     15  C   UNL     1      -1.153  -1.706  -2.211  0.00  0.00    +0.036 C 
BRANCH  14  16
ATOM     16  C   UNL     1      -2.020   0.617  -2.247  0.00  0.00    +0.126 A 
ATOM     17  C   UNL     1      -3.079   1.026  -2.959  0.00  0.00    +0.055 A 
ATOM     18  C   UNL     1      -2.692   2.304  -3.569  0.00  0.00    +0.020 A 
ATOM     19  C   UNL     1      -3.332   3.218  -4.406  0.00  0.00    +0.011 A 
ATOM     20  C   UNL     1      -2.672   4.346  -4.807  0.00  0.00    +0.001 A 
ATOM     21  C   UNL     1      -1.372   4.587  -4.386  0.00  0.00    +0.004 A 
ATOM     22  C   UNL     1      -0.724   3.695  -3.559  0.00  0.00    +0.047 A 
ATOM     23  C   UNL     1      -1.376   2.542  -3.140  0.00  0.00    +0.135 A 
ATOM     24  O   UNL     1      -1.020   1.510  -2.349  0.00  0.00    -0.458 OA
ENDBRANCH  14  16
ENDBRANCH   1  14
TORSDOF 5
