REMARK  Name = ZINC33366706
REMARK  4 active torsions:
REMARK  status: ('A' for Active; 'I' for Inactive)
REMARK    1  A    between atoms: C_6  and  C_7
REMARK    2  A    between atoms: C_7  and  N_8
REMARK    3  A    between atoms: C_9  and  C_11
REMARK    4  A    between atoms: C_22  and  C_24
REMARK                            x       y       z     vdW  Elec       q    Type
REMARK                         _______ _______ _______ _____ _____    ______ ____
ROOT
ATOM      1  C   UNL     1       1.214  -0.543   0.651  0.00  0.00    +0.028 C 
ATOM      2  C   UNL     1       2.459   0.206   0.087  0.00  0.00    +0.061 C 
ATOM      3  S   UNL     1       1.764   1.915  -0.004  0.00  0.00    -0.174 S 
ATOM      4  C   UNL     1      -0.018   1.474   0.010  0.00  0.00    -0.016 C 
ATOM      5  N   UNL     1       0.002  -0.004   0.002  0.00  0.00    +0.397 N 
ATOM      6  C   UNL     1      -0.671   2.003   1.278  0.00  0.00    +0.017 C 
ATOM      7  C   UNL     1      -2.150   1.600   1.297  0.00  0.00    +0.107 C 
ATOM      8  N   UNL     1      -2.773   2.036   0.040  0.00  0.00    -0.301 N 
ATOM      9  C   UNL     1      -2.174   1.613  -1.234  0.00  0.00    +0.107 C 
ATOM     10  C   UNL     1      -0.695   2.016  -1.239  0.00  0.00    +0.017 C 
ATOM     11  C   UNL     1      -3.876   2.811   0.054  0.00  0.00    +0.219 C 
ATOM     12  O   UNL     1      -4.382   3.165  -0.989  0.00  0.00    -0.275 OA
ATOM     13  H   UNL     1      -0.035  -0.343  -1.044  0.00  0.00    -0.083 HD
ATOM     14  H   UNL     1      -0.890  -0.363   0.536  0.00  0.00    -0.083 HD
ENDROOT
BRANCH  11  15
ATOM     15  C   UNL     1      -4.479   3.238   1.368  0.00  0.00    +0.075 C 
ATOM     16  C   UNL     1      -4.944   2.000   2.163  0.00  0.00    +0.013 C 
ATOM     17  C   UNL     1      -6.253   2.461   2.851  0.00  0.00    +0.001 C 
ATOM     18  C   UNL     1      -6.914   3.350   1.769  0.00  0.00    +0.001 C 
ATOM     19  C   UNL     1      -5.731   4.096   1.118  0.00  0.00    +0.013 C 
ENDBRANCH  11  15
BRANCH   1  21
ATOM     20  N   UNL     1       2.371  -2.720   0.852  0.00  0.00    -0.313 N 
ATOM     21  C   UNL     1       1.333  -2.016   0.358  0.00  0.00    +0.200 C 
ATOM     22  O   UNL     1       0.495  -2.569  -0.323  0.00  0.00    -0.278 OA
ATOM     23  H   UNL     1       3.131  -2.219   1.470  0.00  0.00    +0.149 HD
BRANCH  20  24
ATOM     24  C   UNL     1       2.487  -4.152   0.567  0.00  0.00    +0.139 C 
BRANCH  24  30
ATOM     25  C   UNL     1       3.654  -5.195   2.519  0.00  0.00    +0.009 A 
ATOM     26  C   UNL     1       4.787  -5.696   3.133  0.00  0.00    +0.050 A 
ATOM     27  C   UNL     1       5.997  -5.702   2.457  0.00  0.00    +0.166 A 
ATOM     28  C   UNL     1       6.068  -5.201   1.159  0.00  0.00    +0.167 A 
ATOM     29  C   UNL     1       4.927  -4.705   0.549  0.00  0.00    +0.054 A 
ATOM     30  C   UNL     1       3.725  -4.698   1.231  0.00  0.00    -0.027 A 
ATOM     31  O   UNL     1       7.354  -5.316   0.717  0.00  0.00    -0.453 OA
ATOM     32  C   UNL     1       8.151  -5.514   1.900  0.00  0.00    +0.466 C 
ATOM     33  O   UNL     1       7.239  -6.130   2.828  0.00  0.00    -0.453 OA
ENDBRANCH  24  30
ENDBRANCH  20  24
ENDBRANCH   1  21
TORSDOF 4
