REMARK  Name = ZINC59170460
REMARK  9 active torsions:
REMARK  status: ('A' for Active; 'I' for Inactive)
REMARK    1  A    between atoms: C_1  and  C_2
REMARK    2  A    between atoms: C_5  and  S_8
REMARK    3  A    between atoms: S_8  and  N_11
REMARK    4  A    between atoms: N_11  and  N_12
REMARK    5  A    between atoms: C_14  and  C_25
REMARK    6  A    between atoms: C_20  and  O_23
REMARK    7  A    between atoms: O_23  and  C_24
REMARK    8  A    between atoms: N_27  and  C_28
REMARK    9  A    between atoms: C_33  and  C_34
REMARK                            x       y       z     vdW  Elec       q    Type
REMARK                         _______ _______ _______ _____ _____    ______ ____
ROOT
ATOM      1  N   UNL     1       2.930  -3.930   0.130  0.00  0.00    -0.260 N 
ATOM      2  C   UNL     1       4.145  -4.399   0.167  0.00  0.00    +0.225 A 
ATOM      3  C   UNL     1       4.985  -4.250   1.377  0.00  0.00    +0.099 A 
ATOM      4  C   UNL     1       5.968  -5.189   1.579  0.00  0.00    +0.030 A 
ATOM      5  C   UNL     1       6.104  -6.258   0.582  0.00  0.00    +0.022 A 
ATOM      6  C   UNL     1       6.887  -7.386   0.848  0.00  0.00    +0.012 A 
ATOM      7  C   UNL     1       6.999  -8.380  -0.100  0.00  0.00    +0.004 A 
ATOM      8  C   UNL     1       6.340  -8.268  -1.314  0.00  0.00    +0.049 A 
ATOM      9  C   UNL     1       5.561  -7.156  -1.593  0.00  0.00    +0.163 A 
ATOM     10  C   UNL     1       5.438  -6.144  -0.649  0.00  0.00    +0.179 A 
ATOM     11  O   UNL     1       4.682  -5.049  -0.907  0.00  0.00    -0.434 OA
ATOM     12  H   UNL     1       2.535  -3.542   0.926  0.00  0.00    +0.189 HD
ENDROOT
BRANCH   3  13
ATOM     13  C   UNL     1       4.776  -3.143   2.325  0.00  0.00    +0.253 C 
ATOM     14  O   UNL     1       3.855  -2.366   2.158  0.00  0.00    -0.270 OA
ATOM     15  N   UNL     1       5.605  -2.990   3.376  0.00  0.00    -0.281 N 
ATOM     16  H   UNL     1       6.378  -3.568   3.473  0.00  0.00    +0.155 HD
BRANCH  15  17
ATOM     17  C   UNL     1       5.351  -1.998   4.328  0.00  0.00    +0.037 A 
ATOM     18  C   UNL     1       4.078  -1.454   4.444  0.00  0.00    +0.023 A 
ATOM     19  C   UNL     1       3.830  -0.475   5.386  0.00  0.00    +0.002 A 
ATOM     20  C   UNL     1       4.848  -0.035   6.213  0.00  0.00    +0.000 A 
ATOM     21  C   UNL     1       6.116  -0.574   6.100  0.00  0.00    +0.005 A 
ATOM     22  C   UNL     1       6.369  -1.558   5.164  0.00  0.00    -0.029 A 
ATOM     23  C   UNL     1       7.750  -2.149   5.046  0.00  0.00    +0.045 C 
ENDBRANCH  15  17
ENDBRANCH   3  13
BRANCH   1  24
ATOM     24  N   UNL     1       2.193  -3.985  -1.061  0.00  0.00    -0.157 N 
ATOM     25  H   UNL     1       2.559  -4.438  -1.837  0.00  0.00    +0.194 HD
BRANCH  24  26
ATOM     26  S   UNL     1       0.699  -3.276  -1.144  0.00  0.00    +0.085 S 
ATOM     27  O   UNL     1      -0.052  -3.784  -0.050  0.00  0.00    -0.149 OA
ATOM     28  O   UNL     1       0.264  -3.402  -2.491  0.00  0.00    -0.149 OA
BRANCH  26  33
ATOM     29  C   UNL     1       1.458   2.621  -0.122  0.00  0.00    +0.044 C 
ATOM     30  C   UNL     1       1.269   1.148  -0.377  0.00  0.00    -0.050 A 
ATOM     31  C   UNL     1       1.445   0.639  -1.650  0.00  0.00    +0.005 A 
ATOM     32  C   UNL     1       1.271  -0.712  -1.884  0.00  0.00    +0.029 A 
ATOM     33  C   UNL     1       0.922  -1.554  -0.845  0.00  0.00    +0.110 A 
ATOM     34  C   UNL     1       0.747  -1.045   0.428  0.00  0.00    +0.029 A 
ATOM     35  C   UNL     1       0.925   0.305   0.663  0.00  0.00    +0.005 A 
ENDBRANCH  26  33
ENDBRANCH  24  26
ENDBRANCH   1  24
BRANCH   9  36
ATOM     36  O   UNL     1       4.919  -7.056  -2.787  0.00  0.00    -0.491 OA
ATOM     37  C   UNL     1       5.091  -8.134  -3.709  0.00  0.00    +0.277 C 
ENDBRANCH   9  36
TORSDOF 6
