REMARK  Name = ZINC33428823
REMARK  7 active torsions:
REMARK  status: ('A' for Active; 'I' for Inactive)
REMARK    1  A    between atoms: C_1  and  O_2
REMARK    2  A    between atoms: O_2  and  C_3
REMARK    3  A    between atoms: C_6  and  C_9
REMARK    4  A    between atoms: N_14  and  N_15
REMARK    5  A    between atoms: C_16  and  C_17
REMARK    6  A    between atoms: C_20  and  O_24
REMARK    7  A    between atoms: C_22  and  O_23
REMARK                            x       y       z     vdW  Elec       q    Type
REMARK                         _______ _______ _______ _____ _____    ______ ____
ROOT
ATOM      1  C   UNL     1       6.574  -3.654  -1.485  0.00  0.00    +0.055 A 
ATOM      2  C   UNL     1       6.210  -4.930  -1.809  0.00  0.00    +0.075 A 
ATOM      3  S   UNL     1       4.446  -4.855  -1.524  0.00  0.00    -0.056 S 
ATOM      4  C   UNL     1       4.375  -3.143  -1.014  0.00  0.00    +0.192 A 
ATOM      5  N   UNL     1       5.647  -2.792  -1.095  0.00  0.00    -0.332 N 
ATOM      6  N   UNL     1       3.280  -2.388  -0.632  0.00  0.00    -0.124 NA
ATOM      7  H   UNL     1       5.929  -1.762  -0.832  0.00  0.00    +0.168 HD
ENDROOT
BRANCH   1  11
ATOM      8  C   UNL     1      10.650  -2.459  -1.722  0.00  0.00    +0.120 A 
ATOM      9  C   UNL     1       9.684  -1.550  -1.313  0.00  0.00    +0.046 A 
ATOM     10  C   UNL     1       8.362  -1.934  -1.235  0.00  0.00    +0.013 A 
ATOM     11  C   UNL     1       7.995  -3.237  -1.567  0.00  0.00    -0.001 A 
ATOM     12  C   UNL     1       8.968  -4.150  -1.972  0.00  0.00    +0.013 A 
ATOM     13  C   UNL     1      10.288  -3.758  -2.054  0.00  0.00    +0.046 A 
BRANCH   8  15
ATOM     14  C   UNL     1      12.893  -3.064  -2.226  0.00  0.00    +0.277 C 
ATOM     15  O   UNL     1      11.952  -2.078  -1.798  0.00  0.00    -0.495 OA
ENDBRANCH   8  15
ENDBRANCH   1  11
BRANCH   6  16
ATOM     16  N   UNL     1       2.003  -2.963  -0.617  0.00  0.00    -0.154 NA
ATOM     17  C   UNL     1       0.961  -2.225  -0.380  0.00  0.00    +0.146 C 
BRANCH  17  18
ATOM     18  C   UNL     1       1.025  -0.769  -0.598  0.00  0.00    +0.036 A 
ATOM     19  C   UNL     1       1.951  -0.235  -1.497  0.00  0.00    +0.016 A 
ATOM     20  C   UNL     1       2.008   1.127  -1.698  0.00  0.00    +0.046 A 
ATOM     21  C   UNL     1       1.146   1.972  -1.010  0.00  0.00    +0.120 A 
ATOM     22  C   UNL     1       0.222   1.451  -0.115  0.00  0.00    +0.091 A 
ATOM     23  C   UNL     1       0.156   0.085   0.095  0.00  0.00    +0.129 A 
BRANCH  23  24
ATOM     24  O   UNL     1      -0.748  -0.427   0.971  0.00  0.00    -0.506 OA
ATOM     25  H   UNL     1      -1.429   0.245   1.514  0.00  0.00    +0.292 HD
ENDBRANCH  23  24
BRANCH  21  26
ATOM     26  O   UNL     1       1.207   3.314  -1.213  0.00  0.00    -0.507 OA
ATOM     27  H   UNL     1       0.526   3.985  -0.669  0.00  0.00    +0.292 HD
ENDBRANCH  21  26
ENDBRANCH  17  18
ENDBRANCH   6  16
TORSDOF 6
