REMARK  Name = ZINC36605095
REMARK  10 active torsions:
REMARK  status: ('A' for Active; 'I' for Inactive)
REMARK    1  A    between atoms: C_1  and  C_2
REMARK    2  A    between atoms: C_3  and  C_4
REMARK    3  A    between atoms: C_4  and  C_6
REMARK    4  A    between atoms: C_4  and  N_15
REMARK    5  A    between atoms: N_8  and  C_9
REMARK    6  A    between atoms: N_15  and  C_16
REMARK    7  A    between atoms: C_22  and  C_24
REMARK    8  A    between atoms: C_24  and  C_25
REMARK    9  A    between atoms: C_25  and  C_26
REMARK   10  A    between atoms: C_25  and  C_27
REMARK                            x       y       z     vdW  Elec       q    Type
REMARK                         _______ _______ _______ _____ _____    ______ ____
ROOT
ATOM      1  C   UNL     1      -1.161  -2.211  -0.239  0.00  0.00    +0.190 C 
ENDROOT
BRANCH   1   2
ATOM      2  C   UNL     1      -2.043  -2.700  -1.358  0.00  0.00    +0.238 C 
ATOM      3  O   UNL     1      -1.655  -3.582  -2.095  0.00  0.00    -0.273 OA
ATOM      4  N   UNL     1      -3.263  -2.158  -1.541  0.00  0.00    -0.311 N 
ATOM      5  H   UNL     1      -3.574  -1.453  -0.952  0.00  0.00    +0.149 HD
BRANCH   4   6
ATOM      6  C   UNL     1      -4.121  -2.634  -2.629  0.00  0.00    +0.073 C 
ATOM      7  C   UNL     1      -3.762  -1.897  -3.921  0.00  0.00    +0.022 C 
ATOM      8  C   UNL     1      -4.657  -2.394  -5.058  0.00  0.00    +0.002 C 
ATOM      9  C   UNL     1      -6.122  -2.125  -4.707  0.00  0.00    +0.000 C 
ATOM     10  C   UNL     1      -6.481  -2.862  -3.416  0.00  0.00    +0.002 C 
ATOM     11  C   UNL     1      -5.586  -2.365  -2.279  0.00  0.00    +0.022 C 
ENDBRANCH   4   6
ENDBRANCH   1   2
BRANCH   1  14
ATOM     12  C   UNL     1       0.628   1.149  -0.751  0.00  0.00    +0.035 C 
ATOM     13  C   UNL     1       0.350  -0.321  -0.566  0.00  0.00    -0.032 C 
ATOM     14  C   UNL     1      -0.883  -0.741  -0.424  0.00  0.00    +0.000 C 
ENDBRANCH   1  14
BRANCH   1  15
ATOM     15  N   UNL     1       0.102  -2.952  -0.252  0.00  0.00    -0.256 N 
ATOM     16  C   UNL     1       0.468  -3.681   0.821  0.00  0.00    +0.221 C 
ATOM     17  O   UNL     1      -0.243  -3.712   1.803  0.00  0.00    -0.275 OA
BRANCH  15  18
ATOM     18  C   UNL     1       0.929  -2.905  -1.380  0.00  0.00    +0.037 A 
ATOM     19  C   UNL     1       2.285  -3.184  -1.261  0.00  0.00    +0.023 A 
ATOM     20  C   UNL     1       3.098  -3.137  -2.376  0.00  0.00    +0.002 A 
ATOM     21  C   UNL     1       2.565  -2.811  -3.610  0.00  0.00    +0.000 A 
ATOM     22  C   UNL     1       1.216  -2.533  -3.732  0.00  0.00    +0.002 A 
ATOM     23  C   UNL     1       0.396  -2.584  -2.621  0.00  0.00    +0.023 A 
ENDBRANCH  15  18
BRANCH  16  24
ATOM     24  C   UNL     1       1.760  -4.456   0.801  0.00  0.00    +0.099 C 
BRANCH  24  25
ATOM     25  C   UNL     1       1.641  -5.670   1.725  0.00  0.00    -0.008 C 
ATOM     26  C   UNL     1       0.584  -6.629   1.173  0.00  0.00    +0.008 C 
ATOM     27  C   UNL     1       2.990  -6.386   1.802  0.00  0.00    +0.008 C 
ENDBRANCH  24  25
ENDBRANCH  16  24
ENDBRANCH   1  15
TORSDOF 7
