REMARK  Name = ZINC13896423
REMARK  9 active torsions:
REMARK  status: ('A' for Active; 'I' for Inactive)
REMARK    1  A    between atoms: C_1  and  C_2
REMARK    2  A    between atoms: C_2  and  C_28
REMARK    3  A    between atoms: N_3  and  N_4
REMARK    4  A    between atoms: C_5  and  C_7
REMARK    5  A    between atoms: C_7  and  S_8
REMARK    6  A    between atoms: S_8  and  C_9
REMARK    7  A    between atoms: C_12  and  C_21
REMARK    8  A    between atoms: N_13  and  C_14
REMARK    9  A    between atoms: C_33  and  O_34
REMARK                            x       y       z     vdW  Elec       q    Type
REMARK                         _______ _______ _______ _____ _____    ______ ____
ROOT
ATOM      1  C   UNL     1      -0.959  -6.507   3.852  0.00  0.00    +0.197 A 
ATOM      2  N   UNL     1      -0.960  -7.190   2.729  0.00  0.00    -0.122 NA
ATOM      3  N   UNL     1      -1.133  -8.440   2.972  0.00  0.00    -0.128 NA
ATOM      4  C   UNL     1      -1.252  -8.635   4.265  0.00  0.00    +0.169 A 
ATOM      5  N   UNL     1      -1.138  -7.403   4.871  0.00  0.00    -0.270 N 
ENDROOT
BRANCH   5   6
ATOM      6  C   UNL     1      -1.197  -7.125   6.244  0.00  0.00    +0.051 A 
ATOM      7  C   UNL     1      -0.212  -7.608   7.094  0.00  0.00    +0.028 A 
ATOM      8  C   UNL     1      -0.272  -7.333   8.446  0.00  0.00    +0.022 A 
ATOM      9  C   UNL     1      -1.313  -6.575   8.953  0.00  0.00    +0.041 A 
ATOM     10  C   UNL     1      -2.296  -6.093   8.108  0.00  0.00    +0.022 A 
ATOM     11  C   UNL     1      -2.238  -6.361   6.754  0.00  0.00    +0.028 A 
ATOM     12 CL   UNL     1      -1.386  -6.231  10.653  0.00  0.00    -0.084 Cl
ENDBRANCH   5   6
BRANCH   4  13
ATOM     13  C   UNL     1      -1.462  -9.932   4.942  0.00  0.00    +0.020 A 
ATOM     14  C   UNL     1      -1.886  -9.967   6.272  0.00  0.00    +0.013 A 
ATOM     15  C   UNL     1      -2.081 -11.180   6.898  0.00  0.00    +0.021 A 
ATOM     16  C   UNL     1      -1.857 -12.361   6.212  0.00  0.00    +0.041 A 
ATOM     17  C   UNL     1      -1.436 -12.333   4.893  0.00  0.00    +0.021 A 
ATOM     18  C   UNL     1      -1.243 -11.126   4.253  0.00  0.00    +0.013 A 
ATOM     19 CL   UNL     1      -2.104 -13.884   7.007  0.00  0.00    -0.084 Cl
ENDBRANCH   4  13
BRANCH   1  20
ATOM     20  S   UNL     1      -0.755  -4.765   4.016  0.00  0.00    -0.076 S 
BRANCH  20  21
ATOM     21  C   UNL     1      -0.568  -4.182   2.308  0.00  0.00    +0.174 C 
BRANCH  21  23
ATOM     22  N   UNL     1      -0.223  -2.030   1.139  0.00  0.00    -0.206 N 
ATOM     23  C   UNL     1      -0.383  -2.687   2.305  0.00  0.00    +0.242 C 
ATOM     24  O   UNL     1      -0.379  -2.074   3.352  0.00  0.00    -0.273 OA
ATOM     25  H   UNL     1      -0.227  -2.520   0.302  0.00  0.00    +0.177 HD
BRANCH  22  28
ATOM     26  C   UNL     1       0.090   1.510   0.009  0.00  0.00    +0.068 C 
ATOM     27  C   UNL     1      -0.005   0.006   0.011  0.00  0.00    +0.067 C 
ATOM     28  N   UNL     1      -0.052  -0.639   1.136  0.00  0.00    -0.184 NA
BRANCH  27  29
ATOM     29  C   UNL     1      -0.045  -0.731  -1.264  0.00  0.00    +0.039 A 
ATOM     30  C   UNL     1      -1.191  -1.442  -1.629  0.00  0.00    +0.013 A 
ATOM     31  C   UNL     1      -1.222  -2.130  -2.824  0.00  0.00    +0.001 A 
ATOM     32  C   UNL     1      -0.121  -2.119  -3.664  0.00  0.00    +0.004 A 
ATOM     33  C   UNL     1       1.018  -1.420  -3.314  0.00  0.00    +0.046 A 
ATOM     34  C   UNL     1       1.065  -0.719  -2.120  0.00  0.00    +0.126 A 
BRANCH  34  35
ATOM     35  O   UNL     1       2.182  -0.027  -1.778  0.00  0.00    -0.506 OA
ATOM     36  H   UNL     1       2.791  -0.520  -1.211  0.00  0.00    +0.292 HD
ENDBRANCH  34  35
ENDBRANCH  27  29
ENDBRANCH  22  28
ENDBRANCH  21  23
ENDBRANCH  20  21
ENDBRANCH   1  20
TORSDOF 8
