REMARK  Name = ZINC02394658
REMARK  6 active torsions:
REMARK  status: ('A' for Active; 'I' for Inactive)
REMARK    1  A    between atoms: C_1  and  C_2
REMARK    2  A    between atoms: C_7  and  C_8
REMARK    3  A    between atoms: C_16  and  C_17
REMARK    4  A    between atoms: C_20  and  N_23
REMARK    5  A    between atoms: N_23  and  C_24
REMARK    6  A    between atoms: N_23  and  C_25
REMARK                            x       y       z     vdW  Elec       q    Type
REMARK                         _______ _______ _______ _____ _____    ______ ____
ROOT
ATOM      1  C   UNL     1      -1.583  -0.427   2.378  0.00  0.00    +0.172 A 
ATOM      2  N   UNL     1      -2.034   0.798   2.479  0.00  0.00    -0.128 NA
ATOM      3  N   UNL     1      -2.068   1.157   3.714  0.00  0.00    -0.121 NA
ATOM      4  C   UNL     1      -1.641   0.185   4.466  0.00  0.00    +0.204 A 
ATOM      5  N   UNL     1      -1.311  -0.885   3.671  0.00  0.00    -0.235 N 
ATOM      6  C   UNL     1      -0.851  -2.001   4.249  0.00  0.00    +0.273 A 
ATOM      7  O   UNL     1      -0.543  -2.972   3.583  0.00  0.00    -0.266 OA
ATOM      8  C   UNL     1      -0.730  -2.013   5.713  0.00  0.00    +0.081 A 
ATOM      9  C   UNL     1      -0.296  -3.005   6.536  0.00  0.00    +0.028 C 
ATOM     10  S   UNL     1      -1.298  -0.368   6.119  0.00  0.00    -0.044 S 
ENDROOT
BRANCH   1  17
ATOM     11  C   UNL     1      -3.683  -0.433   0.388  0.00  0.00    +0.044 C 
ATOM     12  C   UNL     1      -2.406  -1.200   0.159  0.00  0.00    -0.040 A 
ATOM     13  C   UNL     1      -2.226  -1.909  -1.011  0.00  0.00    +0.004 A 
ATOM     14  C   UNL     1      -1.055  -2.614  -1.223  0.00  0.00    +0.000 A 
ATOM     15  C   UNL     1      -0.056  -2.613  -0.265  0.00  0.00    +0.001 A 
ATOM     16  C   UNL     1      -0.223  -1.909   0.908  0.00  0.00    +0.012 A 
ATOM     17  C   UNL     1      -1.400  -1.190   1.127  0.00  0.00    +0.023 A 
ENDBRANCH   1  17
BRANCH   9  18
ATOM     18  C   UNL     1      -0.448  -2.872   7.989  0.00  0.00    -0.024 A 
ATOM     19  C   UNL     1      -1.195  -1.814   8.524  0.00  0.00    +0.010 A 
ATOM     20  C   UNL     1      -1.333  -1.693   9.882  0.00  0.00    +0.023 A 
ATOM     21  C   UNL     1      -0.733  -2.619  10.730  0.00  0.00    +0.029 A 
ATOM     22  C   UNL     1       0.012  -3.672  10.204  0.00  0.00    +0.023 A 
ATOM     23  C   UNL     1       0.151  -3.804   8.847  0.00  0.00    +0.010 A 
BRANCH  21  24
ATOM     24  N   UNL     1      -0.876  -2.492  12.109  0.00  0.00    -0.336 N 
ATOM     25  C   UNL     1      -1.658  -1.386  12.665  0.00  0.00    +0.129 C 
ATOM     26  C   UNL     1      -0.244  -3.466  13.004  0.00  0.00    +0.129 C 
ENDBRANCH  21  24
ENDBRANCH   9  18
TORSDOF 3
