REMARK  Name = ZINC09850704
REMARK  15 active torsions:
REMARK  status: ('A' for Active; 'I' for Inactive)
REMARK    1  A    between atoms: C_1  and  C_2
REMARK    2  A    between atoms: C_2  and  C_3
REMARK    3  A    between atoms: C_8  and  N_9
REMARK    4  A    between atoms: C_10  and  C_12
REMARK    5  A    between atoms: C_12  and  S_13
REMARK    6  A    between atoms: S_13  and  C_14
REMARK    7  A    between atoms: C_17  and  C_21
REMARK    8  A    between atoms: N_18  and  C_19
REMARK    9  A    between atoms: C_19  and  C_20
REMARK   10  A    between atoms: C_21  and  C_23
REMARK   11  A    between atoms: C_21  and  N_27
REMARK   12  A    between atoms: C_23  and  C_24
REMARK   13  A    between atoms: C_24  and  C_25
REMARK   14  A    between atoms: C_24  and  C_26
REMARK   15  A    between atoms: C_28  and  C_30
REMARK                            x       y       z     vdW  Elec       q    Type
REMARK                         _______ _______ _______ _____ _____    ______ ____
ROOT
ATOM      1  C   UNL     1      -1.341  -6.008   3.013  0.00  0.00    +0.192 A 
ATOM      2  N   UNL     1      -0.294  -6.030   2.220  0.00  0.00    -0.122 NA
ATOM      3  N   UNL     1      -0.438  -5.163   1.282  0.00  0.00    -0.132 NA
ATOM      4  C   UNL     1      -1.571  -4.535   1.424  0.00  0.00    +0.155 A 
ATOM      5  N   UNL     1      -2.188  -5.052   2.529  0.00  0.00    -0.305 N 
ENDROOT
BRANCH   5   6
ATOM      6  C   UNL     1      -3.489  -4.663   3.080  0.00  0.00    +0.122 C 
ATOM      7  C   UNL     1      -4.578  -5.569   2.503  0.00  0.00    +0.027 C 
ENDBRANCH   5   6
BRANCH   1   8
ATOM      8  S   UNL     1      -1.603  -7.019   4.431  0.00  0.00    -0.077 S 
BRANCH   8   9
ATOM      9  C   UNL     1      -0.079  -7.995   4.408  0.00  0.00    +0.173 C 
BRANCH   9  11
ATOM     10  N   UNL     1       0.962  -9.793   5.751  0.00  0.00    -0.285 N 
ATOM     11  C   UNL     1      -0.081  -8.959   5.566  0.00  0.00    +0.227 C 
ATOM     12  O   UNL     1      -1.021  -8.984   6.332  0.00  0.00    -0.275 OA
ATOM     13  H   UNL     1       1.741  -9.729   5.177  0.00  0.00    +0.155 HD
BRANCH  10  19
ATOM     14  C   UNL     1       1.655 -11.922   6.655  0.00  0.00    -0.026 A 
ATOM     15  C   UNL     1       1.611 -12.866   7.663  0.00  0.00    +0.005 A 
ATOM     16  C   UNL     1       0.835 -12.644   8.786  0.00  0.00    +0.000 A 
ATOM     17  C   UNL     1       0.102 -11.478   8.904  0.00  0.00    +0.002 A 
ATOM     18  C   UNL     1       0.145 -10.528   7.902  0.00  0.00    +0.023 A 
ATOM     19  C   UNL     1       0.919 -10.751   6.770  0.00  0.00    +0.037 A 
BRANCH  14  21
ATOM     20  C   UNL     1       3.866 -11.499   5.616  0.00  0.00    +0.009 C 
ATOM     21  C   UNL     1       2.501 -12.165   5.431  0.00  0.00    +0.033 C 
ENDBRANCH  14  21
ENDBRANCH  10  19
ENDBRANCH   9  11
ENDBRANCH   8   9
ENDBRANCH   1   8
BRANCH   4  22
ATOM     22  C   UNL     1      -2.104  -3.443   0.532  0.00  0.00    +0.142 C 
BRANCH  22  23
ATOM     23  N   UNL     1      -1.105  -2.378   0.413  0.00  0.00    -0.301 N 
ATOM     24  C   UNL     1      -1.497  -1.107   0.195  0.00  0.00    +0.246 C 
ATOM     25  O   UNL     1      -2.672  -0.858   0.005  0.00  0.00    -0.270 OA
ATOM     26  H   UNL     1      -0.161  -2.587   0.492  0.00  0.00    +0.150 HD
BRANCH  24  27
ATOM     27  C   UNL     1      -0.500  -0.017   0.186  0.00  0.00    +0.055 A 
ATOM     28  C   UNL     1       0.850  -0.300   0.403  0.00  0.00    +0.014 A 
ATOM     29  C   UNL     1       1.776   0.722   0.392  0.00  0.00    +0.001 A 
ATOM     30  C   UNL     1       1.370   2.026   0.167  0.00  0.00    +0.001 A 
ATOM     31  C   UNL     1       0.035   2.315  -0.048  0.00  0.00    +0.021 A 
ATOM     32  C   UNL     1      -0.903   1.301  -0.041  0.00  0.00    +0.053 A 
ATOM     33 CL   UNL     1      -2.578   1.663  -0.319  0.00  0.00    -0.083 Cl
ENDBRANCH  24  27
ENDBRANCH  22  23
BRANCH  22  34
ATOM     34  C   UNL     1      -2.404  -4.018  -0.853  0.00  0.00    +0.033 C 
BRANCH  34  35
ATOM     35  C   UNL     1      -3.564  -5.010  -0.754  0.00  0.00    -0.015 C 
ATOM     36  C   UNL     1      -4.847  -4.259  -0.389  0.00  0.00    +0.007 C 
ATOM     37  C   UNL     1      -3.751  -5.714  -2.099  0.00  0.00    +0.007 C 
ENDBRANCH  34  35
ENDBRANCH  22  34
ENDBRANCH   4  22
TORSDOF 11
