REMARK  Name = ZINC22824170
REMARK  9 active torsions:
REMARK  status: ('A' for Active; 'I' for Inactive)
REMARK    1  A    between atoms: C_1  and  O_2
REMARK    2  A    between atoms: O_2  and  C_3
REMARK    3  A    between atoms: C_5  and  C_13
REMARK    4  A    between atoms: C_7  and  O_11
REMARK    5  A    between atoms: C_8  and  O_9
REMARK    6  A    between atoms: O_9  and  C_10
REMARK    7  A    between atoms: O_11  and  C_12
REMARK    8  A    between atoms: C_18  and  C_30
REMARK    9  A    between atoms: C_23  and  C_25
REMARK                            x       y       z     vdW  Elec       q    Type
REMARK                         _______ _______ _______ _____ _____    ______ ____
ROOT
ATOM      1  C   UNL     1       1.367  -4.195   3.771  0.00  0.00    +0.032 C 
ATOM      2  C   UNL     1      -0.019  -3.727   3.323  0.00  0.00    +0.060 C 
ATOM      3  C   UNL     1       0.044  -3.249   1.891  0.00  0.00    +0.020 C 
ATOM      4  C   UNL     1       1.165  -2.680   1.400  0.00  0.00    +0.042 C 
ATOM      5  C   UNL     1       1.251  -2.168  -0.021  0.00  0.00    +0.194 C 
ATOM      6  N   UNL     1       0.128  -2.671  -0.802  0.00  0.00    -0.219 N 
ATOM      7  C   UNL     1      -0.966  -3.251  -0.248  0.00  0.00    +0.219 A 
ATOM      8  N   UNL     1      -1.780  -3.579  -1.214  0.00  0.00    -0.189 NA
ATOM      9  C   UNL     1      -1.244  -3.233  -2.388  0.00  0.00    +0.256 A 
ATOM     10  N   UNL     1      -0.076  -2.676  -2.181  0.00  0.00    -0.143 NA
ATOM     11  N   UNL     1      -1.083  -3.415   1.122  0.00  0.00    -0.287 N 
ATOM     12  C   UNL     1       2.313  -2.539   2.200  0.00  0.00    +0.164 C 
ATOM     13  O   UNL     1       3.304  -2.014   1.730  0.00  0.00    -0.292 OA
ATOM     14  C   UNL     1       2.343  -3.023   3.622  0.00  0.00    +0.088 C 
ATOM     15  H   UNL     1      -2.041  -3.670   1.598  0.00  0.00    +0.155 HD
ENDROOT
BRANCH   1  18
ATOM     16  C   UNL     1       1.599  -6.338   6.875  0.00  0.00    +0.165 A 
ATOM     17  C   UNL     1       1.646  -5.931   5.550  0.00  0.00    +0.053 A 
ATOM     18  C   UNL     1       1.315  -4.633   5.212  0.00  0.00    -0.036 A 
ATOM     19  C   UNL     1       0.941  -3.733   6.192  0.00  0.00    +0.053 A 
ATOM     20  C   UNL     1       0.885  -4.133   7.519  0.00  0.00    +0.165 A 
ATOM     21  C   UNL     1       1.218  -5.438   7.863  0.00  0.00    +0.204 A 
BRANCH  16  23
ATOM     22  C   UNL     1       2.309  -8.486   6.140  0.00  0.00    +0.277 C 
ATOM     23  O   UNL     1       1.926  -7.616   7.207  0.00  0.00    -0.491 OA
ENDBRANCH  16  23
BRANCH  21  24
ATOM     24  O   UNL     1       1.171  -5.833   9.165  0.00  0.00    -0.488 OA
ATOM     25  C   UNL     1       2.364  -5.672   9.935  0.00  0.00    +0.277 C 
ENDBRANCH  21  24
BRANCH  20  26
ATOM     26  O   UNL     1       0.512  -3.249   8.482  0.00  0.00    -0.491 OA
ATOM     27  C   UNL     1       0.184  -1.925   8.055  0.00  0.00    +0.277 C 
ENDBRANCH  20  26
ENDBRANCH   1  18
BRANCH   5  28
ATOM     28  C   UNL     1       1.218  -0.661  -0.013  0.00  0.00    +0.070 A 
ATOM     29  C   UNL     1       0.002  -0.004   0.002  0.00  0.00    +0.026 A 
ATOM     30  C   UNL     1      -0.017   1.382   0.010  0.00  0.00    +0.003 A 
ATOM     31  C   UNL     1       1.194   2.059   0.002  0.00  0.00    +0.020 A 
ATOM     32  C   UNL     1       2.370   1.334  -0.014  0.00  0.00    +0.111 A 
ATOM     33  N   UNL     1       2.350   0.015  -0.021  0.00  0.00    -0.257 NA
ENDBRANCH   5  28
BRANCH   9  34
ATOM     34  C   UNL     1      -1.881  -3.450  -3.737  0.00  0.00    +0.454 C 
ATOM     35  F   UNL     1      -1.789  -4.802  -4.084  0.00  0.00    -0.163 F 
ATOM     36  F   UNL     1      -3.227  -3.072  -3.683  0.00  0.00    -0.163 F 
ATOM     37  F   UNL     1      -1.218  -2.676  -4.696  0.00  0.00    -0.163 F 
ENDBRANCH   9  34
TORSDOF 6
