REMARK  Name = ZINC03953782
REMARK  1 active torsions:
REMARK  status: ('A' for Active; 'I' for Inactive)
REMARK    1  A    between atoms: C_6  and  N_7
REMARK                            x       y       z     vdW  Elec       q    Type
REMARK                         _______ _______ _______ _____ _____    ______ ____
ROOT
ATOM      1  N   UNL     1       2.402   1.107  -0.014  0.00  0.00    -0.266 N 
ATOM      2  C   UNL     1       2.454  -0.257   0.081  0.00  0.00    +0.194 C 
ATOM      3  N   UNL     1       3.451  -0.889  -0.484  0.00  0.00    -0.208 NA
ATOM      4  C   UNL     1       4.409  -0.211  -1.164  0.00  0.00    +0.211 C 
ATOM      5  N   UNL     1       4.553   1.081  -1.035  0.00  0.00    -0.226 NA
ATOM      6  C   UNL     1       3.675   1.830  -0.138  0.00  0.00    +0.135 C 
ATOM      7  C   UNL     1       4.330   1.951   1.238  0.00  0.00    +0.050 C 
ATOM      8  C   UNL     1       3.405   2.728   2.177  0.00  0.00    +0.004 C 
ATOM      9  C   UNL     1       3.152   4.124   1.604  0.00  0.00    +0.000 C 
ATOM     10  C   UNL     1       2.493   4.000   0.229  0.00  0.00    +0.004 C 
ATOM     11  C   UNL     1       3.417   3.223  -0.712  0.00  0.00    +0.050 C 
ATOM     12  N   UNL     1       5.250  -0.902  -2.011  0.00  0.00    -0.328 N 
ATOM     13  H   UNL     1       5.153  -1.862  -2.115  0.00  0.00    +0.145 HD
ATOM     14  H   UNL     1       5.940  -0.429  -2.502  0.00  0.00    +0.145 HD
ENDROOT
BRANCH   1  20
ATOM     15  C   UNL     1       0.675   2.336  -1.172  0.00  0.00    +0.024 A 
ATOM     16  C   UNL     1      -0.529   3.011  -1.153  0.00  0.00    +0.017 A 
ATOM     17  C   UNL     1      -1.237   3.133   0.029  0.00  0.00    +0.018 A 
ATOM     18  C   UNL     1      -0.737   2.588   1.198  0.00  0.00    +0.017 A 
ATOM     19  C   UNL     1       0.469   1.916   1.187  0.00  0.00    +0.024 A 
ATOM     20  C   UNL     1       1.180   1.787   0.000  0.00  0.00    +0.037 A 
ATOM     21 BR   UNL     1      -2.889   4.053   0.048  0.00  0.00    -0.050 Br
ENDBRANCH   1  20
TORSDOF 1
