REMARK  Name = ZINC19331616
REMARK  6 active torsions:
REMARK  status: ('A' for Active; 'I' for Inactive)
REMARK    1  A    between atoms: C_1  and  C_2
REMARK    2  A    between atoms: C_5  and  C_26
REMARK    3  A    between atoms: N_9  and  N_10
REMARK    4  A    between atoms: C_14  and  S_17
REMARK    5  A    between atoms: S_17  and  N_20
REMARK    6  A    between atoms: C_26  and  C_28
REMARK                            x       y       z     vdW  Elec       q    Type
REMARK                         _______ _______ _______ _____ _____    ______ ____
ROOT
ATOM      1  N   UNL     1      -2.431   5.170   0.286  0.00  0.00    -0.221 N 
ATOM      2  C   UNL     1      -3.632   5.824   0.535  0.00  0.00    +0.138 A 
ATOM      3  C   UNL     1      -3.669   7.216   0.551  0.00  0.00    +0.047 A 
ATOM      4  C   UNL     1      -4.871   7.854   0.795  0.00  0.00    +0.033 A 
ATOM      5  C   UNL     1      -5.999   7.076   1.027  0.00  0.00    +0.124 A 
ATOM      6  C   UNL     1      -5.889   5.700   1.002  0.00  0.00    +0.141 A 
ATOM      7  N   UNL     1      -4.729   5.119   0.761  0.00  0.00    -0.237 NA
ATOM      8  H   UNL     1      -1.517   5.752   0.098  0.00  0.00    +0.176 HD
ENDROOT
BRANCH   1  16
ATOM      9  C   UNL     1      -2.454   0.876   0.009  0.00  0.00    +0.045 C 
ATOM     10  C   UNL     1      -1.186   1.689   0.017  0.00  0.00    -0.032 C 
ATOM     11  C   UNL     1      -0.013   1.076   0.008  0.00  0.00    -0.021 C 
ATOM     12  C   UNL     1       1.297   1.807  -0.001  0.00  0.00    +0.035 C 
ATOM     13  C   UNL     1       1.141   3.226   0.543  0.00  0.00    +0.024 C 
ATOM     14  C   UNL     1       0.012   3.933  -0.221  0.00  0.00    +0.065 C 
ATOM     15  C   UNL     1      -1.263   3.158   0.041  0.00  0.00    +0.062 C 
ATOM     16  N   UNL     1      -2.386   3.770   0.274  0.00  0.00    -0.186 NA
BRANCH  13  17
ATOM     17  C   UNL     1       2.431   3.983   0.354  0.00  0.00    -0.076 C 
ATOM     18  C   UNL     1       3.064   4.465   1.394  0.00  0.00    +0.007 C 
ATOM     19  C   UNL     1       2.991   4.183  -1.030  0.00  0.00    +0.039 C 
ENDBRANCH  13  17
ENDBRANCH   1  16
BRANCH   5  20
ATOM     20  S   UNL     1      -7.554   7.839   1.350  0.00  0.00    +0.062 S 
ATOM     21  O   UNL     1      -7.496   9.138   0.778  0.00  0.00    -0.153 OA
ATOM     22  O   UNL     1      -8.552   6.893   0.992  0.00  0.00    -0.153 OA
BRANCH  20  23
ATOM     23  N   UNL     1      -7.666   8.047   2.989  0.00  0.00    -0.177 NA
ATOM     24  C   UNL     1      -8.259   7.005   3.837  0.00  0.00    +0.109 C 
ATOM     25  C   UNL     1      -7.261   6.657   4.952  0.00  0.00    +0.017 C 
ATOM     26  C   UNL     1      -6.877   7.934   5.703  0.00  0.00    +0.003 C 
ATOM     27  C   UNL     1      -6.200   8.910   4.738  0.00  0.00    +0.017 C 
ATOM     28  C   UNL     1      -7.181   9.281   3.622  0.00  0.00    +0.109 C 
ENDBRANCH  20  23
ENDBRANCH   5  20
TORSDOF 4
