REMARK  Name = ZINC43136791
REMARK  4 active torsions:
REMARK  status: ('A' for Active; 'I' for Inactive)
REMARK    1  A    between atoms: C_1  and  C_2
REMARK    2  A    between atoms: C_6  and  N_9
REMARK    3  A    between atoms: C_7  and  C_8
REMARK    4  A    between atoms: C_15  and  C_18
REMARK                            x       y       z     vdW  Elec       q    Type
REMARK                         _______ _______ _______ _____ _____    ______ ____
ROOT
ATOM      1  N   UNL     1       0.050  -2.797   2.393  0.00  0.00    -0.269 N 
ATOM      2  C   UNL     1      -0.032  -4.143   2.386  0.00  0.00    +0.307 C 
ATOM      3  O   UNL     1      -0.028  -4.746   1.330  0.00  0.00    -0.252 OA
ATOM      4  N   UNL     1      -0.119  -4.819   3.548  0.00  0.00    -0.281 N 
ATOM      5  C   UNL     1      -0.096  -6.291   3.582  0.00  0.00    +0.114 C 
ATOM      6  C   UNL     1       1.139  -6.726   4.375  0.00  0.00    +0.054 C 
ATOM      7  C   UNL     1       1.260  -5.922   5.636  0.00  0.00    -0.039 C 
ATOM      8  C   UNL     1       0.663  -4.771   5.841  0.00  0.00    -0.004 C 
ATOM      9  C   UNL     1      -0.235  -4.116   4.834  0.00  0.00    +0.137 C 
ATOM     10  H   UNL     1       0.158  -2.322   3.232  0.00  0.00    +0.156 HD
ENDROOT
BRANCH   7  11
ATOM     11  C   UNL     1       2.107  -6.461   6.718  0.00  0.00    +0.005 A 
ATOM     12  C   UNL     1       1.803  -7.489   7.551  0.00  0.00    +0.093 A 
ATOM     13  N   UNL     1       2.836  -7.698   8.420  0.00  0.00    -0.345 N 
ATOM     14  H   UNL     1       2.850  -8.380   9.110  0.00  0.00    +0.167 HD
ATOM     15  C   UNL     1       3.853  -6.804   8.178  0.00  0.00    +0.139 A 
ATOM     16  C   UNL     1       3.449  -5.995   7.101  0.00  0.00    +0.026 A 
ATOM     17  C   UNL     1       4.301  -4.994   6.636  0.00  0.00    +0.013 A 
ATOM     18  C   UNL     1       5.526  -4.840   7.260  0.00  0.00    +0.020 A 
ATOM     19  C   UNL     1       5.861  -5.675   8.313  0.00  0.00    +0.113 A 
ATOM     20  N   UNL     1       5.038  -6.609   8.741  0.00  0.00    -0.237 NA
ENDBRANCH   7  11
BRANCH   1  26
ATOM     21  C   UNL     1      -1.145   1.311  -0.029  0.00  0.00    +0.044 C 
ATOM     22  C   UNL     1      -0.597  -0.092  -0.013  0.00  0.00    -0.046 A 
ATOM     23  C   UNL     1      -0.164  -0.678  -1.188  0.00  0.00    +0.004 A 
ATOM     24  C   UNL     1       0.339  -1.966  -1.177  0.00  0.00    +0.002 A 
ATOM     25  C   UNL     1       0.411  -2.671   0.008  0.00  0.00    +0.023 A 
ATOM     26  C   UNL     1      -0.022  -2.086   1.190  0.00  0.00    +0.038 A 
ATOM     27  C   UNL     1      -0.522  -0.790   1.177  0.00  0.00    -0.026 A 
ATOM     28  C   UNL     1      -0.988  -0.148   2.458  0.00  0.00    +0.046 C 
ENDBRANCH   1  26
TORSDOF 2
