REMARK  Name = ZINC66660802
REMARK  6 active torsions:
REMARK  status: ('A' for Active; 'I' for Inactive)
REMARK    1  A    between atoms: C_1  and  C_2
REMARK    2  A    between atoms: C_2  and  C_4
REMARK    3  A    between atoms: C_2  and  N_7
REMARK    4  A    between atoms: C_8  and  N_12
REMARK    5  A    between atoms: C_13  and  C_15
REMARK    6  A    between atoms: C_19  and  N_21
REMARK                            x       y       z     vdW  Elec       q    Type
REMARK                         _______ _______ _______ _____ _____    ______ ____
ROOT
ATOM      1  N   UNL     1      -1.420  -0.998   2.722  0.00  0.00    -0.267 N 
ATOM      2  C   UNL     1      -2.091  -1.778   3.593  0.00  0.00    +0.249 C 
ATOM      3  O   UNL     1      -3.305  -1.731   3.640  0.00  0.00    -0.270 OA
ATOM      4  H   UNL     1      -0.451  -1.036   2.684  0.00  0.00    +0.157 HD
ENDROOT
BRANCH   2   5
ATOM      5  C   UNL     1      -1.351  -2.691   4.489  0.00  0.00    +0.039 A 
ATOM      6  C   UNL     1       0.044  -2.743   4.441  0.00  0.00    +0.013 A 
ATOM      7  C   UNL     1       0.732  -3.596   5.279  0.00  0.00    +0.003 A 
ATOM      8  C   UNL     1       0.046  -4.401   6.169  0.00  0.00    +0.028 A 
ATOM      9  C   UNL     1      -1.342  -4.357   6.225  0.00  0.00    +0.070 A 
ATOM     10  C   UNL     1      -2.043  -3.499   5.391  0.00  0.00    +0.041 A 
BRANCH   9  11
ATOM     11  N   UNL     1      -2.032  -5.174   7.127  0.00  0.00    -0.193 N 
ATOM     12  C   UNL     1      -3.077  -5.912   6.702  0.00  0.00    +0.272 A 
ATOM     13  O   UNL     1      -3.424  -5.869   5.532  0.00  0.00    -0.266 OA
ATOM     14  C   UNL     1      -3.767  -6.732   7.616  0.00  0.00    +0.077 A 
ATOM     15  C   UNL     1      -3.364  -6.765   8.915  0.00  0.00    +0.079 A 
ATOM     16  C   UNL     1      -2.268  -5.983   9.327  0.00  0.00    +0.287 A 
ATOM     17  O   UNL     1      -1.866  -6.016  10.623  0.00  0.00    -0.264 OA
ATOM     18  N   UNL     1      -1.631  -5.228   8.467  0.00  0.00    -0.121 NA
ENDBRANCH   9  11
ENDBRANCH   2   5
BRANCH   1  20
ATOM     19  N   UNL     1      -1.574   0.700   0.956  0.00  0.00    -0.247 N 
ATOM     20  C   UNL     1      -2.118  -0.138   1.877  0.00  0.00    +0.124 A 
ATOM     21  C   UNL     1      -3.469   0.017   1.821  0.00  0.00    +0.065 A 
ATOM     22  C   UNL     1      -3.752   0.973   0.842  0.00  0.00    +0.136 A 
ATOM     23  N   UNL     1      -2.621   1.386   0.329  0.00  0.00    -0.178 NA
BRANCH  19  25
ATOM     24  C   UNL     1       0.266   2.311   0.940  0.00  0.00    +0.033 C 
ATOM     25  C   UNL     1      -0.145   0.862   0.674  0.00  0.00    +0.109 C 
BRANCH  25  26
ATOM     26  C   UNL     1       0.128   0.515  -0.791  0.00  0.00    +0.013 C 
ATOM     27  C   UNL     1       0.934  -0.753  -1.078  0.00  0.00    +0.006 C 
ATOM     28  C   UNL     1       1.572   0.622  -1.285  0.00  0.00    +0.006 C 
ENDBRANCH  25  26
ENDBRANCH  19  25
ENDBRANCH   1  20
TORSDOF 5
