REMARK  Name = ZINC20441981
REMARK  9 active torsions:
REMARK  status: ('A' for Active; 'I' for Inactive)
REMARK    1  A    between atoms: C_1  and  C_2
REMARK    2  A    between atoms: C_2  and  O_3
REMARK    3  A    between atoms: O_3  and  C_4
REMARK    4  A    between atoms: C_7  and  C_10
REMARK    5  A    between atoms: C_10  and  C_12
REMARK    6  A    between atoms: C_13  and  N_35
REMARK    7  A    between atoms: C_14  and  C_21
REMARK    8  A    between atoms: C_23  and  C_26
REMARK    9  A    between atoms: C_29  and  N_32
REMARK                            x       y       z     vdW  Elec       q    Type
REMARK                         _______ _______ _______ _____ _____    ______ ____
ROOT
ATOM      1  C   UNL     1      -0.001   0.002   0.006  0.00  0.00    +0.116 A 
ATOM      2  C   UNL     1       1.298  -0.455  -0.018  0.00  0.00    +0.064 A 
ATOM      3  C   UNL     1       2.166   0.733  -0.016  0.00  0.00    +0.054 A 
ATOM      4  C   UNL     1       1.244   1.888   0.011  0.00  0.00    +0.058 A 
ATOM      5  N   UNL     1      -0.026   1.401   0.023  0.00  0.00    -0.311 N 
ATOM      6  C   UNL     1      -1.076   2.249   0.053  0.00  0.00    +0.092 A 
ATOM      7  C   UNL     1      -0.888   3.615   0.063  0.00  0.00    +0.018 A 
ATOM      8  C   UNL     1       0.398   4.135   0.051  0.00  0.00    +0.003 A 
ATOM      9  C   UNL     1       1.480   3.252   0.024  0.00  0.00    +0.027 A 
ENDROOT
BRANCH   3  10
ATOM     10  C   UNL     1       3.565   0.763  -0.035  0.00  0.00    +0.113 A 
ATOM     11  N   UNL     1       4.430  -0.262  -0.060  0.00  0.00    -0.239 NA
ATOM     12  C   UNL     1       5.710  -0.039  -0.075  0.00  0.00    +0.079 A 
ATOM     13  C   UNL     1       6.162   1.309  -0.066  0.00  0.00    +0.075 A 
ATOM     14  S   UNL     1       4.657   2.176  -0.042  0.00  0.00    -0.075 S 
BRANCH  12  15
ATOM     15  C   UNL     1       6.673  -1.160  -0.102  0.00  0.00    +0.001 A 
ATOM     16  C   UNL     1       6.215  -2.476  -0.211  0.00  0.00    +0.012 A 
ATOM     17  C   UNL     1       7.120  -3.517  -0.240  0.00  0.00    +0.033 A 
ATOM     18  C   UNL     1       8.477  -3.261  -0.152  0.00  0.00    +0.126 A 
ATOM     19  C   UNL     1       8.937  -1.960  -0.039  0.00  0.00    +0.033 A 
ATOM     20  C   UNL     1       8.045  -0.910  -0.013  0.00  0.00    +0.012 A 
BRANCH  18  21
ATOM     21  N   UNL     1       9.441  -4.384  -0.180  0.00  0.00    +0.056 N 
ATOM     22  O   UNL     1      10.734  -4.144  -0.096  0.00  0.00    -0.126 OA
ATOM     23  O   UNL     1       9.007  -5.622  -0.288  0.00  0.00    -0.126 OA
ENDBRANCH  18  21
ENDBRANCH  12  15
ENDBRANCH   3  10
BRANCH   2  24
ATOM     24  N   UNL     1       1.707  -1.777  -0.040  0.00  0.00    -0.356 N 
ATOM     25  H   UNL     1       2.780  -2.020  -0.058  0.00  0.00    +0.142 HD
ATOM     26  H   UNL     1       0.960  -2.584  -0.039  0.00  0.00    +0.142 HD
ENDBRANCH   2  24
BRANCH   1  27
ATOM     27  C   UNL     1      -1.189  -0.854   0.012  0.00  0.00    +0.212 C 
ATOM     28  O   UNL     1      -1.615  -1.296   1.064  0.00  0.00    -0.285 OA
BRANCH  27  32
ATOM     29  C   UNL     1      -3.146  -1.798  -3.637  0.00  0.00    +0.121 A 
ATOM     30  C   UNL     1      -3.696  -2.211  -2.429  0.00  0.00    +0.046 A 
ATOM     31  C   UNL     1      -3.064  -1.907  -1.244  0.00  0.00    +0.015 A 
ATOM     32  C   UNL     1      -1.869  -1.183  -1.256  0.00  0.00    +0.024 A 
ATOM     33  C   UNL     1      -1.323  -0.765  -2.474  0.00  0.00    +0.015 A 
ATOM     34  C   UNL     1      -1.958  -1.077  -3.655  0.00  0.00    +0.046 A 
BRANCH  29  35
ATOM     35  O   UNL     1      -3.772  -2.099  -4.803  0.00  0.00    -0.492 OA
BRANCH  35  37
ATOM     36  C   UNL     1      -3.996  -2.075  -7.209  0.00  0.00    +0.048 C 
ATOM     37  C   UNL     1      -3.153  -1.644  -6.008  0.00  0.00    +0.225 C 
ENDBRANCH  35  37
ENDBRANCH  29  35
ENDBRANCH  27  32
ENDBRANCH   1  27
TORSDOF 8
