REMARK  Name = ZINC00977009
REMARK  4 active torsions:
REMARK  status: ('A' for Active; 'I' for Inactive)
REMARK    1  A    between atoms: C_1  and  C_2
REMARK    2  A    between atoms: C_10  and  C_12
REMARK    3  A    between atoms: C_14  and  C_25
REMARK    4  A    between atoms: C_15  and  N_24
REMARK                            x       y       z     vdW  Elec       q    Type
REMARK                         _______ _______ _______ _____ _____    ______ ____
ROOT
ATOM      1  C   UNL     1       1.283  -2.138  -0.021  0.00  0.00    +0.104 C 
ATOM      2  C   UNL     1       0.623  -2.674   1.218  0.00  0.00    +0.098 C 
ATOM      3  C   UNL     1      -0.630  -3.185   1.160  0.00  0.00    +0.198 C 
ATOM      4  O   UNL     1      -1.317  -3.224   0.008  0.00  0.00    -0.445 OA
ATOM      5  C   UNL     1      -0.661  -3.170  -1.166  0.00  0.00    +0.115 C 
ATOM      6  C   UNL     1       0.583  -2.664  -1.250  0.00  0.00    +0.046 C 
ATOM      7  C   UNL     1       1.270  -2.611  -2.478  0.00  0.00    +0.163 C 
ATOM      8  O   UNL     1       2.384  -2.128  -2.518  0.00  0.00    -0.292 OA
ATOM      9  C   UNL     1       0.648  -3.140  -3.742  0.00  0.00    +0.080 C 
ATOM     10  C   UNL     1      -0.337  -4.256  -3.379  0.00  0.00    +0.016 C 
ATOM     11  C   UNL     1      -1.366  -3.693  -2.396  0.00  0.00    +0.075 C 
ENDROOT
BRANCH   1  21
ATOM     12  C   UNL     1       2.489   4.286   0.002  0.00  0.00    +0.046 C 
ATOM     13  C   UNL     1       1.195   3.514   0.009  0.00  0.00    -0.024 A 
ATOM     14  C   UNL     1       0.005   4.174   0.024  0.00  0.00    +0.005 A 
ATOM     15  C   UNL     1      -1.203   3.480   0.032  0.00  0.00    +0.001 A 
ATOM     16  C   UNL     1      -1.226   2.118   0.031  0.00  0.00    +0.010 A 
ATOM     17  C   UNL     1      -0.017   1.404   0.010  0.00  0.00    +0.001 A 
ATOM     18  C   UNL     1       1.212   2.108   0.002  0.00  0.00    +0.076 A 
ATOM     19  N   UNL     1       2.366   1.433  -0.013  0.00  0.00    -0.235 NA
ATOM     20  C   UNL     1       2.388   0.121  -0.020  0.00  0.00    +0.134 A 
ATOM     21  C   UNL     1       1.214  -0.632  -0.013  0.00  0.00    +0.003 A 
ATOM     22  C   UNL     1       0.002  -0.004   0.002  0.00  0.00    +0.017 A 
ATOM     23 CL   UNL     1       3.918  -0.699  -0.038  0.00  0.00    -0.062 Cl
ENDBRANCH   1  21
BRANCH   3  24
ATOM     24  N   UNL     1      -1.210  -3.674   2.305  0.00  0.00    -0.328 N 
ATOM     25  H   UNL     1      -2.107  -4.043   2.275  0.00  0.00    +0.145 HD
ATOM     26  H   UNL     1      -0.723  -3.651   3.143  0.00  0.00    +0.145 HD
ENDBRANCH   3  24
BRANCH   2  27
ATOM     27  C   UNL     1       1.323  -2.644   2.467  0.00  0.00    +0.101 C 
ATOM     28  N   UNL     1       1.878  -2.620   3.458  0.00  0.00    -0.191 NA
ENDBRANCH   2  27
TORSDOF 3
