REMARK  Name = ZINC21632370
REMARK  10 active torsions:
REMARK  status: ('A' for Active; 'I' for Inactive)
REMARK    1  A    between atoms: C_1  and  O_2
REMARK    2  A    between atoms: O_2  and  C_3
REMARK    3  A    between atoms: C_6  and  N_11
REMARK    4  A    between atoms: C_7  and  O_9
REMARK    5  A    between atoms: O_9  and  C_10
REMARK    6  A    between atoms: C_12  and  C_14
REMARK    7  A    between atoms: C_19  and  N_20
REMARK    8  A    between atoms: N_20  and  S_21
REMARK    9  A    between atoms: S_21  and  C_24
REMARK   10  A    between atoms: C_27  and  N_30
REMARK                            x       y       z     vdW  Elec       q    Type
REMARK                         _______ _______ _______ _____ _____    ______ ____
ROOT
ATOM      1  C   UNL     1       8.266  -0.693   2.629  0.00  0.00    +0.061 A 
ATOM      2  C   UNL     1       8.165  -1.973   3.181  0.00  0.00    +0.015 A 
ATOM      3  C   UNL     1       8.341  -3.082   2.383  0.00  0.00    +0.001 A 
ATOM      4  C   UNL     1       8.619  -2.936   1.033  0.00  0.00    +0.002 A 
ATOM      5  C   UNL     1       8.717  -1.679   0.471  0.00  0.00    +0.027 A 
ATOM      6  C   UNL     1       8.548  -0.549   1.261  0.00  0.00    +0.086 A 
ENDROOT
BRANCH   1   8
ATOM      7  N   UNL     1       7.808   0.354   4.790  0.00  0.00    -0.278 N 
ATOM      8  C   UNL     1       8.078   0.498   3.477  0.00  0.00    +0.250 C 
ATOM      9  O   UNL     1       8.167   1.610   2.992  0.00  0.00    -0.270 OA
ATOM     10  H   UNL     1       7.651  -0.649   5.213  0.00  0.00    +0.155 HD
BRANCH   7  14
ATOM     11  C   UNL     1       7.564   3.718   7.250  0.00  0.00    +0.124 A 
ATOM     12  C   UNL     1       7.147   3.791   5.929  0.00  0.00    +0.047 A 
ATOM     13  C   UNL     1       7.228   2.677   5.114  0.00  0.00    +0.030 A 
ATOM     14  C   UNL     1       7.727   1.484   5.616  0.00  0.00    +0.076 A 
ATOM     15  C   UNL     1       8.141   1.408   6.944  0.00  0.00    +0.145 A 
ATOM     16  C   UNL     1       8.063   2.527   7.757  0.00  0.00    +0.093 A 
BRANCH  11  18
ATOM     17  C   UNL     1       6.958   6.007   7.463  0.00  0.00    +0.277 C 
ATOM     18  O   UNL     1       7.482   4.814   8.050  0.00  0.00    -0.495 OA
ENDBRANCH  11  18
BRANCH  15  19
ATOM     19  O   UNL     1       8.625   0.238   7.440  0.00  0.00    -0.493 OA
ATOM     20  C   UNL     1       9.031   0.234   8.810  0.00  0.00    +0.277 C 
ENDBRANCH  15  19
ENDBRANCH   7  14
ENDBRANCH   1   8
BRANCH   6  21
ATOM     21  N   UNL     1       8.651   0.717   0.700  0.00  0.00    -0.097 NA
BRANCH  21  22
ATOM     22  S   UNL     1       8.107   0.986  -0.841  0.00  0.00    +0.092 S 
ATOM     23  O   UNL     1       8.739   0.021  -1.669  0.00  0.00    -0.148 OA
ATOM     24  O   UNL     1       8.223   2.383  -1.074  0.00  0.00    -0.148 OA
BRANCH  22  25
ATOM     25  C   UNL     1       6.385   0.614  -0.858  0.00  0.00    +0.110 A 
ATOM     26  C   UNL     1       5.462   1.605  -0.578  0.00  0.00    +0.031 A 
ATOM     27  C   UNL     1       4.112   1.317  -0.591  0.00  0.00    +0.025 A 
ATOM     28  C   UNL     1       3.680   0.030  -0.886  0.00  0.00    +0.036 A 
ATOM     29  C   UNL     1       4.610  -0.964  -1.161  0.00  0.00    +0.025 A 
ATOM     30  C   UNL     1       5.959  -0.668  -1.151  0.00  0.00    +0.031 A 
BRANCH  28  31
ATOM     31  N   UNL     1       2.313  -0.265  -0.899  0.00  0.00    -0.271 N 
ATOM     32  C   UNL     1       1.258   0.675  -0.503  0.00  0.00    +0.114 C 
ATOM     33  C   UNL     1      -0.051   0.095  -1.082  0.00  0.00    +0.029 C 
ATOM     34  C   UNL     1       0.287  -1.411  -1.177  0.00  0.00    +0.098 C 
ATOM     35  C   UNL     1       1.796  -1.447  -1.278  0.00  0.00    +0.220 C 
ATOM     36  O   UNL     1       2.445  -2.404  -1.645  0.00  0.00    -0.275 OA
ENDBRANCH  28  31
ENDBRANCH  22  25
ENDBRANCH  21  22
ENDBRANCH   6  21
TORSDOF 8
