REMARK  Name = ZINC12569228
REMARK  7 active torsions:
REMARK  status: ('A' for Active; 'I' for Inactive)
REMARK    1  A    between atoms: C_1  and  C_2
REMARK    2  A    between atoms: C_2  and  C_25
REMARK    3  A    between atoms: N_5  and  C_9
REMARK    4  A    between atoms: C_9  and  C_10
REMARK    5  A    between atoms: N_12  and  C_13
REMARK    6  A    between atoms: C_13  and  C_14
REMARK    7  A    between atoms: C_14  and  N_71
REMARK                            x       y       z     vdW  Elec       q    Type
REMARK                         _______ _______ _______ _____ _____    ______ ____
ROOT
ATOM      1  C   UNL     1       3.496  -1.415  -1.625  0.00  0.00    +0.047 C 
ATOM      2  C   UNL     1       2.887  -0.961  -0.297  0.00  0.00    +0.135 C 
ATOM      3  C   UNL     1       3.722   0.138   0.329  0.00  0.00    +0.251 C 
ATOM      4  O   UNL     1       3.959   1.232  -0.137  0.00  0.00    -0.272 OA
ATOM      5  N   UNL     1       4.147  -0.354   1.509  0.00  0.00    -0.215 N 
ATOM      6  C   UNL     1       3.701  -1.599   1.714  0.00  0.00    +0.310 C 
ATOM      7  O   UNL     1       3.953  -2.251   2.708  0.00  0.00    -0.252 OA
ATOM      8  N   UNL     1       2.944  -2.047   0.697  0.00  0.00    -0.281 N 
ATOM      9  H   UNL     1       2.517  -2.916   0.631  0.00  0.00    +0.152 HD
ENDROOT
BRANCH   2  10
ATOM     10  C   UNL     1       1.467  -0.499  -0.497  0.00  0.00    -0.015 A 
ATOM     11  C   UNL     1       1.217   0.834  -0.821  0.00  0.00    +0.007 A 
ATOM     12  C   UNL     1      -0.053   1.283  -1.008  0.00  0.00    +0.009 A 
ATOM     13  C   UNL     1      -1.133   0.393  -0.874  0.00  0.00    -0.018 A 
ATOM     14  C   UNL     1      -2.459   0.821  -1.060  0.00  0.00    +0.008 A 
ATOM     15  C   UNL     1      -3.479  -0.069  -0.921  0.00  0.00    +0.001 A 
ATOM     16  C   UNL     1      -3.230  -1.402  -0.598  0.00  0.00    +0.001 A 
ATOM     17  C   UNL     1      -1.959  -1.851  -0.410  0.00  0.00    +0.008 A 
ATOM     18  C   UNL     1      -0.879  -0.963  -0.551  0.00  0.00    -0.018 A 
ATOM     19  C   UNL     1       0.446  -1.389  -0.359  0.00  0.00    +0.014 A 
ENDBRANCH   2  10
BRANCH   5  20
ATOM     20  C   UNL     1       4.994   0.382   2.451  0.00  0.00    +0.213 C 
BRANCH  20  21
ATOM     21  C   UNL     1       6.444   0.114   2.139  0.00  0.00    +0.231 C 
ATOM     22  O   UNL     1       6.741  -0.620   1.220  0.00  0.00    -0.274 OA
ATOM     23  N   UNL     1       7.411   0.690   2.880  0.00  0.00    -0.315 N 
ATOM     24  H   UNL     1       7.173   1.277   3.615  0.00  0.00    +0.149 HD
BRANCH  23  25
ATOM     25  C   UNL     1       8.820   0.429   2.577  0.00  0.00    +0.092 C 
BRANCH  25  26
ATOM     26  C   UNL     1       9.700   1.068   3.653  0.00  0.00    -0.050 C 
ATOM     27  C   UNL     1       9.330   2.544   3.805  0.00  0.00    -0.010 C 
ATOM     28  C   UNL     1       9.550   3.265   2.474  0.00  0.00    -0.001 C 
ATOM     29  C   UNL     1      11.020   3.147   2.067  0.00  0.00    -0.000 C 
ATOM     30  C   UNL     1      11.390   1.670   1.915  0.00  0.00    -0.001 C 
ATOM     31  C   UNL     1      11.170   0.950   3.246  0.00  0.00    -0.010 C 
BRANCH  26  37
ATOM     32  C   UNL     1       9.802  -1.054   4.815  0.00  0.00    -0.078 C 
ATOM     33  C   UNL     1       9.712  -1.712   6.193  0.00  0.00    -0.019 C 
ATOM     34  C   UNL     1       8.299  -1.524   6.752  0.00  0.00    -0.004 C 
ATOM     35  C   UNL     1       7.980  -0.028   6.819  0.00  0.00    -0.019 C 
ATOM     36  C   UNL     1       8.120   0.581   5.422  0.00  0.00    -0.078 C 
ATOM     37  N   UNL     1       9.508   0.388   4.951  0.00  0.00    +0.384 N 
ATOM     38  H   UNL     1      10.152   0.796   5.639  0.00  0.00    -0.081 HD
ENDBRANCH  26  37
ENDBRANCH  25  26
ENDBRANCH  23  25
ENDBRANCH  20  21
ENDBRANCH   5  20
TORSDOF 6
