REMARK  Name = ZINC64921875
REMARK  8 active torsions:
REMARK  status: ('A' for Active; 'I' for Inactive)
REMARK    1  A    between atoms: C_1  and  C_2
REMARK    2  A    between atoms: C_2  and  C_3
REMARK    3  A    between atoms: C_10  and  S_15
REMARK    4  A    between atoms: S_15  and  N_18
REMARK    5  A    between atoms: C_21  and  C_24
REMARK    6  A    between atoms: N_26  and  C_27
REMARK    7  A    between atoms: C_30  and  C_34
REMARK    8  A    between atoms: C_32  and  C_33
REMARK                            x       y       z     vdW  Elec       q    Type
REMARK                         _______ _______ _______ _____ _____    ______ ____
ROOT
ATOM      1  N   UNL     1      -2.076  -3.805  -6.669  0.00  0.00    -0.177 NA
ATOM      2  C   UNL     1      -2.506  -5.136  -6.218  0.00  0.00    +0.110 C 
ATOM      3  C   UNL     1      -2.773  -6.011  -7.446  0.00  0.00    +0.030 C 
ATOM      4  C   UNL     1      -3.774  -5.304  -8.363  0.00  0.00    +0.078 C 
ATOM      5  C   UNL     1      -3.183  -3.974  -8.837  0.00  0.00    +0.030 C 
ATOM      6  C   UNL     1      -2.924  -3.073  -7.620  0.00  0.00    +0.110 C 
ENDROOT
BRANCH   4   7
ATOM      7  C   UNL     1      -4.065  -6.177  -9.557  0.00  0.00    +0.220 C 
ATOM      8  O   UNL     1      -3.525  -7.258  -9.663  0.00  0.00    -0.275 OA
ATOM      9  N   UNL     1      -4.925  -5.757 -10.505  0.00  0.00    -0.285 N 
ATOM     10  H   UNL     1      -5.417  -4.930 -10.382  0.00  0.00    +0.155 HD
BRANCH   9  11
ATOM     11  C   UNL     1      -5.107  -6.513 -11.669  0.00  0.00    +0.036 A 
ATOM     12  C   UNL     1      -4.104  -7.367 -12.109  0.00  0.00    +0.024 A 
ATOM     13  C   UNL     1      -4.287  -8.112 -13.257  0.00  0.00    +0.005 A 
ATOM     14  C   UNL     1      -5.469  -8.008 -13.969  0.00  0.00    -0.050 A 
ATOM     15  C   UNL     1      -6.469  -7.159 -13.534  0.00  0.00    +0.008 A 
ATOM     16  C   UNL     1      -6.295  -6.416 -12.382  0.00  0.00    -0.029 A 
ATOM     17  C   UNL     1      -7.389  -5.497 -11.905  0.00  0.00    +0.045 C 
ATOM     18  C   UNL     1      -5.665  -8.822 -15.222  0.00  0.00    +0.044 C 
ENDBRANCH   9  11
ENDBRANCH   4   7
BRANCH   1  19
ATOM     19  S   UNL     1      -0.665  -3.140  -6.112  0.00  0.00    +0.061 S 
ATOM     20  O   UNL     1      -0.253  -2.189  -7.083  0.00  0.00    -0.153 OA
ATOM     21  O   UNL     1       0.162  -4.223  -5.707  0.00  0.00    -0.153 OA
BRANCH  19  28
ATOM     22  C   UNL     1      -1.366  -0.491  -0.031  0.00  0.00    +0.259 C 
ATOM     23  C   UNL     1      -1.351  -1.993   0.095  0.00  0.00    +0.258 C 
ATOM     24  O   UNL     1      -1.415  -2.514   1.188  0.00  0.00    -0.271 OA
ATOM     25  N   UNL     1      -1.266  -2.757  -1.015  0.00  0.00    -0.279 N 
ATOM     26  C   UNL     1      -1.321  -2.143  -2.274  0.00  0.00    +0.078 A 
ATOM     27  C   UNL     1      -1.011  -2.857  -3.420  0.00  0.00    +0.055 A 
ATOM     28  C   UNL     1      -1.058  -2.233  -4.653  0.00  0.00    +0.107 A 
ATOM     29  C   UNL     1      -1.410  -0.899  -4.745  0.00  0.00    +0.032 A 
ATOM     30  C   UNL     1      -1.725  -0.182  -3.605  0.00  0.00    +0.049 A 
ATOM     31  C   UNL     1      -1.688  -0.802  -2.367  0.00  0.00    +0.143 A 
ATOM     32  O   UNL     1      -2.025  -0.117  -1.243  0.00  0.00    -0.478 OA
ATOM     33  H   UNL     1      -1.168  -3.719  -0.942  0.00  0.00    +0.155 HD
BRANCH  22  35
ATOM     34  C   UNL     1       0.057   1.563  -0.051  0.00  0.00    +0.008 C 
ATOM     35  C   UNL     1       0.072   0.033  -0.051  0.00  0.00    +0.051 C 
ENDBRANCH  22  35
ENDBRANCH  19  28
ENDBRANCH   1  19
TORSDOF 5
