REMARK  Name = ZINC09886227
REMARK  8 active torsions:
REMARK  status: ('A' for Active; 'I' for Inactive)
REMARK    1  A    between atoms: C_1  and  C_2
REMARK    2  A    between atoms: C_2  and  C_3
REMARK    3  A    between atoms: C_2  and  N_4
REMARK    4  A    between atoms: C_6  and  C_13
REMARK    5  A    between atoms: N_14  and  N_15
REMARK    6  A    between atoms: C_16  and  C_18
REMARK    7  A    between atoms: C_18  and  N_19
REMARK    8  A    between atoms: C_20  and  C_22
REMARK                            x       y       z     vdW  Elec       q    Type
REMARK                         _______ _______ _______ _____ _____    ______ ____
ROOT
ATOM      1  N   UNL     1       8.214  -3.671   4.473  0.00  0.00    -0.206 N 
ATOM      2  C   UNL     1       7.043  -3.338   3.894  0.00  0.00    +0.249 C 
ATOM      3  O   UNL     1       6.159  -4.163   3.793  0.00  0.00    -0.272 OA
ATOM      4  H   UNL     1       8.920  -3.012   4.554  0.00  0.00    +0.177 HD
ENDROOT
BRANCH   1   6
ATOM      5  C   UNL     1       9.539  -5.293   5.515  0.00  0.00    +0.140 C 
ATOM      6  N   UNL     1       8.410  -4.971   4.958  0.00  0.00    -0.188 NA
BRANCH   5   9
ATOM      7  N   UNL     1      10.680  -8.448   6.962  0.00  0.00    -0.343 N 
ATOM      8  C   UNL     1      10.865  -7.140   6.629  0.00  0.00    +0.096 A 
ATOM      9  C   UNL     1       9.745  -6.658   6.024  0.00  0.00    +0.020 A 
ATOM     10  C   UNL     1       8.777  -7.769   5.985  0.00  0.00    +0.009 A 
ATOM     11  C   UNL     1       9.422  -8.865   6.582  0.00  0.00    +0.050 A 
ATOM     12  C   UNL     1       8.749 -10.078   6.687  0.00  0.00    +0.026 A 
ATOM     13  C   UNL     1       7.464 -10.195   6.202  0.00  0.00    +0.002 A 
ATOM     14  C   UNL     1       6.831  -9.113   5.608  0.00  0.00    +0.001 A 
ATOM     15  C   UNL     1       7.480  -7.904   5.495  0.00  0.00    +0.010 A 
BRANCH   7  17
ATOM     16  C   UNL     1      12.934  -9.377   6.763  0.00  0.00    +0.030 C 
ATOM     17  C   UNL     1      11.675  -9.291   7.629  0.00  0.00    +0.081 C 
ATOM     18  C   UNL     1      12.031  -8.682   8.987  0.00  0.00    +0.030 C 
ENDBRANCH   7  17
ENDBRANCH   5   9
ENDBRANCH   1   6
BRANCH   2  19
ATOM     19  C   UNL     1       6.831  -1.940   3.373  0.00  0.00    +0.202 C 
BRANCH  19  20
ATOM     20  N   UNL     1       5.489  -1.832   2.796  0.00  0.00    -0.303 N 
ATOM     21  C   UNL     1       5.076  -0.664   2.264  0.00  0.00    +0.245 C 
ATOM     22  O   UNL     1       5.818   0.300   2.264  0.00  0.00    -0.270 OA
ATOM     23  H   UNL     1       4.898  -2.601   2.795  0.00  0.00    +0.150 HD
BRANCH  21  24
ATOM     24  C   UNL     1       3.724  -0.555   1.682  0.00  0.00    +0.040 A 
ATOM     25  C   UNL     1       2.871  -1.662   1.681  0.00  0.00    +0.017 A 
ATOM     26  C   UNL     1       1.609  -1.558   1.138  0.00  0.00    +0.050 A 
ATOM     27  C   UNL     1       1.181  -0.356   0.590  0.00  0.00    +0.166 A 
ATOM     28  C   UNL     1       2.028   0.752   0.588  0.00  0.00    +0.167 A 
ATOM     29  C   UNL     1       3.294   0.654   1.131  0.00  0.00    +0.062 A 
ATOM     30  O   UNL     1       1.376   1.797  -0.001  0.00  0.00    -0.453 OA
ATOM     31  C   UNL     1      -0.017   1.435   0.010  0.00  0.00    +0.466 C 
ATOM     32  O   UNL     1       0.002  -0.004   0.002  0.00  0.00    -0.453 OA
ENDBRANCH  21  24
ENDBRANCH  19  20
ENDBRANCH   2  19
TORSDOF 6
