REMARK  Name = ZINC61779593
REMARK  8 active torsions:
REMARK  status: ('A' for Active; 'I' for Inactive)
REMARK    1  A    between atoms: C_1  and  N_2
REMARK    2  A    between atoms: N_2  and  C_3
REMARK    3  A    between atoms: N_2  and  C_9
REMARK    4  A    between atoms: C_3  and  C_4
REMARK    5  A    between atoms: C_9  and  C_10
REMARK    6  A    between atoms: N_12  and  C_13
REMARK    7  A    between atoms: N_12  and  C_16
REMARK    8  A    between atoms: C_13  and  C_14
REMARK                            x       y       z     vdW  Elec       q    Type
REMARK                         _______ _______ _______ _____ _____    ______ ____
ROOT
ATOM      1  C   UNL     1       2.123   0.146   1.260  0.00  0.00    +0.203 C 
ATOM      2  O   UNL     1       2.494   0.970   0.450  0.00  0.00    -0.277 OA
ATOM      3  N   UNL     1       3.008  -0.409   2.111  0.00  0.00    -0.269 N 
ENDROOT
BRANCH   3   4
ATOM      4  C   UNL     1       4.370  -0.113   1.996  0.00  0.00    +0.037 A 
ATOM      5  C   UNL     1       5.086  -0.549   0.888  0.00  0.00    +0.023 A 
ATOM      6  C   UNL     1       6.431  -0.254   0.778  0.00  0.00    +0.002 A 
ATOM      7  C   UNL     1       7.065   0.475   1.768  0.00  0.00    +0.000 A 
ATOM      8  C   UNL     1       6.354   0.910   2.872  0.00  0.00    +0.002 A 
ATOM      9  C   UNL     1       5.008   0.624   2.985  0.00  0.00    +0.023 A 
ENDBRANCH   3   4
BRANCH   1  10
ATOM     10  C   UNL     1       0.671  -0.255   1.314  0.00  0.00    +0.019 C 
BRANCH  10  12
ATOM     11  C   UNL     1      -0.061   1.920   0.616  0.00  0.00    -0.095 C 
ATOM     12  N   UNL     1      -0.081   0.487   0.293  0.00  0.00    +0.387 N 
ATOM     13  H   UNL     1       0.344   0.340  -0.610  0.00  0.00    -0.081 HD
BRANCH  12  14
ATOM     14  C   UNL     1      -1.470   0.010   0.265  0.00  0.00    -0.035 C 
BRANCH  14  15
ATOM     15  C   UNL     1      -2.209   0.683  -0.863  0.00  0.00    -0.027 A 
ATOM     16  C   UNL     1      -2.351   0.281  -2.150  0.00  0.00    +0.009 A 
ATOM     17  C   UNL     1      -3.083   1.067  -3.020  0.00  0.00    +0.008 A 
ATOM     18  C   UNL     1      -3.636   2.216  -2.561  0.00  0.00    +0.045 A 
ATOM     19  S   UNL     1      -3.131   2.212  -0.849  0.00  0.00    -0.103 S 
ENDBRANCH  14  15
ENDBRANCH  12  14
ENDBRANCH  10  12
ENDBRANCH   1  10
BRANCH   3  20
ATOM     20  C   UNL     1       2.543  -1.325   3.156  0.00  0.00    +0.140 C 
BRANCH  20  21
ATOM     21  C   UNL     1       2.548  -2.736   2.627  0.00  0.00    -0.015 C 
ATOM     22  C   UNL     1       3.206  -3.672   3.265  0.00  0.00    +0.005 C 
ENDBRANCH  20  21
ENDBRANCH   3  20
TORSDOF 7
