REMARK  Name = ZINC35954654
REMARK  15 active torsions:
REMARK  status: ('A' for Active; 'I' for Inactive)
REMARK    1  A    between atoms: C_1  and  C_2
REMARK    2  A    between atoms: C_2  and  C_3
REMARK    3  A    between atoms: C_4  and  C_22
REMARK    4  A    between atoms: C_5  and  N_15
REMARK    5  A    between atoms: N_6  and  C_8
REMARK    6  A    between atoms: C_12  and  C_14
REMARK    7  A    between atoms: N_18  and  C_21
REMARK    8  A    between atoms: C_22  and  N_23
REMARK    9  A    between atoms: N_23  and  C_24
REMARK   10  A    between atoms: N_23  and  C_33
REMARK   11  A    between atoms: C_24  and  C_25
REMARK   12  A    between atoms: C_29  and  C_32
REMARK   13  A    between atoms: C_30  and  O_31
REMARK   14  A    between atoms: C_33  and  C_34
REMARK   15  A    between atoms: C_33  and  C_35
REMARK                            x       y       z     vdW  Elec       q    Type
REMARK                         _______ _______ _______ _____ _____    ______ ____
ROOT
ATOM      1  C   UNL     1       0.966   2.535  -0.508  0.00  0.00    +0.066 A 
ATOM      2  C   UNL     1       0.345   2.247  -1.727  0.00  0.00    -0.001 A 
ATOM      3  C   UNL     1       0.439   0.904  -1.936  0.00  0.00    +0.126 A 
ATOM      4  N   UNL     1       1.102   0.371  -0.874  0.00  0.00    -0.218 N 
ATOM      5  N   UNL     1       1.422   1.419  -0.001  0.00  0.00    -0.169 NA
ENDROOT
BRANCH   3   6
ATOM      6  N   UNL     1      -0.053   0.206  -3.035  0.00  0.00    -0.318 N 
ATOM      7  C   UNL     1       0.859  -0.410  -4.010  0.00  0.00    +0.088 C 
ATOM      8  C   UNL     1       0.438  -1.869  -4.216  0.00  0.00    -0.060 C 
ATOM      9  N   UNL     1      -0.979  -1.919  -4.597  0.00  0.00    +0.380 N 
ATOM     10  C   UNL     1      -1.811  -1.419  -3.495  0.00  0.00    -0.060 C 
ATOM     11  C   UNL     1      -1.501   0.057  -3.251  0.00  0.00    +0.088 C 
ATOM     12  C   UNL     1      -1.355  -3.306  -4.901  0.00  0.00    -0.096 C 
ATOM     13  H   UNL     1      -1.127  -1.347  -5.415  0.00  0.00    -0.082 HD
ENDBRANCH   3   6
BRANCH   4  14
ATOM     14  C   UNL     1       1.412  -0.983  -0.689  0.00  0.00    +0.068 A 
ATOM     15  C   UNL     1       0.492  -1.962  -1.040  0.00  0.00    +0.028 A 
ATOM     16  C   UNL     1       0.801  -3.295  -0.857  0.00  0.00    +0.002 A 
ATOM     17  C   UNL     1       2.025  -3.656  -0.324  0.00  0.00    +0.003 A 
ATOM     18  C   UNL     1       2.943  -2.683   0.026  0.00  0.00    -0.048 A 
ATOM     19  C   UNL     1       2.643  -1.348  -0.160  0.00  0.00    +0.031 A 
ATOM     20  C   UNL     1       4.276  -3.081   0.607  0.00  0.00    +0.044 C 
ENDBRANCH   4  14
BRANCH   1  22
ATOM     21  C   UNL     1       2.389   4.561  -0.368  0.00  0.00    +0.010 C 
ATOM     22  C   UNL     1       1.094   3.902   0.113  0.00  0.00    +0.054 C 
ENDBRANCH   1  22
BRANCH   2  23
ATOM     23  C   UNL     1      -0.312   3.244  -2.646  0.00  0.00    -0.037 C 
BRANCH  23  24
ATOM     24  N   UNL     1       0.691   4.207  -3.120  0.00  0.00    +0.387 N 
ATOM     25  H   UNL     1       1.184   4.596  -2.331  0.00  0.00    -0.080 HD
BRANCH  24  26
ATOM     26  C   UNL     1       1.644   3.525  -4.005  0.00  0.00    -0.074 C 
ATOM     27  C   UNL     1       2.477   2.533  -3.190  0.00  0.00    -0.013 C 
ATOM     28  C   UNL     1       0.879   2.773  -5.097  0.00  0.00    -0.013 C 
ENDBRANCH  24  26
BRANCH  24  29
ATOM     29  C   UNL     1       0.022   5.286  -3.860  0.00  0.00    -0.038 C 
BRANCH  29  30
ATOM     30  C   UNL     1       1.030   6.347  -4.222  0.00  0.00    -0.022 A 
ATOM     31  C   UNL     1       1.203   7.445  -3.401  0.00  0.00    +0.005 A 
ATOM     32  C   UNL     1       2.127   8.418  -3.733  0.00  0.00    +0.001 A 
ATOM     33  C   UNL     1       2.880   8.295  -4.886  0.00  0.00    +0.007 A 
ATOM     34  C   UNL     1       2.711   7.199  -5.709  0.00  0.00    -0.009 A 
ATOM     35  C   UNL     1       1.788   6.218  -5.376  0.00  0.00    +0.121 A 
ATOM     36  C   UNL     1       3.533   7.066  -6.966  0.00  0.00    +0.047 C 
BRANCH  35  37
ATOM     37  O   UNL     1       1.624   5.136  -6.181  0.00  0.00    -0.506 OA
ATOM     38  H   UNL     1       0.957   5.256  -6.870  0.00  0.00    +0.292 HD
ENDBRANCH  35  37
ENDBRANCH  29  30
ENDBRANCH  24  29
ENDBRANCH  23  24
ENDBRANCH   2  23
TORSDOF 9
