REMARK  Name = ZINC36307878
REMARK  16 active torsions:
REMARK  status: ('A' for Active; 'I' for Inactive)
REMARK    1  A    between atoms: C_1  and  C_2
REMARK    2  A    between atoms: C_2  and  C_3
REMARK    3  A    between atoms: C_2  and  C_4
REMARK    4  A    between atoms: C_5  and  C_23
REMARK    5  A    between atoms: C_6  and  O_15
REMARK    6  A    between atoms: N_7  and  C_9
REMARK    7  A    between atoms: O_15  and  C_16
REMARK    8  A    between atoms: C_23  and  N_24
REMARK    9  A    between atoms: N_24  and  C_25
REMARK   10  A    between atoms: N_24  and  C_38
REMARK   11  A    between atoms: C_25  and  C_26
REMARK   12  A    between atoms: C_26  and  C_28
REMARK   13  A    between atoms: C_26  and  O_37
REMARK   14  A    between atoms: C_28  and  O_29
REMARK   15  A    between atoms: O_29  and  C_30
REMARK   16  A    between atoms: C_30  and  C_31
REMARK                            x       y       z     vdW  Elec       q    Type
REMARK                         _______ _______ _______ _____ _____    ______ ____
ROOT
ATOM      1  C   UNL     1      -0.827  -0.422   0.043  0.00  0.00    +0.071 A 
ATOM      2  C   UNL     1      -1.468  -1.446  -0.660  0.00  0.00    +0.021 A 
ATOM      3  C   UNL     1      -2.578  -1.802   0.041  0.00  0.00    +0.225 A 
ATOM      4  N   UNL     1      -2.627  -1.020   1.152  0.00  0.00    -0.200 N 
ATOM      5  N   UNL     1      -1.515  -0.169   1.127  0.00  0.00    -0.168 NA
ENDROOT
BRANCH   4   6
ATOM      6  C   UNL     1      -3.614  -1.060   2.147  0.00  0.00    +0.069 A 
ATOM      7  C   UNL     1      -4.952  -1.177   1.796  0.00  0.00    +0.028 A 
ATOM      8  C   UNL     1      -5.921  -1.217   2.779  0.00  0.00    +0.002 A 
ATOM      9  C   UNL     1      -5.560  -1.141   4.112  0.00  0.00    +0.000 A 
ATOM     10  C   UNL     1      -4.228  -1.025   4.465  0.00  0.00    +0.002 A 
ATOM     11  C   UNL     1      -3.254  -0.990   3.486  0.00  0.00    +0.028 A 
ENDBRANCH   4   6
BRANCH   1  13
ATOM     12  C   UNL     1       0.178   1.768  -0.546  0.00  0.00    +0.014 C 
ATOM     13  C   UNL     1       0.445   0.271  -0.375  0.00  0.00    +0.034 C 
ATOM     14  C   UNL     1       1.515   0.063   0.699  0.00  0.00    +0.014 C 
ENDBRANCH   1  13
BRANCH   3  15
ATOM     15  O   UNL     1      -3.472  -2.763  -0.306  0.00  0.00    -0.435 OA
BRANCH  15  16
ATOM     16  C   UNL     1      -4.499  -2.413  -1.125  0.00  0.00    +0.165 A 
ATOM     17  C   UNL     1      -4.560  -1.132  -1.655  0.00  0.00    +0.049 A 
ATOM     18  C   UNL     1      -5.604  -0.779  -2.488  0.00  0.00    +0.004 A 
ATOM     19  C   UNL     1      -6.589  -1.700  -2.794  0.00  0.00    +0.003 A 
ATOM     20  C   UNL     1      -6.532  -2.977  -2.268  0.00  0.00    +0.042 A 
ATOM     21  C   UNL     1      -5.486  -3.338  -1.438  0.00  0.00    +0.165 A 
ATOM     22  F   UNL     1      -5.428  -4.588  -0.928  0.00  0.00    -0.202 F 
ENDBRANCH  15  16
ENDBRANCH   3  15
BRANCH   2  23
ATOM     23  C   UNL     1      -1.010  -2.049  -1.963  0.00  0.00    -0.035 C 
BRANCH  23  24
ATOM     24  N   UNL     1      -0.121  -3.186  -1.692  0.00  0.00    +0.386 N 
ATOM     25  H   UNL     1       0.639  -2.884  -1.099  0.00  0.00    -0.081 HD
BRANCH  24  26
ATOM     26  C   UNL     1      -0.876  -4.249  -1.016  0.00  0.00    -0.068 C 
ATOM     27  C   UNL     1      -0.622  -4.456   0.479  0.00  0.00    -0.017 C 
ATOM     28  C   UNL     1      -0.096  -5.474  -0.535  0.00  0.00    -0.017 C 
ENDBRANCH  24  26
BRANCH  24  29
ATOM     29  C   UNL     1       0.420  -3.698  -2.958  0.00  0.00    -0.044 C 
BRANCH  29  30
ATOM     30  C   UNL     1       1.322  -2.639  -3.594  0.00  0.00    +0.124 C 
BRANCH  30  31
ATOM     31  O   UNL     1       2.403  -2.340  -2.708  0.00  0.00    -0.391 OA
ATOM     32  H   UNL     1       2.962  -3.101  -2.499  0.00  0.00    +0.210 HD
ENDBRANCH  30  31
BRANCH  30  33
ATOM     33  C   UNL     1       1.877  -3.169  -4.917  0.00  0.00    +0.189 C 
BRANCH  33  34
ATOM     34  O   UNL     1       2.624  -2.139  -5.567  0.00  0.00    -0.373 OA
BRANCH  34  35
ATOM     35  C   UNL     1       3.189  -2.532  -6.819  0.00  0.00    +0.195 C 
BRANCH  35  36
ATOM     36  C   UNL     1       3.951  -1.375  -7.412  0.00  0.00    -0.022 A 
ATOM     37  C   UNL     1       3.307  -0.476  -8.242  0.00  0.00    +0.006 A 
ATOM     38  C   UNL     1       4.005   0.585  -8.787  0.00  0.00    +0.000 A 
ATOM     39  C   UNL     1       5.348   0.748  -8.500  0.00  0.00    +0.000 A 
ATOM     40  C   UNL     1       5.992  -0.150  -7.670  0.00  0.00    +0.000 A 
ATOM     41  C   UNL     1       5.292  -1.209  -7.122  0.00  0.00    +0.006 A 
ENDBRANCH  35  36
ENDBRANCH  34  35
ENDBRANCH  33  34
ENDBRANCH  30  33
ENDBRANCH  29  30
ENDBRANCH  24  29
ENDBRANCH  23  24
ENDBRANCH   2  23
TORSDOF 14
