REMARK  Name = ZINC40376848
REMARK  8 active torsions:
REMARK  status: ('A' for Active; 'I' for Inactive)
REMARK    1  A    between atoms: C_1  and  C_2
REMARK    2  A    between atoms: C_2  and  C_3
REMARK    3  A    between atoms: C_3  and  C_4
REMARK    4  A    between atoms: C_4  and  C_6
REMARK    5  A    between atoms: C_4  and  N_10
REMARK    6  A    between atoms: N_7  and  O_8
REMARK    7  A    between atoms: N_10  and  S_11
REMARK    8  A    between atoms: S_11  and  N_14
REMARK                            x       y       z     vdW  Elec       q    Type
REMARK                         _______ _______ _______ _____ _____    ______ ____
ROOT
ATOM      1  C   UNL     1      -1.394  -1.964  -0.140  0.00  0.00    +0.144 C 
ENDROOT
BRANCH   1   2
ATOM      2  C   UNL     1      -2.514  -2.880   0.283  0.00  0.00    +0.150 C 
ATOM      3  N   UNL     1      -2.835  -2.973   1.531  0.00  0.00    -0.075 NA
ATOM      4  N   UNL     1      -3.194  -3.617  -0.660  0.00  0.00    -0.343 N 
ATOM      5  H   UNL     1      -2.953  -3.548  -1.597  0.00  0.00    +0.144 HD
ATOM      6  H   UNL     1      -3.915  -4.207  -0.388  0.00  0.00    +0.144 HD
BRANCH   3   7
ATOM      7  O   UNL     1      -3.887  -3.833   1.929  0.00  0.00    -0.408 OA
ATOM      8  H   UNL     1      -4.054  -3.835   2.881  0.00  0.00    +0.328 HD
ENDBRANCH   3   7
ENDBRANCH   1   2
BRANCH   1   9
ATOM      9  N   UNL     1      -0.826  -2.439  -1.405  0.00  0.00    -0.169 NA
ATOM     10  H   UNL     1      -1.375  -2.461  -2.204  0.00  0.00    +0.150 HD
BRANCH   9  11
ATOM     11  S   UNL     1       0.751  -2.939  -1.468  0.00  0.00    +0.098 S 
ATOM     12  O   UNL     1       0.995  -3.344  -2.808  0.00  0.00    -0.141 OA
ATOM     13  O   UNL     1       1.522  -1.935  -0.823  0.00  0.00    -0.141 OA
BRANCH  11  14
ATOM     14  N   UNL     1       0.871  -4.301  -0.533  0.00  0.00    -0.167 NA
ATOM     15  C   UNL     1       1.186  -4.201   0.898  0.00  0.00    +0.110 C 
ATOM     16  C   UNL     1       0.116  -4.956   1.693  0.00  0.00    +0.017 C 
ATOM     17  C   UNL     1       0.015  -6.391   1.170  0.00  0.00    +0.003 C 
ATOM     18  C   UNL     1      -0.401  -6.371  -0.303  0.00  0.00    +0.017 C 
ATOM     19  C   UNL     1       0.658  -5.632  -1.119  0.00  0.00    +0.110 C 
ENDBRANCH  11  14
ENDBRANCH   9  11
ENDBRANCH   1   9
BRANCH   1  20
ATOM     20  C   UNL     1      -1.937  -0.546  -0.326  0.00  0.00    +0.028 C 
BRANCH  20  22
ATOM     21  C   UNL     1      -1.335   1.801  -0.934  0.00  0.00    +0.004 C 
ATOM     22  C   UNL     1      -0.781   0.406  -0.638  0.00  0.00    -0.001 C 
ENDBRANCH  20  22
ENDBRANCH   1  20
TORSDOF 7
