REMARK  Name = ZINC25782523
REMARK  8 active torsions:
REMARK  status: ('A' for Active; 'I' for Inactive)
REMARK    1  A    between atoms: C_1  and  C_2
REMARK    2  A    between atoms: C_4  and  C_8
REMARK    3  A    between atoms: C_5  and  C_7
REMARK    4  A    between atoms: C_8  and  C_31
REMARK    5  A    between atoms: N_9  and  N_10
REMARK    6  A    between atoms: C_11  and  C_13
REMARK    7  A    between atoms: C_14  and  C_24
REMARK    8  A    between atoms: C_24  and  N_25
REMARK                            x       y       z     vdW  Elec       q    Type
REMARK                         _______ _______ _______ _____ _____    ______ ____
ROOT
ATOM      1  C   UNL     1      -1.589   4.043   9.518  0.00  0.00    +0.154 A 
ATOM      2  C   UNL     1      -2.476   4.363  10.513  0.00  0.00    +0.079 A 
ATOM      3  N   UNL     1      -1.748   4.577  11.611  0.00  0.00    -0.135 NA
ATOM      4  N   UNL     1      -0.504   4.407  11.340  0.00  0.00    -0.058 NA
ATOM      5  N   UNL     1      -0.348   4.080  10.105  0.00  0.00    -0.183 N 
ATOM      6  C   UNL     1       0.870   3.814   9.472  0.00  0.00    +0.241 A 
ATOM      7  C   UNL     1       2.180   3.746  10.125  0.00  0.00    +0.206 A 
ATOM      8  N   UNL     1       3.078   3.477   9.218  0.00  0.00    -0.032 NA
ATOM      9  O   UNL     1       2.414   3.362   7.971  0.00  0.00    -0.239 OA
ATOM     10  N   UNL     1       1.033   3.578   8.200  0.00  0.00    -0.027 NA
ATOM     11  N   UNL     1       2.424   3.935  11.481  0.00  0.00    -0.337 N 
ATOM     12  H   UNL     1       3.450   3.861  11.870  0.00  0.00    +0.144 HD
ATOM     13  H   UNL     1       1.591   4.157  12.164  0.00  0.00    +0.144 HD
ENDROOT
BRANCH   1  15
ATOM     14  N   UNL     1      -1.925   2.435   7.711  0.00  0.00    -0.201 N 
ATOM     15  C   UNL     1      -1.902   3.720   8.118  0.00  0.00    +0.284 C 
ATOM     16  O   UNL     1      -2.140   4.613   7.326  0.00  0.00    -0.267 OA
ATOM     17  H   UNL     1      -1.641   1.632   8.408  0.00  0.00    +0.178 HD
BRANCH  14  19
ATOM     18  C   UNL     1      -2.422   0.880   6.037  0.00  0.00    +0.064 C 
ATOM     19  N   UNL     1      -2.310   2.121   6.401  0.00  0.00    -0.184 NA
ATOM     20  C   UNL     1      -2.068  -0.223   7.001  0.00  0.00    +0.068 C 
BRANCH  18  24
ATOM     21  C   UNL     1      -3.692  -2.372   2.308  0.00  0.00    +0.051 C 
ATOM     22  C   UNL     1      -3.468  -1.049   2.995  0.00  0.00    -0.012 A 
ATOM     23  C   UNL     1      -3.029  -0.816   4.249  0.00  0.00    +0.021 A 
ATOM     24  C   UNL     1      -2.895   0.550   4.681  0.00  0.00    +0.008 A 
ATOM     25  C   UNL     1      -3.224   1.532   3.784  0.00  0.00    -0.004 A 
ATOM     26  S   UNL     1      -3.710   0.595   2.348  0.00  0.00    -0.098 S 
ATOM     27  C   UNL     1      -3.179   3.028   3.965  0.00  0.00    +0.052 C 
ENDBRANCH  18  24
ENDBRANCH  14  19
ENDBRANCH   1  15
BRANCH   2  28
ATOM     28  C   UNL     1      -3.975   4.457  10.391  0.00  0.00    -0.018 C 
BRANCH  28  29
ATOM     29  N   UNL     1      -4.572   3.147  10.685  0.00  0.00    +0.383 N 
ATOM     30  C   UNL     1      -4.195   2.156   9.669  0.00  0.00    -0.078 C 
ATOM     31  C   UNL     1      -4.712   0.777  10.083  0.00  0.00    -0.019 C 
ATOM     32  C   UNL     1      -6.236   0.831  10.229  0.00  0.00    -0.004 C 
ATOM     33  C   UNL     1      -6.604   1.904  11.257  0.00  0.00    -0.019 C 
ATOM     34  C   UNL     1      -6.032   3.251  10.809  0.00  0.00    -0.078 C 
ATOM     35  H   UNL     1      -4.178   2.803  11.652  0.00  0.00    -0.081 HD
ENDBRANCH  28  29
ENDBRANCH   2  28
TORSDOF 5
