REMARK  Name = ZINC63429902
REMARK  8 active torsions:
REMARK  status: ('A' for Active; 'I' for Inactive)
REMARK    1  A    between atoms: C_1  and  C_2
REMARK    2  A    between atoms: C_3  and  C_26
REMARK    3  A    between atoms: C_7  and  N_25
REMARK    4  A    between atoms: C_9  and  S_11
REMARK    5  A    between atoms: S_11  and  C_12
REMARK    6  A    between atoms: C_12  and  C_13
REMARK    7  A    between atoms: N_15  and  C_16
REMARK    8  A    between atoms: N_19  and  C_22
REMARK                            x       y       z     vdW  Elec       q    Type
REMARK                         _______ _______ _______ _____ _____    ______ ____
ROOT
ATOM      1  S   UNL     1       1.725  -3.460   4.328  0.00  0.00    -0.077 S 
ENDROOT
BRANCH   1  10
ATOM      2  C   UNL     1      -1.287   1.427   0.444  0.00  0.00    +0.045 C 
ATOM      3  C   UNL     1      -1.146  -0.073   0.394  0.00  0.00    -0.028 A 
ATOM      4  C   UNL     1      -1.693  -0.773  -0.610  0.00  0.00    -0.008 A 
ATOM      5  S   UNL     1      -1.260  -2.459  -0.227  0.00  0.00    -0.073 S 
ATOM      6  C   UNL     1      -0.356  -2.179   1.272  0.00  0.00    +0.115 A 
ATOM      7  C   UNL     1      -0.410  -0.777   1.431  0.00  0.00    +0.050 A 
ATOM      8  C   UNL     1       0.255  -0.264   2.579  0.00  0.00    +0.129 A 
ATOM      9  N   UNL     1       0.869  -1.101   3.400  0.00  0.00    -0.207 NA
ATOM     10  C   UNL     1       0.886  -2.411   3.188  0.00  0.00    +0.191 A 
ATOM     11  N   UNL     1       0.274  -2.947   2.139  0.00  0.00    -0.214 NA
ATOM     12  C   UNL     1      -2.486  -0.257  -1.783  0.00  0.00    +0.052 C 
BRANCH   8  13
ATOM     13  N   UNL     1       0.261   1.095   2.835  0.00  0.00    -0.343 N 
ATOM     14  H   UNL     1       0.109   1.725   2.113  0.00  0.00    +0.144 HD
ATOM     15  H   UNL     1       0.416   1.418   3.736  0.00  0.00    +0.144 HD
ENDBRANCH   8  13
ENDBRANCH   1  10
BRANCH   1  16
ATOM     16  C   UNL     1       2.381  -2.318   5.575  0.00  0.00    +0.173 C 
BRANCH  16  17
ATOM     17  C   UNL     1       3.132  -3.096   6.624  0.00  0.00    +0.224 C 
ATOM     18  O   UNL     1       3.217  -4.303   6.538  0.00  0.00    -0.275 OA
ATOM     19  N   UNL     1       3.710  -2.451   7.657  0.00  0.00    -0.312 N 
ATOM     20  H   UNL     1       3.642  -1.486   7.725  0.00  0.00    +0.149 HD
BRANCH  19  21
ATOM     21  C   UNL     1       4.440  -3.208   8.677  0.00  0.00    +0.069 C 
ATOM     22  C   UNL     1       3.461  -3.711   9.741  0.00  0.00    +0.003 C 
ATOM     23  C   UNL     1       4.239  -4.431  10.844  0.00  0.00    -0.077 C 
ATOM     24  N   UNL     1       5.197  -3.504  11.457  0.00  0.00    +0.382 N 
ATOM     25  C   UNL     1       6.184  -3.074  10.458  0.00  0.00    -0.077 C 
ATOM     26  C   UNL     1       5.480  -2.301   9.341  0.00  0.00    +0.003 C 
ATOM     27  H   UNL     1       4.705  -2.698  11.810  0.00  0.00    -0.081 HD
BRANCH  24  28
ATOM     28  C   UNL     1       5.887  -4.178  12.566  0.00  0.00    -0.069 C 
ATOM     29  C   UNL     1       5.584  -3.693  13.985  0.00  0.00    -0.017 C 
ATOM     30  C   UNL     1       6.934  -3.373  13.339  0.00  0.00    -0.017 C 
ENDBRANCH  24  28
ENDBRANCH  19  21
ENDBRANCH  16  17
ENDBRANCH   1  16
TORSDOF 6
