REMARK  Name = ZINC23135088
REMARK  5 active torsions:
REMARK  status: ('A' for Active; 'I' for Inactive)
REMARK    1  A    between atoms: C_1  and  O_2
REMARK    2  A    between atoms: O_2  and  C_3
REMARK    3  A    between atoms: C_6  and  N_20
REMARK    4  A    between atoms: C_8  and  C_9
REMARK    5  A    between atoms: C_14  and  C_17
REMARK                            x       y       z     vdW  Elec       q    Type
REMARK                         _______ _______ _______ _____ _____    ______ ____
ROOT
ATOM      1  C   UNL     1       5.651   2.465  -1.608  0.00  0.00    +0.253 C 
ATOM      2  O   UNL     1       5.741   3.302  -0.730  0.00  0.00    -0.270 OA
ATOM      3  N   UNL     1       4.511   1.762  -1.755  0.00  0.00    -0.261 N 
ATOM      4  C   UNL     1       3.438   1.993  -0.903  0.00  0.00    +0.165 A 
ATOM      5  N   UNL     1       2.255   1.409  -0.884  0.00  0.00    -0.229 NA
ATOM      6  C   UNL     1       1.338   1.754  -0.001  0.00  0.00    +0.054 A 
ATOM      7  C   UNL     1       1.640   2.720   0.901  0.00  0.00    +0.072 A 
ATOM      8  S   UNL     1       3.312   3.118   0.413  0.00  0.00    -0.060 S 
ATOM      9  H   UNL     1       4.430   1.005  -2.549  0.00  0.00    +0.157 HD
ENDROOT
BRANCH   1  15
ATOM     10  C   UNL     1       7.976   2.954  -2.366  0.00  0.00    +0.132 A 
ATOM     11  C   UNL     1       9.043   2.711  -3.218  0.00  0.00    +0.048 A 
ATOM     12  C   UNL     1       8.932   1.759  -4.213  0.00  0.00    +0.036 A 
ATOM     13  C   UNL     1       7.760   1.036  -4.363  0.00  0.00    +0.127 A 
ATOM     14  C   UNL     1       6.692   1.260  -3.522  0.00  0.00    +0.049 A 
ATOM     15  C   UNL     1       6.790   2.220  -2.512  0.00  0.00    +0.081 A 
BRANCH  13  16
ATOM     16  N   UNL     1       7.654   0.019  -5.434  0.00  0.00    +0.056 N 
ATOM     17  O   UNL     1       6.625  -0.618  -5.569  0.00  0.00    -0.126 OA
ATOM     18  O   UNL     1       8.596  -0.181  -6.179  0.00  0.00    -0.126 OA
ENDBRANCH  13  16
BRANCH  10  20
ATOM     19  C   UNL     1       9.320   4.600  -1.305  0.00  0.00    +0.277 C 
ATOM     20  O   UNL     1       8.082   3.892  -1.393  0.00  0.00    -0.494 OA
ENDBRANCH  10  20
ENDBRANCH   1  15
BRANCH   6  21
ATOM     21  C   UNL     1      -0.013   1.086   0.008  0.00  0.00    +0.038 C 
ATOM     22  C   UNL     1      -1.136   1.773   0.788  0.00  0.00    +0.010 C 
ATOM     23  C   UNL     1      -1.150   1.781  -0.743  0.00  0.00    +0.010 C 
ENDBRANCH   6  21
TORSDOF 4
