REMARK  Name = ZINC36638221
REMARK  19 active torsions:
REMARK  status: ('A' for Active; 'I' for Inactive)
REMARK    1  A    between atoms: C_1  and  C_2
REMARK    2  A    between atoms: C_2  and  N_3
REMARK    3  A    between atoms: N_3  and  C_4
REMARK    4  A    between atoms: N_3  and  C_6
REMARK    5  A    between atoms: C_4  and  C_5
REMARK    6  A    between atoms: C_6  and  C_7
REMARK    7  A    between atoms: C_7  and  N_8
REMARK    8  A    between atoms: C_12  and  C_19
REMARK    9  A    between atoms: C_13  and  C_18
REMARK   10  A    between atoms: C_20  and  C_22
REMARK   11  A    between atoms: C_24  and  O_34
REMARK   12  A    between atoms: C_25  and  O_31
REMARK   13  A    between atoms: C_26  and  O_28
REMARK   14  A    between atoms: O_28  and  C_29
REMARK   15  A    between atoms: C_29  and  C_30
REMARK   16  A    between atoms: O_31  and  C_32
REMARK   17  A    between atoms: C_32  and  C_33
REMARK   18  A    between atoms: O_34  and  C_35
REMARK   19  A    between atoms: C_35  and  C_36
REMARK                            x       y       z     vdW  Elec       q    Type
REMARK                         _______ _______ _______ _____ _____    ______ ____
ROOT
ATOM      1  N   UNL     1      -0.848  -4.237   1.068  0.00  0.00    -0.248 N 
ATOM      2  C   UNL     1      -0.147  -4.605   2.203  0.00  0.00    +0.168 A 
ATOM      3  N   UNL     1       0.582  -5.677   2.410  0.00  0.00    -0.224 NA
ATOM      4  C   UNL     1       1.217  -5.909   3.579  0.00  0.00    +0.083 A 
ATOM      5  C   UNL     1       2.026  -7.015   3.929  0.00  0.00    -0.021 A 
ATOM      6  C   UNL     1       2.600  -7.097   5.170  0.00  0.00    -0.045 A 
ATOM      7  C   UNL     1       2.412  -6.106   6.124  0.00  0.00    +0.005 A 
ATOM      8  C   UNL     1       1.626  -5.011   5.816  0.00  0.00    +0.017 A 
ATOM      9  C   UNL     1       1.047  -4.920   4.575  0.00  0.00    +0.041 A 
ATOM     10  S   UNL     1       0.003  -3.737   3.758  0.00  0.00    -0.052 S 
ATOM     11  C   UNL     1       3.456  -8.290   5.508  0.00  0.00    +0.044 C 
ATOM     12  C   UNL     1       2.259  -8.115   2.926  0.00  0.00    +0.046 C 
ATOM     13  C   UNL     1      -0.838  -5.035  -0.018  0.00  0.00    +0.252 C 
ATOM     14  O   UNL     1      -0.238  -6.092   0.009  0.00  0.00    -0.270 OA
ENDROOT
BRANCH  13  15
ATOM     15  C   UNL     1      -1.555  -4.626  -1.241  0.00  0.00    +0.044 A 
ATOM     16  C   UNL     1      -1.665  -3.272  -1.568  0.00  0.00    +0.062 A 
ATOM     17  C   UNL     1      -2.338  -2.891  -2.714  0.00  0.00    +0.166 A 
ATOM     18  C   UNL     1      -2.905  -3.856  -3.543  0.00  0.00    +0.204 A 
ATOM     19  C   UNL     1      -2.796  -5.206  -3.220  0.00  0.00    +0.166 A 
ATOM     20  C   UNL     1      -2.120  -5.592  -2.078  0.00  0.00    +0.062 A 
BRANCH  19  21
ATOM     21  O   UNL     1      -3.351  -6.145  -4.031  0.00  0.00    -0.488 OA
BRANCH  21  22
ATOM     22  C   UNL     1      -3.202  -7.511  -3.639  0.00  0.00    +0.226 C 
ATOM     23  C   UNL     1      -3.886  -8.415  -4.667  0.00  0.00    +0.048 C 
ENDBRANCH  21  22
ENDBRANCH  19  21
BRANCH  18  24
ATOM     24  O   UNL     1      -3.566  -3.479  -4.669  0.00  0.00    -0.485 OA
BRANCH  24  25
ATOM     25  C   UNL     1      -2.795  -3.369  -5.867  0.00  0.00    +0.226 C 
ATOM     26  C   UNL     1      -3.704  -2.937  -7.020  0.00  0.00    +0.048 C 
ENDBRANCH  24  25
ENDBRANCH  18  24
BRANCH  17  27
ATOM     27  O   UNL     1      -2.446  -1.573  -3.032  0.00  0.00    -0.488 OA
BRANCH  27  28
ATOM     28  C   UNL     1      -2.268  -0.633  -1.971  0.00  0.00    +0.226 C 
ATOM     29  C   UNL     1      -2.251   0.786  -2.544  0.00  0.00    +0.048 C 
ENDBRANCH  27  28
ENDBRANCH  17  27
ENDBRANCH  13  15
BRANCH   1  30
ATOM     30  C   UNL     1      -1.600  -2.980   1.046  0.00  0.00    +0.097 C 
BRANCH  30  31
ATOM     31  C   UNL     1      -0.625  -1.801   1.059  0.00  0.00    -0.059 C 
BRANCH  31  32
ATOM     32  N   UNL     1      -1.192  -0.705   1.856  0.00  0.00    +0.380 N 
ATOM     33  H   UNL     1      -2.101  -0.461   1.493  0.00  0.00    -0.082 HD
BRANCH  32  35
ATOM     34  C   UNL     1      -2.026  -0.040   4.060  0.00  0.00    -0.017 C 
ATOM     35  C   UNL     1      -1.322  -1.134   3.255  0.00  0.00    -0.082 C 
ENDBRANCH  32  35
BRANCH  32  36
ATOM     36  C   UNL     1      -0.304   0.463   1.782  0.00  0.00    -0.082 C 
ATOM     37  C   UNL     1      -0.211   0.942   0.332  0.00  0.00    -0.017 C 
ENDBRANCH  32  36
ENDBRANCH  31  32
ENDBRANCH  30  31
ENDBRANCH   1  30
TORSDOF 12
