REMARK  Name = ZINC44924500
REMARK  4 active torsions:
REMARK  status: ('A' for Active; 'I' for Inactive)
REMARK    1  A    between atoms: C_6  and  C_10
REMARK    2  A    between atoms: C_10  and  S_11
REMARK    3  A    between atoms: S_11  and  C_12
REMARK    4  A    between atoms: C_16  and  C_18
REMARK                            x       y       z     vdW  Elec       q    Type
REMARK                         _______ _______ _______ _____ _____    ______ ____
ROOT
ATOM      1  S   UNL     1       4.061  -3.820   1.651  0.00  0.00    -0.080 S 
ENDROOT
BRANCH   1   2
ATOM      2  C   UNL     1       5.015  -5.289   1.464  0.00  0.00    +0.189 A 
ATOM      3  N   UNL     1       5.299  -5.726   0.245  0.00  0.00    -0.230 NA
ATOM      4  C   UNL     1       6.013  -6.825   0.070  0.00  0.00    +0.116 A 
ATOM      5  C   UNL     1       6.466  -7.521   1.181  0.00  0.00    +0.052 A 
ATOM      6  C   UNL     1       6.151  -7.037   2.441  0.00  0.00    +0.148 A 
ATOM      7  N   UNL     1       5.437  -5.928   2.546  0.00  0.00    -0.218 NA
BRANCH   6   8
ATOM      8  C   UNL     1       6.622  -7.761   3.676  0.00  0.00    +0.434 C 
ATOM      9  F   UNL     1       7.874  -7.266   4.058  0.00  0.00    -0.164 F 
ATOM     10  F   UNL     1       5.705  -7.559   4.713  0.00  0.00    -0.164 F 
ATOM     11  F   UNL     1       6.724  -9.129   3.404  0.00  0.00    -0.164 F 
ENDBRANCH   6   8
ENDBRANCH   1   2
BRANCH   1  12
ATOM     12  C   UNL     1       3.714  -3.302  -0.053  0.00  0.00    +0.134 C 
BRANCH  12  18
ATOM     13  C   UNL     1      -0.016   1.351   0.009  0.00  0.00    +0.038 A 
ATOM     14  C   UNL     1       1.197   2.055   0.002  0.00  0.00    +0.116 A 
ATOM     15  N   UNL     1       2.338   1.408  -0.013  0.00  0.00    -0.220 NA
ATOM     16  C   UNL     1       2.371   0.068  -0.020  0.00  0.00    +0.235 A 
ATOM     17  N   UNL     1       3.378  -0.793  -0.035  0.00  0.00    -0.215 NA
ATOM     18  C   UNL     1       2.893  -2.039  -0.037  0.00  0.00    +0.072 A 
ATOM     19  C   UNL     1       1.545  -1.976  -0.024  0.00  0.00    +0.118 A 
ATOM     20  N   UNL     1       1.204  -0.651  -0.013  0.00  0.00    -0.291 N 
ATOM     21  C   UNL     1       0.002  -0.004   0.002  0.00  0.00    +0.095 A 
ENDBRANCH  12  18
ENDBRANCH   1  12
TORSDOF 4
