REMARK  Name = ZINC04575695
REMARK  4 active torsions:
REMARK  status: ('A' for Active; 'I' for Inactive)
REMARK    1  A    between atoms: C_1  and  C_2
REMARK    2  A    between atoms: C_5  and  N_8
REMARK    3  A    between atoms: C_9  and  C_10
REMARK    4  A    between atoms: C_15  and  N_16
REMARK                            x       y       z     vdW  Elec       q    Type
REMARK                         _______ _______ _______ _____ _____    ______ ____
ROOT
ATOM      1  C   UNL     1      -3.821   7.291  -0.135  0.00  0.00    +0.014 A 
ATOM      2  C   UNL     1      -2.692   8.111  -0.137  0.00  0.00    +0.012 A 
ATOM      3  C   UNL     1      -1.435   7.571   0.054  0.00  0.00    +0.013 A 
ATOM      4  C   UNL     1      -1.279   6.201   0.251  0.00  0.00    +0.035 A 
ATOM      5  C   UNL     1      -2.407   5.357   0.256  0.00  0.00    +0.054 A 
ATOM      6  C   UNL     1      -3.682   5.902   0.063  0.00  0.00    +0.045 A 
ATOM      7  C   UNL     1      -2.245   3.909   0.464  0.00  0.00    +0.196 C 
ATOM      8  O   UNL     1      -3.220   3.182   0.468  0.00  0.00    -0.287 OA
ATOM      9  C   UNL     1      -0.897   3.338   0.667  0.00  0.00    +0.033 A 
ATOM     10  C   UNL     1      -0.736   1.968   0.857  0.00  0.00    +0.012 A 
ATOM     11  C   UNL     1       0.529   1.443   1.051  0.00  0.00    +0.001 A 
ATOM     12  C   UNL     1       1.639   2.269   1.047  0.00  0.00    +0.001 A 
ATOM     13  C   UNL     1       1.498   3.632   0.853  0.00  0.00    +0.012 A 
ATOM     14  C   UNL     1       0.231   4.178   0.662  0.00  0.00    +0.033 A 
ATOM     15  C   UNL     1       0.069   5.631   0.454  0.00  0.00    +0.195 C 
ATOM     16  O   UNL     1       1.044   6.358   0.451  0.00  0.00    -0.287 OA
ENDROOT
BRANCH   6  17
ATOM     17  N   UNL     1      -4.794   5.085   0.067  0.00  0.00    -0.357 N 
ATOM     18  H   UNL     1      -5.635   5.412   0.423  0.00  0.00    +0.142 HD
ATOM     19  H   UNL     1      -4.735   4.183  -0.287  0.00  0.00    +0.142 HD
ENDBRANCH   6  17
BRANCH   1  21
ATOM     20  N   UNL     1      -6.197   7.098  -0.441  0.00  0.00    -0.255 NA
ATOM     21  C   UNL     1      -5.154   7.875  -0.339  0.00  0.00    +0.121 C 
BRANCH  20  26
ATOM     22  C   UNL     1     -11.318   9.338  -1.222  0.00  0.00    +0.044 C 
ATOM     23  C   UNL     1      -9.951   8.740  -1.014  0.00  0.00    -0.050 A 
ATOM     24  C   UNL     1      -9.553   7.651  -1.769  0.00  0.00    +0.005 A 
ATOM     25  C   UNL     1      -8.303   7.098  -1.584  0.00  0.00    +0.028 A 
ATOM     26  C   UNL     1      -7.437   7.641  -0.631  0.00  0.00    +0.064 A 
ATOM     27  C   UNL     1      -7.847   8.739   0.131  0.00  0.00    +0.028 A 
ATOM     28  C   UNL     1      -9.098   9.284  -0.069  0.00  0.00    +0.005 A 
ENDBRANCH  20  26
ENDBRANCH   1  21
TORSDOF 3
