REMARK  Name = ZINC20109435
REMARK  13 active torsions:
REMARK  status: ('A' for Active; 'I' for Inactive)
REMARK    1  A    between atoms: C_1  and  C_2
REMARK    2  A    between atoms: C_2  and  O_3
REMARK    3  A    between atoms: O_3  and  C_4
REMARK    4  A    between atoms: C_11  and  C_16
REMARK    5  A    between atoms: C_16  and  N_17
REMARK    6  A    between atoms: N_17  and  C_18
REMARK    7  A    between atoms: N_17  and  C_27
REMARK    8  A    between atoms: C_18  and  C_19
REMARK    9  A    between atoms: C_19  and  C_20
REMARK   10  A    between atoms: C_25  and  C_26
REMARK   11  A    between atoms: C_27  and  C_28
REMARK   12  A    between atoms: N_32  and  C_33
REMARK   13  A    between atoms: C_33  and  C_34
REMARK                            x       y       z     vdW  Elec       q    Type
REMARK                         _______ _______ _______ _____ _____    ______ ____
ROOT
ATOM      1  N   UNL     1       2.196  -2.196  -1.316  0.00  0.00    -0.290 NA
ENDROOT
BRANCH   1   2
ATOM      2  C   UNL     1       3.134  -3.284  -1.008  0.00  0.00    +0.125 C 
BRANCH   2  10
ATOM      3  C   UNL     1       5.920  -5.203  -6.202  0.00  0.00    +0.121 A 
ATOM      4  C   UNL     1       5.012  -6.219  -6.492  0.00  0.00    +0.047 A 
ATOM      5  C   UNL     1       3.936  -6.456  -5.666  0.00  0.00    +0.030 A 
ATOM      6  C   UNL     1       3.747  -5.675  -4.530  0.00  0.00    +0.049 A 
ATOM      7  C   UNL     1       4.661  -4.648  -4.233  0.00  0.00    +0.002 A 
ATOM      8  C   UNL     1       5.751  -4.418  -5.080  0.00  0.00    +0.055 A 
ATOM      9  C   UNL     1       4.451  -3.835  -3.034  0.00  0.00    +0.020 A 
ATOM     10  C   UNL     1       3.379  -4.102  -2.249  0.00  0.00    +0.031 A 
ATOM     11  C   UNL     1       2.494  -5.148  -2.588  0.00  0.00    +0.254 A 
ATOM     12  O   UNL     1       1.538  -5.375  -1.865  0.00  0.00    -0.268 OA
ATOM     13  N   UNL     1       2.675  -5.897  -3.690  0.00  0.00    -0.322 N 
ATOM     14  H   UNL     1       1.953  -6.695  -3.917  0.00  0.00    +0.169 HD
BRANCH   3  15
ATOM     15  O   UNL     1       6.976  -4.984  -7.029  0.00  0.00    -0.492 OA
BRANCH  15  17
ATOM     16  C   UNL     1       8.332  -5.438  -8.977  0.00  0.00    +0.048 C 
ATOM     17  C   UNL     1       7.092  -5.833  -8.173  0.00  0.00    +0.225 C 
ENDBRANCH  15  17
ENDBRANCH   3  15
ENDBRANCH   2  10
ENDBRANCH   1   2
BRANCH   1  18
ATOM     18  C   UNL     1       0.868  -2.724  -1.653  0.00  0.00    +0.090 C 
BRANCH  18  19
ATOM     19  C   UNL     1      -0.028  -1.583  -2.137  0.00  0.00    +0.051 C 
BRANCH  19  20
ATOM     20  C   UNL     1      -1.344  -2.143  -2.611  0.00  0.00    -0.043 A 
ATOM     21  C   UNL     1      -1.531  -2.432  -3.950  0.00  0.00    +0.004 A 
ATOM     22  C   UNL     1      -2.736  -2.950  -4.383  0.00  0.00    +0.000 A 
ATOM     23  C   UNL     1      -3.759  -3.170  -3.480  0.00  0.00    +0.000 A 
ATOM     24  C   UNL     1      -3.574  -2.876  -2.142  0.00  0.00    +0.003 A 
ATOM     25  C   UNL     1      -2.366  -2.363  -1.707  0.00  0.00    -0.047 A 
ATOM     26  C   UNL     1      -2.165  -2.042  -0.249  0.00  0.00    +0.044 C 
ENDBRANCH  19  20
ENDBRANCH  18  19
ENDBRANCH   1  18
BRANCH   1  27
ATOM     27  C   UNL     1       2.115  -1.240  -0.203  0.00  0.00    +0.162 C 
BRANCH  27  28
ATOM     28  C   UNL     1       3.425  -0.506  -0.075  0.00  0.00    +0.166 A 
ATOM     29  N   UNL     1       3.807   0.540  -0.766  0.00  0.00    -0.112 NA
ATOM     30  N   UNL     1       4.985   0.875  -0.365  0.00  0.00    -0.023 NA
ATOM     31  N   UNL     1       5.364   0.069   0.564  0.00  0.00    -0.044 NA
ATOM     32  N   UNL     1       4.430  -0.796   0.772  0.00  0.00    -0.224 N 
BRANCH  32  33
ATOM     33  C   UNL     1       4.458  -1.890   1.747  0.00  0.00    +0.182 C 
BRANCH  33  34
ATOM     34  C   UNL     1       4.034  -1.371   3.096  0.00  0.00    -0.026 A 
ATOM     35  C   UNL     1       4.965  -0.791   3.938  0.00  0.00    +0.008 A 
ATOM     36  C   UNL     1       4.577  -0.310   5.173  0.00  0.00    +0.038 A 
ATOM     37  C   UNL     1       3.256  -0.418   5.574  0.00  0.00    +0.123 A 
ATOM     38  C   UNL     1       2.324  -1.004   4.732  0.00  0.00    +0.038 A 
ATOM     39  C   UNL     1       2.714  -1.479   3.495  0.00  0.00    +0.008 A 
ATOM     40  F   UNL     1       2.875   0.047   6.784  0.00  0.00    -0.205 F 
ENDBRANCH  33  34
ENDBRANCH  32  33
ENDBRANCH  27  28
ENDBRANCH   1  27
TORSDOF 11
