REMARK  Name = ZINC09436885
REMARK  7 active torsions:
REMARK  status: ('A' for Active; 'I' for Inactive)
REMARK    1  A    between atoms: C_1  and  C_2
REMARK    2  A    between atoms: C_2  and  O_3
REMARK    3  A    between atoms: O_3  and  C_4
REMARK    4  A    between atoms: C_7  and  C_11
REMARK    5  A    between atoms: C_8  and  O_10
REMARK    6  A    between atoms: C_12  and  C_18
REMARK    7  A    between atoms: C_13  and  C_17
REMARK                            x       y       z     vdW  Elec       q    Type
REMARK                         _______ _______ _______ _____ _____    ______ ____
ROOT
ATOM      1  C   UNL     1      -1.974  -6.085   0.120  0.00  0.00    +0.104 A 
ATOM      2  C   UNL     1      -0.949  -7.036  -0.116  0.00  0.00    +0.030 A 
ATOM      3  C   UNL     1      -1.540  -8.261  -0.210  0.00  0.00    +0.041 A 
ATOM      4  N   UNL     1      -2.868  -8.092  -0.042  0.00  0.00    -0.281 N 
ATOM      5  H   UNL     1      -3.535  -8.796  -0.060  0.00  0.00    +0.189 HD
ATOM      6  N   UNL     1      -3.119  -6.731   0.167  0.00  0.00    -0.173 NA
ATOM      7  C   UNL     1      -0.836  -9.569  -0.458  0.00  0.00    +0.065 C 
ENDROOT
BRANCH   2   8
ATOM      8  C   UNL     1       0.501  -6.750  -0.239  0.00  0.00    -0.014 A 
ATOM      9  C   UNL     1       0.978  -6.005  -1.316  0.00  0.00    +0.010 A 
ATOM     10  C   UNL     1       2.328  -5.742  -1.426  0.00  0.00    +0.020 A 
ATOM     11  C   UNL     1       3.209  -6.217  -0.469  0.00  0.00    +0.041 A 
ATOM     12  C   UNL     1       2.740  -6.958   0.602  0.00  0.00    +0.020 A 
ATOM     13  C   UNL     1       1.391  -7.221   0.724  0.00  0.00    +0.010 A 
ATOM     14 CL   UNL     1       4.906  -5.882  -0.613  0.00  0.00    -0.084 Cl
ENDBRANCH   2   8
BRANCH   1  18
ATOM     15  C   UNL     1      -1.439  -1.891   0.606  0.00  0.00    +0.124 A 
ATOM     16  C   UNL     1      -0.621  -2.781   1.291  0.00  0.00    +0.046 A 
ATOM     17  C   UNL     1      -0.793  -4.140   1.136  0.00  0.00    +0.017 A 
ATOM     18  C   UNL     1      -1.788  -4.625   0.289  0.00  0.00    +0.044 A 
ATOM     19  C   UNL     1      -2.611  -3.728  -0.401  0.00  0.00    +0.130 A 
ATOM     20  C   UNL     1      -2.435  -2.365  -0.234  0.00  0.00    +0.091 A 
BRANCH  19  21
ATOM     21  O   UNL     1      -3.583  -4.194  -1.228  0.00  0.00    -0.506 OA
ATOM     22  H   UNL     1      -4.435  -4.334  -0.794  0.00  0.00    +0.292 HD
ENDBRANCH  19  21
BRANCH  15  23
ATOM     23  O   UNL     1      -1.265  -0.553   0.763  0.00  0.00    -0.492 OA
BRANCH  23  25
ATOM     24  C   UNL     1      -0.177   1.395   1.692  0.00  0.00    +0.048 C 
ATOM     25  C   UNL     1      -0.220  -0.133   1.643  0.00  0.00    +0.225 C 
ENDBRANCH  23  25
ENDBRANCH  15  23
ENDBRANCH   1  18
TORSDOF 5
