REMARK  Name = ZINC59317348
REMARK  8 active torsions:
REMARK  status: ('A' for Active; 'I' for Inactive)
REMARK    1  A    between atoms: C_1  and  C_2
REMARK    2  A    between atoms: C_5  and  N_8
REMARK    3  A    between atoms: C_9  and  C_11
REMARK    4  A    between atoms: C_11  and  C_12
REMARK    5  A    between atoms: C_12  and  S_13
REMARK    6  A    between atoms: S_13  and  C_14
REMARK    7  A    between atoms: C_20  and  C_22
REMARK    8  A    between atoms: N_27  and  C_29
REMARK                            x       y       z     vdW  Elec       q    Type
REMARK                         _______ _______ _______ _____ _____    ______ ____
ROOT
ATOM      1  C   UNL     1       0.756  -9.112   4.242  0.00  0.00    +0.160 A 
ATOM      2  N   UNL     1       0.740  -8.344   5.321  0.00  0.00    -0.133 NA
ATOM      3  N   UNL     1       0.830  -8.826   6.483  0.00  0.00    -0.125 NA
ATOM      4  C   UNL     1       0.946 -10.127   6.697  0.00  0.00    +0.189 A 
ATOM      5  S   UNL     1       0.913 -10.723   5.009  0.00  0.00    -0.024 S 
ATOM      6  N   UNL     1       1.056 -10.831   7.893  0.00  0.00    -0.263 N 
ATOM      7  C   UNL     1       1.053 -10.170   9.067  0.00  0.00    +0.224 C 
ATOM      8  O   UNL     1       0.955  -8.961   9.082  0.00  0.00    -0.275 OA
ATOM      9  H   UNL     1       1.134 -11.798   7.881  0.00  0.00    +0.157 HD
ENDROOT
BRANCH   7  10
ATOM     10  C   UNL     1       1.172 -10.932  10.362  0.00  0.00    +0.102 C 
ATOM     11  C   UNL     1      -0.052 -11.853  10.576  0.00  0.00    +0.110 C 
ATOM     12  C   UNL     1      -0.309 -11.786  12.066  0.00  0.00    +0.221 C 
ATOM     13  O   UNL     1      -0.995 -12.569  12.688  0.00  0.00    -0.275 OA
ATOM     14  N   UNL     1       0.334 -10.733  12.600  0.00  0.00    -0.271 N 
ATOM     15  C   UNL     1       1.069  -9.982  11.575  0.00  0.00    +0.127 C 
BRANCH  14  16
ATOM     16  C   UNL     1       0.306 -10.397  13.958  0.00  0.00    +0.036 A 
ATOM     17  C   UNL     1      -0.313 -11.240  14.871  0.00  0.00    +0.025 A 
ATOM     18  C   UNL     1      -0.339 -10.906  16.211  0.00  0.00    +0.022 A 
ATOM     19  C   UNL     1       0.253  -9.732  16.644  0.00  0.00    +0.041 A 
ATOM     20  C   UNL     1       0.871  -8.890  15.736  0.00  0.00    +0.022 A 
ATOM     21  C   UNL     1       0.904  -9.223  14.396  0.00  0.00    +0.025 A 
ATOM     22 CL   UNL     1       0.218  -9.315  18.328  0.00  0.00    -0.084 Cl
ENDBRANCH  14  16
ENDBRANCH   7  10
BRANCH   1  23
ATOM     23  S   UNL     1       0.646  -8.675   2.538  0.00  0.00    -0.096 S 
BRANCH  23  24
ATOM     24  C   UNL     1       0.509  -6.866   2.558  0.00  0.00    +0.085 C 
BRANCH  24  25
ATOM     25  C   UNL     1       0.405  -6.347   1.123  0.00  0.00    +0.107 C 
BRANCH  25  27
ATOM     26  N   UNL     1       0.188  -4.164  -0.020  0.00  0.00    -0.285 N 
ATOM     27  C   UNL     1       0.292  -4.844   1.139  0.00  0.00    +0.218 C 
ATOM     28  O   UNL     1       0.294  -4.247   2.195  0.00  0.00    -0.275 OA
ATOM     29  H   UNL     1       0.109  -4.644  -0.859  0.00  0.00    +0.155 HD
BRANCH  26  34
ATOM     30  C   UNL     1       0.214   1.509   0.009  0.00  0.00    +0.044 C 
ATOM     31  C   UNL     1       0.207   0.003   0.002  0.00  0.00    -0.050 A 
ATOM     32  C   UNL     1       0.948  -0.696   0.938  0.00  0.00    +0.005 A 
ATOM     33  C   UNL     1       0.943  -2.077   0.933  0.00  0.00    +0.023 A 
ATOM     34  C   UNL     1       0.194  -2.764  -0.012  0.00  0.00    +0.033 A 
ATOM     35  C   UNL     1      -0.549  -2.060  -0.951  0.00  0.00    +0.023 A 
ATOM     36  C   UNL     1      -0.545  -0.679  -0.938  0.00  0.00    +0.005 A 
ENDBRANCH  26  34
ENDBRANCH  25  27
ENDBRANCH  24  25
ENDBRANCH  23  24
ENDBRANCH   1  23
TORSDOF 7
