REMARK  Name = ZINC09743697
REMARK  4 active torsions:
REMARK  status: ('A' for Active; 'I' for Inactive)
REMARK    1  A    between atoms: C_1  and  C_2
REMARK    2  A    between atoms: C_6  and  C_13
REMARK    3  A    between atoms: C_13  and  S_14
REMARK    4  A    between atoms: S_14  and  C_15
REMARK                            x       y       z     vdW  Elec       q    Type
REMARK                         _______ _______ _______ _____ _____    ______ ____
ROOT
ATOM      1  C   UNL     1      -0.633  -2.729  -0.008  0.00  0.00    +0.113 C 
ENDROOT
BRANCH   1   7
ATOM      2  C   UNL     1      -1.430  -7.142  -4.917  0.00  0.00    +0.044 C 
ATOM      3  C   UNL     1      -1.288  -6.375  -3.628  0.00  0.00    -0.047 A 
ATOM      4  C   UNL     1      -1.057  -5.008  -3.665  0.00  0.00    +0.004 A 
ATOM      5  C   UNL     1      -0.925  -4.295  -2.506  0.00  0.00    +0.012 A 
ATOM      6  C   UNL     1      -1.029  -4.949  -1.274  0.00  0.00    +0.022 A 
ATOM      7  C   UNL     1      -0.885  -4.215  -0.014  0.00  0.00    -0.020 A 
ATOM      8  C   UNL     1      -0.991  -4.909   1.148  0.00  0.00    +0.097 A 
ATOM      9  C   UNL     1      -1.228  -6.300   1.115  0.00  0.00    +0.338 A 
ATOM     10  O   UNL     1      -1.321  -6.912   2.164  0.00  0.00    -0.245 OA
ATOM     11  O   UNL     1      -1.352  -6.967  -0.044  0.00  0.00    -0.422 OA
ATOM     12  C   UNL     1      -1.258  -6.336  -1.233  0.00  0.00    +0.140 A 
ATOM     13  C   UNL     1      -1.388  -7.040  -2.424  0.00  0.00    +0.050 A 
ENDBRANCH   1   7
BRANCH   1  14
ATOM     14  S   UNL     1       1.150  -2.420  -0.022  0.00  0.00    -0.081 S 
BRANCH  14  15
ATOM     15  C   UNL     1       1.156  -0.658  -0.013  0.00  0.00    +0.191 A 
ATOM     16  N   UNL     1       2.315  -0.010  -0.020  0.00  0.00    -0.207 NA
ATOM     17  C   UNL     1       2.381   1.310  -0.014  0.00  0.00    +0.129 A 
ATOM     18  C   UNL     1       1.177   2.069   0.002  0.00  0.00    +0.047 A 
ATOM     19  C   UNL     1       0.989   3.510   0.011  0.00  0.00    +0.021 A 
ATOM     20  C   UNL     1      -0.256   4.007   0.026  0.00  0.00    +0.048 A 
ATOM     21  S   UNL     1      -1.286   2.552   0.021  0.00  0.00    -0.077 S 
ATOM     22  C   UNL     1      -0.016   1.315   0.009  0.00  0.00    +0.114 A 
ATOM     23  N   UNL     1       0.002  -0.004   0.002  0.00  0.00    -0.215 NA
ATOM     24  N   UNL     1       3.608   1.948  -0.022  0.00  0.00    -0.343 N 
ATOM     25  H   UNL     1       4.426   1.426  -0.033  0.00  0.00    +0.144 HD
ATOM     26  H   UNL     1       3.651   2.917  -0.017  0.00  0.00    +0.144 HD
ENDBRANCH  14  15
ENDBRANCH   1  14
TORSDOF 3
