REMARK  Name = ZINC04150075
REMARK  7 active torsions:
REMARK  status: ('A' for Active; 'I' for Inactive)
REMARK    1  A    between atoms: C_1  and  C_2
REMARK    2  A    between atoms: N_4  and  C_5
REMARK    3  A    between atoms: C_8  and  S_11
REMARK    4  A    between atoms: S_11  and  N_14
REMARK    5  A    between atoms: N_14  and  C_15
REMARK    6  A    between atoms: C_31  and  C_33
REMARK    7  A    between atoms: C_36  and  C_39
REMARK                            x       y       z     vdW  Elec       q    Type
REMARK                         _______ _______ _______ _____ _____    ______ ____
ROOT
ATOM      1  C   UNL     1      -2.746   1.811   0.132  0.00  0.00    +0.112 A 
ATOM      2  C   UNL     1      -2.463   3.150   0.138  0.00  0.00    +0.031 A 
ATOM      3  C   UNL     1      -1.152   3.565  -0.123  0.00  0.00    +0.024 A 
ATOM      4  C   UNL     1      -0.179   2.656  -0.389  0.00  0.00    +0.027 A 
ATOM      5  N   UNL     1      -0.475   1.336  -0.483  0.00  0.00    -0.310 N 
ATOM      6  C   UNL     1      -1.713   0.895  -0.148  0.00  0.00    +0.274 A 
ATOM      7  O   UNL     1      -1.935  -0.304  -0.094  0.00  0.00    -0.266 OA
ATOM      8  C   UNL     1       0.471   0.342  -0.989  0.00  0.00    +0.130 C 
ATOM      9  C   UNL     1       1.912   0.806  -0.874  0.00  0.00    +0.027 C 
ATOM     10  C   UNL     1       2.046   2.229  -1.416  0.00  0.00    +0.018 C 
ATOM     11  C   UNL     1       1.237   3.168  -0.518  0.00  0.00    +0.054 C 
ATOM     12  C   UNL     1       1.869   3.160   0.884  0.00  0.00    +0.117 C 
ATOM     13  N   UNL     1       1.824   1.774   1.378  0.00  0.00    -0.297 N 
ATOM     14  C   UNL     1       2.426   0.717   0.557  0.00  0.00    +0.113 C 
ATOM     15  C   UNL     1       1.243   1.482   2.559  0.00  0.00    +0.247 C 
ATOM     16  O   UNL     1       0.630   2.340   3.163  0.00  0.00    -0.270 OA
ENDROOT
BRANCH  15  17
ATOM     17  C   UNL     1       1.350   0.119   3.117  0.00  0.00    +0.037 A 
ATOM     18  C   UNL     1       0.244  -0.474   3.731  0.00  0.00    +0.013 A 
ATOM     19  C   UNL     1       0.343  -1.747   4.246  0.00  0.00    +0.009 A 
ATOM     20  C   UNL     1       1.552  -2.440   4.167  0.00  0.00    -0.018 A 
ATOM     21  C   UNL     1       2.658  -1.846   3.560  0.00  0.00    +0.009 A 
ATOM     22  C   UNL     1       2.559  -0.576   3.038  0.00  0.00    +0.013 A 
BRANCH  20  23
ATOM     23  C   UNL     1       1.659  -3.808   4.728  0.00  0.00    -0.018 A 
ATOM     24  C   UNL     1       2.863  -4.505   4.646  0.00  0.00    +0.008 A 
ATOM     25  C   UNL     1       2.959  -5.776   5.174  0.00  0.00    +0.001 A 
ATOM     26  C   UNL     1       1.861  -6.362   5.777  0.00  0.00    +0.000 A 
ATOM     27  C   UNL     1       0.661  -5.677   5.857  0.00  0.00    +0.001 A 
ATOM     28  C   UNL     1       0.555  -4.404   5.336  0.00  0.00    +0.008 A 
ENDBRANCH  20  23
ENDBRANCH  15  17
BRANCH   1  29
ATOM     29  N   UNL     1      -4.043   1.358   0.405  0.00  0.00    -0.211 N 
ATOM     30  H   UNL     1      -4.223   0.406   0.455  0.00  0.00    +0.174 HD
BRANCH  29  31
ATOM     31  S   UNL     1      -5.268   2.446   0.644  0.00  0.00    +0.072 S 
ATOM     32  O   UNL     1      -6.451   1.687   0.850  0.00  0.00    -0.150 OA
ATOM     33  O   UNL     1      -4.793   3.389   1.595  0.00  0.00    -0.150 OA
BRANCH  31  37
ATOM     34  C   UNL     1      -5.834   4.699  -3.243  0.00  0.00    +0.033 A 
ATOM     35  C   UNL     1      -6.430   3.458  -3.066  0.00  0.00    +0.025 A 
ATOM     36  C   UNL     1      -6.255   2.773  -1.879  0.00  0.00    +0.030 A 
ATOM     37  C   UNL     1      -5.488   3.323  -0.868  0.00  0.00    +0.109 A 
ATOM     38  C   UNL     1      -4.898   4.562  -1.040  0.00  0.00    +0.030 A 
ATOM     39  C   UNL     1      -5.065   5.249  -2.226  0.00  0.00    +0.025 A 
BRANCH  34  43
ATOM     40  C   UNL     1      -7.302   5.916  -6.488  0.00  0.00    +0.109 C 
ATOM     41  C   UNL     1      -7.163   5.277  -5.130  0.00  0.00    +0.214 C 
ATOM     42  O   UNL     1      -8.090   4.655  -4.655  0.00  0.00    -0.276 OA
ATOM     43  N   UNL     1      -6.009   5.396  -4.444  0.00  0.00    -0.286 N 
ATOM     44  H   UNL     1      -5.299   5.963  -4.783  0.00  0.00    +0.155 HD
ENDBRANCH  34  43
ENDBRANCH  31  37
ENDBRANCH  29  31
ENDBRANCH   1  29
TORSDOF 6
