REMARK  Name = ZINC33937116
REMARK  15 active torsions:
REMARK  status: ('A' for Active; 'I' for Inactive)
REMARK    1  A    between atoms: C_1  and  C_2
REMARK    2  A    between atoms: C_2  and  C_3
REMARK    3  A    between atoms: C_3  and  C_5
REMARK    4  A    between atoms: C_3  and  N_17
REMARK    5  A    between atoms: N_9  and  C_10
REMARK    6  A    between atoms: C_10  and  C_11
REMARK    7  A    between atoms: N_17  and  C_18
REMARK    8  A    between atoms: N_17  and  C_27
REMARK    9  A    between atoms: C_18  and  C_19
REMARK   10  A    between atoms: C_22  and  O_25
REMARK   11  A    between atoms: O_25  and  C_26
REMARK   12  A    between atoms: C_27  and  C_28
REMARK   13  A    between atoms: C_32  and  O_40
REMARK   14  A    between atoms: O_40  and  C_41
REMARK   15  A    between atoms: C_41  and  C_42
REMARK                            x       y       z     vdW  Elec       q    Type
REMARK                         _______ _______ _______ _____ _____    ______ ____
ROOT
ATOM      1  N   UNL     1      -1.885   0.308  -0.042  0.00  0.00    +0.392 N 
ATOM      2  H   UNL     1      -1.543   0.295  -0.992  0.00  0.00    -0.080 HD
ENDROOT
BRANCH   1   3
ATOM      3  C   UNL     1      -1.306  -0.820   0.701  0.00  0.00    +0.003 C 
BRANCH   3   4
ATOM      4  C   UNL     1       0.134  -1.002   0.296  0.00  0.00    +0.138 A 
ATOM      5  N   UNL     1       0.827  -0.226  -0.501  0.00  0.00    -0.115 NA
ATOM      6  N   UNL     1       2.015  -0.715  -0.598  0.00  0.00    -0.023 NA
ATOM      7  N   UNL     1       2.098  -1.782   0.117  0.00  0.00    -0.044 NA
ATOM      8  N   UNL     1       0.960  -1.990   0.688  0.00  0.00    -0.228 N 
BRANCH   8   9
ATOM      9  C   UNL     1       0.628  -3.095   1.591  0.00  0.00    +0.178 C 
BRANCH   9  10
ATOM     10  C   UNL     1       0.323  -4.349   0.770  0.00  0.00    +0.140 C 
ATOM     11  C   UNL     1      -0.040  -5.529   1.706  0.00  0.00    +0.035 C 
ATOM     12  C   UNL     1      -0.896  -6.408   0.755  0.00  0.00    +0.031 C 
ATOM     13  C   UNL     1      -1.609  -5.351  -0.115  0.00  0.00    +0.160 C 
ATOM     14  O   UNL     1      -0.842  -4.142  -0.044  0.00  0.00    -0.375 OA
ENDBRANCH   9  10
ENDBRANCH   8   9
ENDBRANCH   3   4
BRANCH   3  16
ATOM     15  C   UNL     1      -2.774  -0.898   2.721  0.00  0.00    +0.002 C 
ATOM     16  C   UNL     1      -1.382  -0.534   2.202  0.00  0.00    -0.011 C 
ENDBRANCH   3  16
ENDBRANCH   1   3
BRANCH   1  17
ATOM     17  C   UNL     1      -1.496   1.570   0.601  0.00  0.00    -0.042 C 
BRANCH  17  18
ATOM     18  C   UNL     1      -0.013   1.782   0.434  0.00  0.00    -0.064 A 
ATOM     19  C   UNL     1       0.875   1.155   1.289  0.00  0.00    +0.005 A 
ATOM     20  C   UNL     1       2.234   1.349   1.139  0.00  0.00    +0.046 A 
ATOM     21  C   UNL     1       2.708   2.174   0.129  0.00  0.00    +0.120 A 
ATOM     22  C   UNL     1       1.816   2.801  -0.728  0.00  0.00    +0.046 A 
ATOM     23  C   UNL     1       0.457   2.600  -0.576  0.00  0.00    +0.005 A 
BRANCH  21  24
ATOM     24  O   UNL     1       4.045   2.366  -0.021  0.00  0.00    -0.495 OA
ATOM     25  C   UNL     1       4.462   3.228  -1.082  0.00  0.00    +0.277 C 
ENDBRANCH  21  24
ENDBRANCH  17  18
ENDBRANCH   1  17
BRANCH   1  26
ATOM     26  C   UNL     1      -3.349   0.191  -0.047  0.00  0.00    -0.036 C 
BRANCH  26  27
ATOM     27  C   UNL     1      -3.760  -0.941  -0.953  0.00  0.00    +0.001 A 
ATOM     28  C   UNL     1      -4.152  -2.124  -0.419  0.00  0.00    +0.017 A 
ATOM     29  C   UNL     1      -4.546  -3.204  -1.326  0.00  0.00    +0.002 A 
ATOM     30  C   UNL     1      -4.960  -4.446  -0.833  0.00  0.00    +0.055 A 
ATOM     31  C   UNL     1      -5.324  -5.443  -1.716  0.00  0.00    +0.121 A 
ATOM     32  C   UNL     1      -5.281  -5.216  -3.089  0.00  0.00    +0.047 A 
ATOM     33  C   UNL     1      -4.875  -3.997  -3.587  0.00  0.00    +0.030 A 
ATOM     34  C   UNL     1      -4.504  -2.979  -2.715  0.00  0.00    +0.049 A 
ATOM     35  N   UNL     1      -4.095  -1.751  -3.193  0.00  0.00    -0.322 N 
ATOM     36  H   UNL     1      -4.066  -1.597  -4.151  0.00  0.00    +0.169 HD
ATOM     37  C   UNL     1      -3.741  -0.764  -2.352  0.00  0.00    +0.251 A 
ATOM     38  O   UNL     1      -3.389   0.310  -2.811  0.00  0.00    -0.268 OA
BRANCH  31  39
ATOM     39  O   UNL     1      -5.727  -6.652  -1.242  0.00  0.00    -0.492 OA
BRANCH  39  40
ATOM     40  C   UNL     1      -6.091  -7.639  -2.209  0.00  0.00    +0.225 C 
ATOM     41  C   UNL     1      -6.513  -8.923  -1.494  0.00  0.00    +0.048 C 
ENDBRANCH  39  40
ENDBRANCH  31  39
ENDBRANCH  26  27
ENDBRANCH   1  26
TORSDOF 12
