REMARK  Name = ZINC16182496
REMARK  4 active torsions:
REMARK  status: ('A' for Active; 'I' for Inactive)
REMARK    1  A    between atoms: C_3  and  S_21
REMARK    2  A    between atoms: C_6  and  N_7
REMARK    3  A    between atoms: C_8  and  C_10
REMARK    4  A    between atoms: S_21  and  N_24
REMARK                            x       y       z     vdW  Elec       q    Type
REMARK                         _______ _______ _______ _____ _____    ______ ____
ROOT
ATOM      1  C   UNL     1      -5.847   4.335   4.713  0.00  0.00    +0.025 A 
ATOM      2  C   UNL     1      -4.640   4.436   4.050  0.00  0.00    +0.031 A 
ATOM      3  C   UNL     1      -4.608   4.446   2.667  0.00  0.00    +0.113 A 
ATOM      4  C   UNL     1      -5.784   4.359   1.945  0.00  0.00    +0.031 A 
ATOM      5  C   UNL     1      -6.994   4.252   2.602  0.00  0.00    +0.025 A 
ATOM      6  C   UNL     1      -7.029   4.242   3.990  0.00  0.00    +0.034 A 
ENDROOT
BRANCH   6   7
ATOM      7  N   UNL     1      -8.253   4.139   4.659  0.00  0.00    -0.282 N 
ATOM      8  C   UNL     1      -9.256   3.417   4.121  0.00  0.00    +0.248 C 
ATOM      9  O   UNL     1      -9.067   2.776   3.103  0.00  0.00    -0.270 OA
ATOM     10  H   UNL     1      -8.380   4.588   5.510  0.00  0.00    +0.155 HD
BRANCH   8  11
ATOM     11  C   UNL     1     -10.571   3.403   4.760  0.00  0.00    +0.052 C 
ATOM     12  C   UNL     1     -11.584   2.682   4.219  0.00  0.00    +0.023 C 
ATOM     13  C   UNL     1     -12.890   2.716   4.894  0.00  0.00    +0.019 A 
ATOM     14  C   UNL     1     -13.876   1.768   4.623  0.00  0.00    +0.031 A 
ATOM     15  C   UNL     1     -15.089   1.841   5.279  0.00  0.00    +0.042 A 
ATOM     16  C   UNL     1     -15.326   2.850   6.201  0.00  0.00    +0.023 A 
ATOM     17  C   UNL     1     -14.355   3.795   6.476  0.00  0.00    +0.048 A 
ATOM     18  C   UNL     1     -13.134   3.737   5.829  0.00  0.00    +0.128 A 
ATOM     19  O   UNL     1     -12.161   4.649   6.077  0.00  0.00    -0.487 OA
ATOM     20  C   UNL     1     -10.809   4.195   6.020  0.00  0.00    +0.269 C 
ATOM     21 CL   UNL     1     -16.322   0.665   4.949  0.00  0.00    -0.084 Cl
ENDBRANCH   8  11
ENDBRANCH   6   7
BRANCH   3  22
ATOM     22  S   UNL     1      -3.066   4.575   1.825  0.00  0.00    +0.100 S 
ATOM     23  O   UNL     1      -2.161   5.197   2.727  0.00  0.00    -0.146 OA
ATOM     24  O   UNL     1      -3.349   5.111   0.540  0.00  0.00    -0.146 OA
BRANCH  22  25
ATOM     25  N   UNL     1      -2.509   3.035   1.583  0.00  0.00    -0.118 NA
ATOM     26  C   UNL     1      -1.382   2.842   0.979  0.00  0.00    +0.117 C 
ATOM     27  C   UNL     1      -0.602   4.021   0.509  0.00  0.00    +0.073 C 
ATOM     28  C   UNL     1      -0.936   4.324  -0.968  0.00  0.00    +0.008 C 
ATOM     29  C   UNL     1      -0.389   3.268  -1.849  0.00  0.00    +0.002 C 
ATOM     30  C   UNL     1      -0.988   1.888  -1.626  0.00  0.00    +0.019 C 
ATOM     31  C   UNL     1      -0.280   1.183  -0.494  0.00  0.00    +0.102 C 
ATOM     32  N   UNL     1      -0.932   1.544   0.787  0.00  0.00    -0.331 N 
ATOM     33  H   UNL     1      -1.044   0.878   1.484  0.00  0.00    +0.147 HD
ENDBRANCH  22  25
ENDBRANCH   3  22
TORSDOF 4
