REMARK  Name = ZINC55275793
REMARK  8 active torsions:
REMARK  status: ('A' for Active; 'I' for Inactive)
REMARK    1  A    between atoms: C_1  and  C_2
REMARK    2  A    between atoms: C_7  and  C_8
REMARK    3  A    between atoms: C_7  and  C_9
REMARK    4  A    between atoms: C_11  and  N_13
REMARK    5  A    between atoms: N_13  and  S_14
REMARK    6  A    between atoms: S_14  and  C_17
REMARK    7  A    between atoms: C_21  and  S_23
REMARK    8  A    between atoms: S_23  and  N_26
REMARK                            x       y       z     vdW  Elec       q    Type
REMARK                         _______ _______ _______ _____ _____    ______ ____
ROOT
ATOM      1  S   UNL     1      -3.528   0.886   0.846  0.00  0.00    +0.059 S 
ATOM      2  O   UNL     1      -3.990   1.566   2.005  0.00  0.00    -0.153 OA
ATOM      3  O   UNL     1      -3.623   1.447  -0.456  0.00  0.00    -0.153 OA
ENDROOT
BRANCH   1   4
ATOM      4  C   UNL     1      -4.380  -0.655   0.793  0.00  0.00    +0.107 A 
ATOM      5  C   UNL     1      -4.532  -1.320  -0.409  0.00  0.00    +0.028 A 
ATOM      6  C   UNL     1      -5.201  -2.529  -0.451  0.00  0.00    +0.004 A 
ATOM      7  C   UNL     1      -5.716  -3.074   0.711  0.00  0.00    +0.028 A 
ATOM      8  C   UNL     1      -5.563  -2.410   1.913  0.00  0.00    +0.107 A 
ATOM      9  C   UNL     1      -4.891  -1.203   1.955  0.00  0.00    +0.057 A 
BRANCH   8  10
ATOM     10  S   UNL     1      -6.221  -3.104   3.393  0.00  0.00    +0.056 S 
ATOM     11  O   UNL     1      -6.419  -2.024   4.295  0.00  0.00    -0.153 OA
ATOM     12  O   UNL     1      -7.275  -3.973   3.001  0.00  0.00    -0.153 OA
BRANCH  10  13
ATOM     13  N   UNL     1      -5.040  -4.061   4.052  0.00  0.00    -0.204 NA
ATOM     14  H   UNL     1      -4.181  -4.144   3.610  0.00  0.00    +0.144 HD
ATOM     15  H   UNL     1      -5.208  -4.537   4.880  0.00  0.00    +0.144 HD
ENDBRANCH  10  13
ENDBRANCH   8  10
ENDBRANCH   1   4
BRANCH   1  16
ATOM     16  N   UNL     1      -1.926   0.552   1.102  0.00  0.00    -0.186 NA
ATOM     17  H   UNL     1      -1.496   0.837   1.923  0.00  0.00    +0.148 HD
BRANCH  16  27
ATOM     18  C   UNL     1       0.513   1.837   0.189  0.00  0.00    +0.013 C 
ATOM     19  C   UNL     1       0.318   0.325   0.060  0.00  0.00    -0.010 C 
ATOM     20  C   UNL     1       0.953  -0.341  -1.198  0.00  0.00    +0.009 C 
ATOM     21  C   UNL     1       1.066  -1.838  -0.834  0.00  0.00    +0.005 C 
ATOM     22  C   UNL     1       0.489  -1.937   0.612  0.00  0.00    -0.003 C 
ATOM     23  C   UNL     1       0.943  -0.554   1.200  0.00  0.00    -0.025 C 
ATOM     24  C   UNL     1       0.302  -0.272   2.560  0.00  0.00    +0.012 C 
ATOM     25  C   UNL     1       2.467  -0.426   1.253  0.00  0.00    +0.012 C 
ATOM     26  C   UNL     1      -1.044  -1.709   0.436  0.00  0.00    +0.025 C 
ATOM     27  C   UNL     1      -1.159  -0.176   0.088  0.00  0.00    +0.083 C 
ENDBRANCH  16  27
ENDBRANCH   1  16
TORSDOF 5
