REMARK  Name = ZINC00330995
REMARK  7 active torsions:
REMARK  status: ('A' for Active; 'I' for Inactive)
REMARK    1  A    between atoms: C_1  and  C_2
REMARK    2  A    between atoms: C_2  and  C_3
REMARK    3  A    between atoms: C_2  and  C_4
REMARK    4  A    between atoms: C_2  and  C_5
REMARK    5  A    between atoms: C_5  and  O_21
REMARK    6  A    between atoms: C_7  and  C_17
REMARK    7  A    between atoms: C_10  and  C_12
REMARK                            x       y       z     vdW  Elec       q    Type
REMARK                         _______ _______ _______ _____ _____    ______ ____
ROOT
ATOM      1  C   UNL     1      -4.301   5.633   0.047  0.00  0.00    +0.166 C 
ATOM      2  C   UNL     1      -5.643   4.875  -0.010  0.00  0.00    +0.119 C 
ATOM      3  C   UNL     1      -5.296   3.581  -0.712  0.00  0.00    +0.144 C 
ATOM      4  N   UNL     1      -4.062   3.570  -1.008  0.00  0.00    -0.174 NA
ATOM      5  N   UNL     1      -3.363   4.709  -0.612  0.00  0.00    -0.154 N 
ATOM      6  C   UNL     1      -2.048   4.931  -0.807  0.00  0.00    +0.304 C 
ATOM      7  O   UNL     1      -1.566   6.014  -0.531  0.00  0.00    -0.265 OA
ENDROOT
BRANCH   6   8
ATOM      8  C   UNL     1      -1.198   3.868  -1.351  0.00  0.00    +0.191 A 
ATOM      9  C   UNL     1       0.143   3.958  -1.597  0.00  0.00    +0.054 A 
ATOM     10  C   UNL     1       0.544   2.716  -2.111  0.00  0.00    +0.042 A 
ATOM     11  C   UNL     1      -0.555   1.931  -2.156  0.00  0.00    +0.196 A 
ATOM     12  O   UNL     1      -1.603   2.630  -1.702  0.00  0.00    -0.458 OA
ENDBRANCH   6   8
BRANCH   1  14
ATOM     13  C   UNL     1      -2.550   6.632   1.523  0.00  0.00    +0.015 C 
ATOM     14  C   UNL     1      -3.883   5.882   1.498  0.00  0.00    +0.010 C 
ATOM     15  C   UNL     1      -4.953   6.719   2.201  0.00  0.00    +0.015 C 
ATOM     16  C   UNL     1      -3.727   4.542   2.221  0.00  0.00    +0.015 C 
ENDBRANCH   1  14
BRANCH   3  17
ATOM     17  C   UNL     1      -6.272   2.475  -1.021  0.00  0.00    +0.432 C 
ATOM     18  F   UNL     1      -5.604   1.434  -1.675  0.00  0.00    -0.165 F 
ATOM     19  F   UNL     1      -6.827   1.996   0.170  0.00  0.00    -0.165 F 
ATOM     20  F   UNL     1      -7.290   2.967  -1.845  0.00  0.00    -0.165 F 
ENDBRANCH   3  17
BRANCH   1  21
ATOM     21  O   UNL     1      -4.386   6.864  -0.673  0.00  0.00    -0.369 OA
ATOM     22  H   UNL     1      -4.683   6.765  -1.588  0.00  0.00    +0.212 HD
ENDBRANCH   1  21
TORSDOF 4
