REMARK  Name = ZINC26650116
REMARK  8 active torsions:
REMARK  status: ('A' for Active; 'I' for Inactive)
REMARK    1  A    between atoms: C_1  and  C_2
REMARK    2  A    between atoms: C_2  and  C_3
REMARK    3  A    between atoms: C_2  and  N_4
REMARK    4  A    between atoms: N_4  and  C_5
REMARK    5  A    between atoms: C_10  and  N_11
REMARK    6  A    between atoms: C_17  and  C_19
REMARK    7  A    between atoms: C_22  and  C_25
REMARK    8  A    between atoms: N_27  and  C_28
REMARK                            x       y       z     vdW  Elec       q    Type
REMARK                         _______ _______ _______ _____ _____    ______ ____
ROOT
ATOM      1  N   UNL     1       6.268   1.889  -0.498  0.00  0.00    -0.312 N 
ATOM      2  C   UNL     1       6.591   3.321  -0.436  0.00  0.00    +0.125 C 
ATOM      3  C   UNL     1       5.854   3.957   0.747  0.00  0.00    +0.127 C 
ATOM      4  N   UNL     1       4.421   3.647   0.626  0.00  0.00    -0.293 N 
ATOM      5  C   UNL     1       4.027   2.244   0.429  0.00  0.00    +0.127 C 
ATOM      6  C   UNL     1       4.836   1.676  -0.748  0.00  0.00    +0.125 C 
ATOM      7  C   UNL     1       3.494   4.622   0.698  0.00  0.00    +0.265 C 
ATOM      8  O   UNL     1       3.838   5.787   0.719  0.00  0.00    -0.268 OA
ENDROOT
BRANCH   1  14
ATOM      9  C   UNL     1       7.434  -0.083  -1.256  0.00  0.00    +0.066 A 
ATOM     10  C   UNL     1       8.207  -0.711  -2.224  0.00  0.00    +0.028 A 
ATOM     11  C   UNL     1       8.562   0.009  -3.357  0.00  0.00    +0.019 A 
ATOM     12  C   UNL     1       8.140   1.316  -3.488  0.00  0.00    +0.084 A 
ATOM     13  N   UNL     1       7.401   1.889  -2.555  0.00  0.00    -0.348 N 
ATOM     14  C   UNL     1       7.044   1.244  -1.458  0.00  0.00    +0.120 A 
ATOM     15  H   UNL     1       7.067   2.930  -2.680  0.00  0.00    +0.167 HD
BRANCH   9  16
ATOM     16  N   UNL     1       7.051  -0.768  -0.097  0.00  0.00    -0.339 N 
ATOM     17  H   UNL     1       6.351  -0.302   0.612  0.00  0.00    +0.146 HD
BRANCH  16  19
ATOM     18  C   UNL     1       7.549  -2.376   1.677  0.00  0.00    +0.027 C 
ATOM     19  C   UNL     1       7.581  -2.107   0.172  0.00  0.00    +0.064 C 
ATOM     20  C   UNL     1       6.726  -3.149  -0.551  0.00  0.00    +0.027 C 
ENDBRANCH  16  19
ENDBRANCH   9  16
ENDBRANCH   1  14
BRANCH   7  21
ATOM     21  C   UNL     1       2.053   4.274   0.753  0.00  0.00    +0.126 A 
ATOM     22  C   UNL     1       1.097   5.277   0.613  0.00  0.00    +0.034 A 
ATOM     23  C   UNL     1      -0.246   4.943   0.664  0.00  0.00    +0.017 A 
ATOM     24  C   UNL     1      -0.589   3.600   0.852  0.00  0.00    +0.055 A 
ATOM     25  C   UNL     1       0.428   2.652   0.989  0.00  0.00    +0.124 A 
ATOM     26  N   UNL     1       1.691   3.010   0.934  0.00  0.00    -0.250 NA
BRANCH  24  27
ATOM     27  C   UNL     1      -2.010   3.189   0.908  0.00  0.00    +0.248 C 
ATOM     28  O   UNL     1      -2.888   4.021   0.788  0.00  0.00    -0.270 OA
ATOM     29  N   UNL     1      -2.330   1.893   1.093  0.00  0.00    -0.276 N 
ATOM     30  H   UNL     1      -1.536   1.141   1.202  0.00  0.00    +0.152 HD
BRANCH  29  31
ATOM     31  C   UNL     1      -3.737   1.487   1.149  0.00  0.00    +0.263 C 
ATOM     32  C   UNL     1      -3.912   0.095   0.509  0.00  0.00    +0.073 C 
ATOM     33  C   UNL     1      -4.489  -0.753   1.664  0.00  0.00    +0.087 C 
ATOM     34  C   UNL     1      -4.969   0.285   2.662  0.00  0.00    +0.144 C 
ATOM     35  S   UNL     1      -6.198   0.133   3.674  0.00  0.00    -0.017 S 
ATOM     36  O   UNL     1      -4.165   1.359   2.535  0.00  0.00    -0.468 OA
ENDBRANCH  29  31
ENDBRANCH  24  27
ENDBRANCH   7  21
TORSDOF 6
