REMARK  Name = ZINC62198656
REMARK  6 active torsions:
REMARK  status: ('A' for Active; 'I' for Inactive)
REMARK    1  A    between atoms: C_1  and  C_2
REMARK    2  A    between atoms: C_2  and  C_3
REMARK    3  A    between atoms: C_2  and  C_4
REMARK    4  A    between atoms: C_2  and  N_5
REMARK    5  A    between atoms: C_6  and  N_22
REMARK    6  A    between atoms: C_8  and  C_10
REMARK                            x       y       z     vdW  Elec       q    Type
REMARK                         _______ _______ _______ _____ _____    ______ ____
ROOT
ATOM      1  N   UNL     1       0.784  -0.469  -1.150  0.00  0.00    -0.245 N 
ATOM      2  C   UNL     1       0.936  -1.769  -1.519  0.00  0.00    +0.116 A 
ATOM      3  C   UNL     1       1.564  -1.786  -2.724  0.00  0.00    +0.077 A 
ATOM      4  C   UNL     1       1.804  -0.450  -3.104  0.00  0.00    +0.149 A 
ATOM      5  N   UNL     1       1.329   0.336  -2.158  0.00  0.00    -0.164 NA
ENDROOT
BRANCH   4   6
ATOM      6  C   UNL     1       2.466  -0.007  -4.348  0.00  0.00    +0.267 C 
ATOM      7  O   UNL     1       2.966  -0.826  -5.095  0.00  0.00    -0.268 OA
ATOM      8  N   UNL     1       2.516   1.304  -4.655  0.00  0.00    -0.292 N 
ATOM      9  C   UNL     1       3.097   1.772  -5.925  0.00  0.00    +0.113 C 
ATOM     10  C   UNL     1       1.982   2.430  -6.737  0.00  0.00    +0.054 C 
ATOM     11  C   UNL     1       1.195   3.390  -5.885  0.00  0.00    -0.041 A 
ATOM     12  C   UNL     1       0.449   4.366  -6.536  0.00  0.00    +0.004 A 
ATOM     13  C   UNL     1      -0.302   5.271  -5.817  0.00  0.00    +0.000 A 
ATOM     14  C   UNL     1      -0.317   5.209  -4.436  0.00  0.00    +0.000 A 
ATOM     15  C   UNL     1       0.425   4.244  -3.787  0.00  0.00    +0.005 A 
ATOM     16  C   UNL     1       1.186   3.335  -4.510  0.00  0.00    -0.027 A 
ATOM     17  C   UNL     1       1.989   2.322  -3.740  0.00  0.00    +0.143 C 
ENDBRANCH   4   6
BRANCH   1  19
ATOM     18  C   UNL     1       0.179   1.535   0.114  0.00  0.00    +0.036 C 
ATOM     19  C   UNL     1       0.155   0.006   0.085  0.00  0.00    +0.057 C 
ATOM     20  C   UNL     1       0.922  -0.540   1.291  0.00  0.00    +0.036 C 
ATOM     21  C   UNL     1      -1.294  -0.482   0.139  0.00  0.00    +0.036 C 
ENDBRANCH   1  19
BRANCH   2  22
ATOM     22  N   UNL     1       0.523  -2.882  -0.793  0.00  0.00    -0.343 N 
ATOM     23  H   UNL     1       0.081  -2.767   0.063  0.00  0.00    +0.144 HD
ATOM     24  H   UNL     1       0.677  -3.774  -1.142  0.00  0.00    +0.144 HD
ENDBRANCH   2  22
TORSDOF 3
