REMARK  Name = ZINC09591044
REMARK  11 active torsions:
REMARK  status: ('A' for Active; 'I' for Inactive)
REMARK    1  A    between atoms: C_1  and  C_2
REMARK    2  A    between atoms: C_5  and  C_7
REMARK    3  A    between atoms: C_7  and  C_9
REMARK    4  A    between atoms: C_7  and  C_11
REMARK    5  A    between atoms: C_11  and  C_13
REMARK    6  A    between atoms: C_13  and  O_14
REMARK    7  A    between atoms: O_14  and  C_15
REMARK    8  A    between atoms: C_15  and  C_17
REMARK    9  A    between atoms: C_18  and  C_19
REMARK   10  A    between atoms: C_20  and  C_33
REMARK   11  A    between atoms: N_22  and  C_25
REMARK                            x       y       z     vdW  Elec       q    Type
REMARK                         _______ _______ _______ _____ _____    ______ ____
ROOT
ATOM      1  C   UNL     1       2.781   3.896  -0.004  0.00  0.00    +0.092 C 
ATOM      2  C   UNL     1       2.940   5.239   0.002  0.00  0.00    +0.020 C 
ENDROOT
BRANCH   2   3
ATOM      3  C   UNL     1       4.288   5.819  -0.008  0.00  0.00    +0.034 A 
ATOM      4  C   UNL     1       4.766   6.824  -0.882  0.00  0.00    +0.069 A 
ATOM      5  N   UNL     1       6.008   7.071  -0.573  0.00  0.00    -0.174 NA
ATOM      6  N   UNL     1       6.388   6.245   0.490  0.00  0.00    -0.248 N 
ATOM      7  C   UNL     1       5.336   5.481   0.834  0.00  0.00    +0.135 A 
ATOM      8 CL   UNL     1       5.298   4.292   2.098  0.00  0.00    -0.062 Cl
ATOM      9  C   UNL     1       3.975   7.493  -1.976  0.00  0.00    +0.068 C 
BRANCH   6  10
ATOM     10  C   UNL     1       7.709   6.217   1.123  0.00  0.00    +0.131 C 
ATOM     11  C   UNL     1       8.015   7.598   1.725  0.00  0.00    +0.051 C 
ATOM     12  C   UNL     1       9.523   7.637   2.105  0.00  0.00    +0.168 C 
ATOM     13  S   UNL     1      10.259   6.771   0.655  0.00  0.00    -0.029 S 
ATOM     14  O   UNL     1      10.626   7.735  -0.322  0.00  0.00    -0.174 OA
ATOM     15  O   UNL     1      11.227   5.838   1.116  0.00  0.00    -0.174 OA
ATOM     16  C   UNL     1       8.778   5.855   0.064  0.00  0.00    +0.192 C 
ENDBRANCH   6  10
ENDBRANCH   2   3
BRANCH   1  17
ATOM     17  C   UNL     1       1.481   3.338   0.006  0.00  0.00    +0.332 C 
ATOM     18  O   UNL     1       0.506   4.066   0.019  0.00  0.00    -0.246 OA
BRANCH  17  19
ATOM     19  O   UNL     1       1.322   1.997   0.000  0.00  0.00    -0.454 OA
BRANCH  19  20
ATOM     20  C   UNL     1      -0.018   1.503   0.010  0.00  0.00    +0.308 C 
BRANCH  20  21
ATOM     21  C   UNL     1       0.002  -0.004   0.002  0.00  0.00    +0.194 C 
ATOM     22  O   UNL     1       1.056  -0.594  -0.011  0.00  0.00    -0.292 OA
BRANCH  21  23
ATOM     23  C   UNL     1      -1.293  -0.775   0.010  0.00  0.00    +0.216 C 
BRANCH  23  28
ATOM     24  C   UNL     1      -2.083  -4.262   3.509  0.00  0.00    +0.066 C 
ATOM     25  C   UNL     1      -1.389  -3.743   2.277  0.00  0.00    +0.046 A 
ATOM     26  C   UNL     1      -0.443  -4.485   1.647  0.00  0.00    +0.070 A 
ATOM     27  S   UNL     1      -0.001  -3.386   0.308  0.00  0.00    -0.079 S 
ATOM     28  C   UNL     1      -1.088  -2.093   0.712  0.00  0.00    +0.103 A 
ATOM     29  N   UNL     1      -1.681  -2.556   1.788  0.00  0.00    -0.247 NA
ENDBRANCH  23  28
BRANCH  23  30
ATOM     30  C   UNL     1      -1.727  -1.019  -1.375  0.00  0.00    +0.081 C 
ATOM     31  N   UNL     1      -2.063  -1.207  -2.444  0.00  0.00    -0.195 NA
ENDBRANCH  23  30
ENDBRANCH  21  23
ENDBRANCH  20  21
ENDBRANCH  19  20
ENDBRANCH  17  19
ENDBRANCH   1  17
TORSDOF 9
