REMARK  Name = ZINC62514964
REMARK  11 active torsions:
REMARK  status: ('A' for Active; 'I' for Inactive)
REMARK    1  A    between atoms: C_1  and  C_2
REMARK    2  A    between atoms: C_2  and  C_3
REMARK    3  A    between atoms: C_3  and  C_5
REMARK    4  A    between atoms: C_3  and  N_6
REMARK    5  A    between atoms: N_9  and  C_10
REMARK    6  A    between atoms: C_10  and  C_11
REMARK    7  A    between atoms: C_11  and  O_24
REMARK    8  A    between atoms: C_17  and  O_22
REMARK    9  A    between atoms: C_18  and  O_20
REMARK   10  A    between atoms: O_20  and  C_21
REMARK   11  A    between atoms: O_22  and  C_23
REMARK                            x       y       z     vdW  Elec       q    Type
REMARK                         _______ _______ _______ _____ _____    ______ ____
ROOT
ATOM      1  C   UNL     1      -0.458   0.793   7.035  0.00  0.00    +0.107 C 
ATOM      2  C   UNL     1       0.174   1.218   8.377  0.00  0.00    +0.046 C 
ATOM      3  C   UNL     1      -0.821   2.279   8.891  0.00  0.00    +0.039 C 
ATOM      4  C   UNL     1      -1.474   2.844   7.647  0.00  0.00    -0.038 A 
ATOM      5  C   UNL     1      -1.265   1.990   6.580  0.00  0.00    -0.008 A 
ATOM      6  C   UNL     1      -1.776   2.304   5.332  0.00  0.00    +0.056 A 
ATOM      7  C   UNL     1      -2.496   3.473   5.147  0.00  0.00    +0.162 A 
ATOM      8  C   UNL     1      -2.706   4.332   6.221  0.00  0.00    +0.162 A 
ATOM      9  C   UNL     1      -2.194   4.014   7.467  0.00  0.00    +0.053 A 
ENDROOT
BRANCH   8  10
ATOM     10  O   UNL     1      -3.412   5.482   6.046  0.00  0.00    -0.491 OA
ATOM     11  C   UNL     1      -3.587   6.315   7.194  0.00  0.00    +0.277 C 
ENDBRANCH   8  10
BRANCH   7  12
ATOM     12  O   UNL     1      -2.995   3.779   3.920  0.00  0.00    -0.491 OA
ATOM     13  C   UNL     1      -2.740   2.849   2.865  0.00  0.00    +0.277 C 
ENDBRANCH   7  12
BRANCH   1  14
ATOM     14  O   UNL     1      -1.310  -0.339   7.222  0.00  0.00    -0.382 OA
ATOM     15  H   UNL     1      -1.752  -0.636   6.415  0.00  0.00    +0.211 HD
ENDBRANCH   1  14
BRANCH   1  16
ATOM     16  C   UNL     1       0.634   0.470   6.012  0.00  0.00    +0.145 C 
BRANCH  16  20
ATOM     17  N   UNL     1       3.227  -2.128   6.219  0.00  0.00    -0.297 N 
ATOM     18  C   UNL     1       2.500  -1.080   5.785  0.00  0.00    +0.300 C 
ATOM     19  O   UNL     1       2.815  -0.504   4.761  0.00  0.00    -0.253 OA
ATOM     20  N   UNL     1       1.424  -0.669   6.485  0.00  0.00    -0.296 N 
ATOM     21  H   UNL     1       2.976  -2.587   7.036  0.00  0.00    +0.151 HD
ATOM     22  H   UNL     1       1.173  -1.129   7.301  0.00  0.00    +0.150 HD
BRANCH  17  23
ATOM     23  C   UNL     1       4.397  -2.574   5.458  0.00  0.00    +0.071 C 
ATOM     24  C   UNL     1       5.617  -1.747   5.867  0.00  0.00    +0.028 C 
BRANCH  23  26
ATOM     25  C   UNL     1       3.495  -4.893   5.229  0.00  0.00    +0.005 C 
ATOM     26  C   UNL     1       4.662  -4.053   5.751  0.00  0.00    +0.019 C 
ENDBRANCH  23  26
ENDBRANCH  17  23
ENDBRANCH  16  20
ENDBRANCH   1  16
TORSDOF 7
