REMARK  Name = ZINC12117985
REMARK  3 active torsions:
REMARK  status: ('A' for Active; 'I' for Inactive)
REMARK    1  A    between atoms: C_16  and  C_17
REMARK    2  A    between atoms: C_16  and  N_55
REMARK    3  A    between atoms: C_20  and  N_24
REMARK                            x       y       z     vdW  Elec       q    Type
REMARK                         _______ _______ _______ _____ _____    ______ ____
ROOT
ATOM      1  C   UNL     1       0.812   4.550  -8.044  0.00  0.00    +0.001 A 
ATOM      2  C   UNL     1      -0.553   4.316  -8.071  0.00  0.00    +0.004 A 
ATOM      3  C   UNL     1      -1.268   4.180  -6.896  0.00  0.00    +0.046 A 
ATOM      4  C   UNL     1      -0.616   4.278  -5.679  0.00  0.00    +0.135 A 
ATOM      5  C   UNL     1       0.769   4.503  -5.650  0.00  0.00    +0.078 A 
ATOM      6  C   UNL     1       1.479   4.644  -6.839  0.00  0.00    +0.017 A 
ATOM      7  C   UNL     1       1.438   4.584  -4.336  0.00  0.00    +0.250 C 
ATOM      8  O   UNL     1       2.590   4.961  -4.240  0.00  0.00    -0.270 OA
ATOM      9  N   UNL     1       0.729   4.226  -3.242  0.00  0.00    -0.274 N 
ATOM     10  C   UNL     1      -0.594   3.615  -3.390  0.00  0.00    +0.175 C 
ATOM     11  O   UNL     1      -1.288   4.171  -4.507  0.00  0.00    -0.468 OA
ATOM     12  C   UNL     1      -0.434   2.105  -3.592  0.00  0.00    +0.050 C 
ATOM     13  C   UNL     1       0.247   1.501  -2.362  0.00  0.00    -0.073 C 
ATOM     14  C   UNL     1      -0.699   3.209  -0.929  0.00  0.00    -0.073 C 
ATOM     15  C   UNL     1      -1.409   3.864  -2.116  0.00  0.00    +0.050 C 
ATOM     16  H   UNL     1       1.097   4.375  -2.357  0.00  0.00    +0.153 HD
ATOM     17  N   UNL     1      -0.594   1.756  -1.173  0.00  0.00    +0.383 N 
ATOM     18  H   UNL     1      -1.533   1.377  -1.343  0.00  0.00    -0.081 HD
ENDROOT
BRANCH  17  19
ATOM     19  C   UNL     1      -0.013   1.086   0.008  0.00  0.00    -0.043 C 
BRANCH  19  20
ATOM     20  C   UNL     1      -0.718   1.572   1.248  0.00  0.00    -0.061 A 
ATOM     21  C   UNL     1      -0.224   2.662   1.940  0.00  0.00    +0.004 A 
ATOM     22  C   UNL     1      -0.870   3.114   3.074  0.00  0.00    +0.026 A 
ATOM     23  C   UNL     1      -2.011   2.466   3.526  0.00  0.00    +0.065 A 
ATOM     24  C   UNL     1      -2.504   1.366   2.832  0.00  0.00    +0.144 A 
ATOM     25  C   UNL     1      -1.855   0.923   1.694  0.00  0.00    +0.042 A 
ATOM     26  F   UNL     1      -3.614   0.732   3.268  0.00  0.00    -0.204 F 
BRANCH  23  27
ATOM     27  N   UNL     1      -2.665   2.918   4.677  0.00  0.00    -0.328 N 
ATOM     28  C   UNL     1      -2.089   4.205   5.145  0.00  0.00    +0.105 C 
ATOM     29  C   UNL     1      -3.212   4.792   6.036  0.00  0.00    +0.020 C 
ATOM     30  C   UNL     1      -4.500   4.389   5.280  0.00  0.00    +0.020 C 
ATOM     31  C   UNL     1      -4.093   3.191   4.404  0.00  0.00    +0.105 C 
ENDBRANCH  23  27
ENDBRANCH  19  20
ENDBRANCH  17  19
TORSDOF 3
