REMARK  Name = ZINC06088137
REMARK  7 active torsions:
REMARK  status: ('A' for Active; 'I' for Inactive)
REMARK    1  A    between atoms: C_8  and  C_10
REMARK    2  A    between atoms: C_10  and  C_12
REMARK    3  A    between atoms: C_13  and  O_32
REMARK    4  A    between atoms: N_16  and  C_26
REMARK    5  A    between atoms: C_17  and  C_19
REMARK    6  A    between atoms: C_23  and  O_25
REMARK    7  A    between atoms: C_26  and  C_27
REMARK                            x       y       z     vdW  Elec       q    Type
REMARK                         _______ _______ _______ _____ _____    ______ ____
ROOT
ATOM      1  C   UNL     1      -0.587   1.675   1.268  0.00  0.00    +0.074 C 
ATOM      2  C   UNL     1       0.417   2.356   1.868  0.00  0.00    +0.188 C 
ATOM      3  C   UNL     1       1.636   2.256   1.039  0.00  0.00    +0.283 C 
ATOM      4  O   UNL     1       2.707   2.762   1.310  0.00  0.00    -0.267 OA
ATOM      5  N   UNL     1       1.385   1.520  -0.059  0.00  0.00    -0.276 N 
ATOM      6  C   UNL     1      -0.020   1.098  -0.008  0.00  0.00    +0.145 C 
ENDROOT
BRANCH   6   7
ATOM      7  C   UNL     1      -0.767   1.638  -1.200  0.00  0.00    -0.019 A 
ATOM      8  C   UNL     1      -0.655   2.975  -1.538  0.00  0.00    +0.006 A 
ATOM      9  C   UNL     1      -1.335   3.472  -2.634  0.00  0.00    +0.004 A 
ATOM     10  C   UNL     1      -2.138   2.638  -3.388  0.00  0.00    +0.045 A 
ATOM     11  C   UNL     1      -2.257   1.298  -3.047  0.00  0.00    +0.117 A 
ATOM     12  C   UNL     1      -1.569   0.800  -1.950  0.00  0.00    +0.051 A 
BRANCH  11  13
ATOM     13  O   UNL     1      -3.046   0.475  -3.787  0.00  0.00    -0.507 OA
ATOM     14  H   UNL     1      -3.962   0.430  -3.481  0.00  0.00    +0.292 HD
ENDBRANCH  11  13
ENDBRANCH   6   7
BRANCH   1  15
ATOM     15  C   UNL     1      -1.960   1.527   1.761  0.00  0.00    +0.230 C 
ATOM     16  O   UNL     1      -2.687   2.501   1.842  0.00  0.00    -0.284 OA
BRANCH  15  24
ATOM     17  C   UNL     1      -4.467  -3.701   3.459  0.00  0.00    +0.001 A 
ATOM     18  C   UNL     1      -3.179  -4.169   3.237  0.00  0.00    +0.004 A 
ATOM     19  C   UNL     1      -2.182  -3.316   2.816  0.00  0.00    +0.047 A 
ATOM     20  C   UNL     1      -2.464  -1.971   2.608  0.00  0.00    +0.136 A 
ATOM     21  C   UNL     1      -3.772  -1.502   2.834  0.00  0.00    +0.021 A 
ATOM     22  C   UNL     1      -4.769  -2.383   3.262  0.00  0.00    +0.011 A 
ATOM     23  C   UNL     1      -3.737  -0.071   2.537  0.00  0.00    +0.061 A 
ATOM     24  C   UNL     1      -2.459   0.203   2.158  0.00  0.00    +0.176 A 
ATOM     25  O   UNL     1      -1.718  -0.923   2.207  0.00  0.00    -0.452 OA
ENDBRANCH  15  24
ENDBRANCH   1  15
BRANCH   2  26
ATOM     26  O   UNL     1       0.320   3.024   3.041  0.00  0.00    -0.502 OA
ATOM     27  H   UNL     1       1.202   3.440   3.262  0.00  0.00    +0.292 HD
ENDBRANCH   2  26
BRANCH   5  28
ATOM     28  C   UNL     1       2.344   1.198  -1.119  0.00  0.00    +0.183 C 
BRANCH  28  29
ATOM     29  C   UNL     1       2.294   2.263  -2.183  0.00  0.00    +0.122 A 
ATOM     30  C   UNL     1       3.035   3.385  -2.209  0.00  0.00    +0.046 A 
ATOM     31  C   UNL     1       2.669   4.091  -3.378  0.00  0.00    +0.041 A 
ATOM     32  C   UNL     1       1.720   3.362  -3.993  0.00  0.00    +0.195 A 
ATOM     33  O   UNL     1       1.497   2.256  -3.264  0.00  0.00    -0.466 OA
ENDBRANCH  28  29
ENDBRANCH   5  28
TORSDOF 7
