REMARK  Name = ZINC13187767
REMARK  9 active torsions:
REMARK  status: ('A' for Active; 'I' for Inactive)
REMARK    1  A    between atoms: C_1  and  C_2
REMARK    2  A    between atoms: C_2  and  C_3
REMARK    3  A    between atoms: C_7  and  C_25
REMARK    4  A    between atoms: C_8  and  N_9
REMARK    5  A    between atoms: C_10  and  C_12
REMARK    6  A    between atoms: C_12  and  O_13
REMARK    7  A    between atoms: O_13  and  C_14
REMARK    8  A    between atoms: C_16  and  C_23
REMARK    9  A    between atoms: C_19  and  N_20
REMARK                            x       y       z     vdW  Elec       q    Type
REMARK                         _______ _______ _______ _____ _____    ______ ____
ROOT
ATOM      1  C   UNL     1       2.283   1.144  -0.285  0.00  0.00    +0.325 C 
ENDROOT
BRANCH   1   3
ATOM      2  N   UNL     1      -0.134   1.043   0.231  0.00  0.00    -0.282 N 
ATOM      3  C   UNL     1       0.871   1.650  -0.430  0.00  0.00    +0.255 C 
ATOM      4  O   UNL     1       0.639   2.605  -1.142  0.00  0.00    -0.272 OA
ATOM      5  H   UNL     1       0.042   0.248   0.758  0.00  0.00    +0.155 HD
BRANCH   2  11
ATOM      6  C   UNL     1      -2.489   0.727  -0.205  0.00  0.00    -0.026 A 
ATOM      7  C   UNL     1      -3.771   1.236  -0.281  0.00  0.00    +0.005 A 
ATOM      8  C   UNL     1      -4.004   2.570  -0.002  0.00  0.00    +0.001 A 
ATOM      9  C   UNL     1      -2.955   3.398   0.354  0.00  0.00    +0.005 A 
ATOM     10  C   UNL     1      -1.672   2.894   0.438  0.00  0.00    -0.029 A 
ATOM     11  C   UNL     1      -1.434   1.556   0.153  0.00  0.00    +0.040 A 
ATOM     12  C   UNL     1      -0.531   3.796   0.833  0.00  0.00    +0.045 C 
BRANCH   6  14
ATOM     13  C   UNL     1      -2.239  -1.530   0.793  0.00  0.00    +0.009 C 
ATOM     14  C   UNL     1      -2.235  -0.727  -0.510  0.00  0.00    +0.033 C 
ENDBRANCH   6  14
ENDBRANCH   2  11
ENDBRANCH   1   3
BRANCH   1  15
ATOM     15  O   UNL     1       3.160   1.946  -1.078  0.00  0.00    -0.480 OA
BRANCH  15  16
ATOM     16  C   UNL     1       4.480   1.620  -1.059  0.00  0.00    +0.152 A 
ATOM     17  C   UNL     1       4.918   0.552  -0.294  0.00  0.00    +0.063 A 
ATOM     18  C   UNL     1       6.273   0.221  -0.278  0.00  0.00    +0.067 A 
ATOM     19  C   UNL     1       7.179   0.970  -1.033  0.00  0.00    +0.017 A 
ATOM     20  C   UNL     1       6.731   2.032  -1.791  0.00  0.00    +0.037 A 
ATOM     21  C   UNL     1       5.386   2.355  -1.810  0.00  0.00    +0.168 A 
BRANCH  21  22
ATOM     22  N   UNL     1       4.913   3.493  -2.631  0.00  0.00    +0.060 N 
ATOM     23  O   UNL     1       5.707   4.139  -3.291  0.00  0.00    -0.126 OA
ATOM     24  O   UNL     1       3.730   3.782  -2.646  0.00  0.00    -0.126 OA
ENDBRANCH  21  22
BRANCH  18  25
ATOM     25  C   UNL     1       6.749  -0.917   0.535  0.00  0.00    +0.387 C 
ATOM     26  O   UNL     1       5.960  -1.567   1.191  0.00  0.00    -0.241 OA
ATOM     27  O   UNL     1       8.058  -1.234   0.549  0.00  0.00    -0.241 OA
ENDBRANCH  18  25
ENDBRANCH  15  16
ENDBRANCH   1  15
TORSDOF 7
