REMARK  Name = ZINC45928649
REMARK  13 active torsions:
REMARK  status: ('A' for Active; 'I' for Inactive)
REMARK    1  A    between atoms: C_1  and  C_2
REMARK    2  A    between atoms: C_2  and  N_3
REMARK    3  A    between atoms: N_3  and  C_4
REMARK    4  A    between atoms: N_3  and  C_6
REMARK    5  A    between atoms: C_4  and  C_5
REMARK    6  A    between atoms: C_6  and  C_8
REMARK    7  A    between atoms: C_6  and  C_29
REMARK    8  A    between atoms: C_8  and  N_9
REMARK    9  A    between atoms: C_10  and  C_12
REMARK   10  A    between atoms: C_12  and  C_13
REMARK   11  A    between atoms: C_20  and  C_25
REMARK   12  A    between atoms: C_33  and  O_35
REMARK   13  A    between atoms: O_35  and  C_36
REMARK                            x       y       z     vdW  Elec       q    Type
REMARK                         _______ _______ _______ _____ _____    ______ ____
ROOT
ATOM      1  N   UNL     1      -1.626  -2.384   0.692  0.00  0.00    -0.316 N 
ATOM      2  C   UNL     1      -1.247  -3.383  -0.129  0.00  0.00    +0.215 C 
ATOM      3  O   UNL     1      -1.053  -3.161  -1.306  0.00  0.00    -0.276 OA
ATOM      4  H   UNL     1      -1.710  -2.544   1.645  0.00  0.00    +0.149 HD
ENDROOT
BRANCH   1   5
ATOM      5  C   UNL     1      -1.911  -1.055   0.145  0.00  0.00    +0.093 C 
BRANCH   5   6
ATOM      6  C   UNL     1      -2.177  -0.078   1.292  0.00  0.00    -0.020 C 
BRANCH   6   7
ATOM      7  C   UNL     1      -2.350   1.313   0.737  0.00  0.00    -0.056 A 
ATOM      8  C   UNL     1      -2.715   1.488  -0.585  0.00  0.00    +0.002 A 
ATOM      9  C   UNL     1      -2.874   2.763  -1.097  0.00  0.00    +0.004 A 
ATOM     10  C   UNL     1      -2.670   3.864  -0.288  0.00  0.00    +0.045 A 
ATOM     11  C   UNL     1      -2.305   3.690   1.039  0.00  0.00    +0.120 A 
ATOM     12  C   UNL     1      -2.151   2.410   1.552  0.00  0.00    +0.047 A 
BRANCH  11  13
ATOM     13  O   UNL     1      -2.103   4.772   1.836  0.00  0.00    -0.495 OA
ATOM     14  C   UNL     1      -2.285   6.059   1.242  0.00  0.00    +0.277 C 
ENDBRANCH  11  13
ENDBRANCH   6   7
BRANCH   6  15
ATOM     15  N   UNL     1      -1.042  -0.095   2.224  0.00  0.00    +0.385 N 
ATOM     16  H   UNL     1      -0.639  -1.020   2.246  0.00  0.00    -0.081 HD
BRANCH  15  18
ATOM     17  C   UNL     1       0.397   0.539   0.346  0.00  0.00    -0.017 C 
ATOM     18  C   UNL     1      -0.028   0.870   1.779  0.00  0.00    -0.081 C 
ENDBRANCH  15  18
BRANCH  15  19
ATOM     19  C   UNL     1      -1.506   0.268   3.569  0.00  0.00    -0.081 C 
ATOM     20  C   UNL     1      -2.397  -0.847   4.120  0.00  0.00    -0.017 C 
ENDBRANCH  15  19
ENDBRANCH   6  15
ENDBRANCH   5   6
ENDBRANCH   1   5
BRANCH   2  21
ATOM     21  C   UNL     1      -1.063  -4.777   0.415  0.00  0.00    +0.119 C 
BRANCH  21  22
ATOM     22  C   UNL     1      -0.502  -5.683  -0.682  0.00  0.00    +0.146 C 
ATOM     23  C   UNL     1      -0.423  -7.100  -0.177  0.00  0.00    +0.231 C 
ATOM     24  O   UNL     1      -1.313  -7.869  -0.473  0.00  0.00    -0.274 OA
ATOM     25  N   UNL     1       0.576  -7.549   0.576  0.00  0.00    -0.284 N 
ATOM     26  C   UNL     1       1.734  -6.858   0.918  0.00  0.00    +0.047 A 
ATOM     27  C   UNL     1       2.512  -7.319   1.976  0.00  0.00    +0.036 A 
ATOM     28  C   UNL     1       3.661  -6.645   2.340  0.00  0.00    +0.057 A 
ATOM     29  C   UNL     1       4.052  -5.506   1.660  0.00  0.00    +0.013 A 
ATOM     30  C   UNL     1       3.291  -5.039   0.604  0.00  0.00    +0.017 A 
ATOM     31  C   UNL     1       2.140  -5.714   0.232  0.00  0.00    +0.030 A 
ATOM     32  S   UNL     1       1.172  -5.132  -1.134  0.00  0.00    -0.110 S 
ATOM     33  H   UNL     1       0.488  -8.451   0.923  0.00  0.00    +0.155 HD
BRANCH  28  34
ATOM     34  C   UNL     1       4.495  -7.155   3.487  0.00  0.00    +0.417 C 
ATOM     35  F   UNL     1       5.453  -8.053   3.005  0.00  0.00    -0.166 F 
ATOM     36  F   UNL     1       5.137  -6.079   4.111  0.00  0.00    -0.166 F 
ATOM     37  F   UNL     1       3.670  -7.804   4.411  0.00  0.00    -0.166 F 
ENDBRANCH  28  34
ENDBRANCH  21  22
ENDBRANCH   2  21
TORSDOF 10
