REMARK  Name = ZINC04245690
REMARK  14 active torsions:
REMARK  status: ('A' for Active; 'I' for Inactive)
REMARK    1  A    between atoms: C_1  and  C_2
REMARK    2  A    between atoms: C_2  and  C_3
REMARK    3  A    between atoms: C_3  and  O_5
REMARK    4  A    between atoms: O_5  and  C_6
REMARK    5  A    between atoms: C_6  and  C_7
REMARK    6  A    between atoms: C_7  and  C_9
REMARK    7  A    between atoms: C_9  and  O_38
REMARK    8  A    between atoms: C_10  and  C_37
REMARK    9  A    between atoms: C_15  and  C_36
REMARK   10  A    between atoms: C_17  and  O_35
REMARK   11  A    between atoms: C_32  and  C_33
REMARK   12  A    between atoms: O_38  and  C_39
REMARK   13  A    between atoms: C_39  and  C_41
REMARK   14  A    between atoms: C_41  and  C_42
REMARK                            x       y       z     vdW  Elec       q    Type
REMARK                         _______ _______ _______ _____ _____    ______ ____
ROOT
ATOM      1  C   UNL     1       0.106   3.397   1.540  0.00  0.00    +0.182 C 
ATOM      2  C   UNL     1      -0.313   2.019   0.969  0.00  0.00    +0.038 C 
ATOM      3  C   UNL     1      -1.347   1.427   1.964  0.00  0.00    +0.012 C 
ATOM      4  C   UNL     1      -1.907   2.673   2.658  0.00  0.00    +0.005 C 
ATOM      5  C   UNL     1      -0.623   3.517   2.875  0.00  0.00    +0.021 C 
ATOM      6  C   UNL     1      -1.066   4.910   3.279  0.00  0.00    +0.043 C 
ATOM      7  C   UNL     1      -1.776   4.785   4.636  0.00  0.00    +0.120 C 
ATOM      8  C   UNL     1      -2.955   3.818   4.570  0.00  0.00    +0.036 C 
ATOM      9  C   UNL     1      -2.526   2.438   4.045  0.00  0.00    +0.017 C 
ATOM     10  C   UNL     1      -3.760   1.544   3.890  0.00  0.00    +0.088 C 
ATOM     11  C   UNL     1      -4.357   1.282   5.276  0.00  0.00    +0.051 C 
ATOM     12  C   UNL     1      -4.645   2.623   5.927  0.00  0.00    -0.055 C 
ATOM     13  C   UNL     1      -5.857   2.850   6.414  0.00  0.00    +0.051 C 
ATOM     14  C   UNL     1      -6.186   4.149   7.022  0.00  0.00    +0.179 C 
ATOM     15  O   UNL     1      -7.285   4.349   7.505  0.00  0.00    -0.288 OA
ATOM     16  C   UNL     1      -5.155   5.201   7.034  0.00  0.00    +0.047 C 
ATOM     17  C   UNL     1      -3.969   4.946   6.539  0.00  0.00    -0.012 C 
ATOM     18  C   UNL     1      -3.540   3.635   5.974  0.00  0.00    +0.013 C 
ATOM     19  C   UNL     1      -2.433   3.078   6.871  0.00  0.00    +0.020 C 
ATOM     20 CL   UNL     1      -4.989   2.356   2.850  0.00  0.00    -0.121 Cl
ATOM     21  C   UNL     1       0.227   2.900   3.987  0.00  0.00    +0.016 C 
ATOM     22  C   UNL     1      -0.952   2.196  -0.410  0.00  0.00    +0.012 C 
ENDROOT
BRANCH   1  23
ATOM     23  C   UNL     1      -0.324   4.501   0.609  0.00  0.00    +0.214 C 
ATOM     24  O   UNL     1      -1.492   4.645   0.342  0.00  0.00    -0.289 OA
BRANCH  23  25
ATOM     25  C   UNL     1       0.706   5.426   0.012  0.00  0.00    +0.310 C 
BRANCH  25  26
ATOM     26  O   UNL     1       0.044   6.406  -0.832  0.00  0.00    -0.457 OA
BRANCH  26  27
ATOM     27  C   UNL     1       0.826   7.310  -1.443  0.00  0.00    +0.307 C 
ATOM     28  O   UNL     1       2.022   7.284  -1.279  0.00  0.00    -0.251 OA
BRANCH  27  30
ATOM     29  C   UNL     1       1.311   9.255  -2.902  0.00  0.00    +0.015 C 
ATOM     30  C   UNL     1       0.210   8.358  -2.334  0.00  0.00    +0.117 C 
ENDBRANCH  27  30
ENDBRANCH  26  27
ENDBRANCH  25  26
ENDBRANCH  23  25
ENDBRANCH   1  23
BRANCH   7  31
ATOM     31  O   UNL     1      -0.842   4.316   5.610  0.00  0.00    -0.391 OA
ATOM     32  H   UNL     1      -1.163   4.161   6.650  0.00  0.00    +0.210 HD
ENDBRANCH   7  31
BRANCH   1  33
ATOM     33  O   UNL     1       1.543   3.443   1.745  0.00  0.00    -0.449 OA
BRANCH  33  34
ATOM     34  C   UNL     1       2.319   3.189   0.680  0.00  0.00    +0.308 C 
ATOM     35  O   UNL     1       1.819   2.834  -0.361  0.00  0.00    -0.251 OA
BRANCH  34  36
ATOM     36  C   UNL     1       3.814   3.345   0.783  0.00  0.00    +0.117 C 
ATOM     37  C   UNL     1       4.457   2.996  -0.561  0.00  0.00    +0.015 C 
ENDBRANCH  34  36
ENDBRANCH  33  34
ENDBRANCH   1  33
TORSDOF 9
