REMARK  Name = ZINC03362682
REMARK  5 active torsions:
REMARK  status: ('A' for Active; 'I' for Inactive)
REMARK    1  A    between atoms: C_1  and  C_2
REMARK    2  A    between atoms: N_10  and  C_14
REMARK    3  A    between atoms: C_14  and  N_51
REMARK    4  A    between atoms: C_15  and  N_51
REMARK    5  A    between atoms: C_16  and  N_51
REMARK                            x       y       z     vdW  Elec       q    Type
REMARK                         _______ _______ _______ _____ _____    ______ ____
ROOT
ATOM      1  C   UNL     1       0.012  -3.821  -4.647  0.00  0.00    +0.007 C 
ATOM      2  C   UNL     1       0.025  -3.735  -3.119  0.00  0.00    -0.014 C 
ATOM      3  C   UNL     1       1.268  -2.969  -2.662  0.00  0.00    +0.006 C 
ATOM      4  C   UNL     1       1.286  -2.894  -1.133  0.00  0.00    +0.035 C 
ATOM      5  C   UNL     1       0.026  -2.190  -0.641  0.00  0.00    +0.112 C 
ATOM      6  C   UNL     1      -1.223  -2.928  -1.111  0.00  0.00    +0.035 C 
ATOM      7  C   UNL     1      -1.231  -3.003  -2.639  0.00  0.00    +0.006 C 
ATOM      8  C   UNL     1      -0.004  -0.756  -1.118  0.00  0.00    +0.245 C 
ATOM      9  O   UNL     1      -0.026  -0.365  -2.265  0.00  0.00    -0.273 OA
ATOM     10  N   UNL     1       0.002  -0.004   0.002  0.00  0.00    -0.241 N 
ATOM     11  C   UNL     1       0.022  -0.762   1.105  0.00  0.00    +0.308 C 
ATOM     12  O   UNL     1       0.026  -0.313   2.234  0.00  0.00    -0.252 OA
ATOM     13  N   UNL     1       0.038  -2.079   0.823  0.00  0.00    -0.285 N 
ATOM     14  H   UNL     1       0.053  -2.810   1.461  0.00  0.00    +0.151 HD
ENDROOT
BRANCH  10  15
ATOM     15  C   UNL     1      -0.018   1.461   0.010  0.00  0.00    +0.043 C 
BRANCH  15  17
ATOM     16  C   UNL     1       1.915   1.958  -1.361  0.00  0.00    -0.093 C 
ATOM     17  N   UNL     1       1.376   1.952   0.016  0.00  0.00    +0.390 N 
ATOM     18  H   UNL     1       1.948   1.325   0.595  0.00  0.00    -0.079 HD
BRANCH  17  19
ATOM     19  C   UNL     1       1.430   3.314   0.586  0.00  0.00    -0.067 C 
ATOM     20  C   UNL     1       0.650   4.294  -0.293  0.00  0.00    -0.015 C 
ATOM     21  C   UNL     1       0.722   5.696   0.318  0.00  0.00    -0.002 C 
ATOM     22  C   UNL     1       2.183   6.140   0.404  0.00  0.00    -0.000 C 
ATOM     23  C   UNL     1       2.963   5.160   1.282  0.00  0.00    -0.002 C 
ATOM     24  C   UNL     1       2.891   3.759   0.672  0.00  0.00    -0.015 C 
ENDBRANCH  17  19
ENDBRANCH  15  17
ENDBRANCH  10  15
TORSDOF 3
