REMARK  Name = ZINC06195651
REMARK  10 active torsions:
REMARK  status: ('A' for Active; 'I' for Inactive)
REMARK    1  A    between atoms: C_1  and  C_2
REMARK    2  A    between atoms: C_5  and  C_41
REMARK    3  A    between atoms: C_6  and  N_8
REMARK    4  A    between atoms: C_13  and  C_15
REMARK    5  A    between atoms: C_13  and  C_29
REMARK    6  A    between atoms: C_13  and  N_76
REMARK    7  A    between atoms: C_18  and  C_28
REMARK    8  A    between atoms: C_21  and  C_27
REMARK    9  A    between atoms: N_33  and  C_34
REMARK   10  A    between atoms: C_34  and  C_35
REMARK                            x       y       z     vdW  Elec       q    Type
REMARK                         _______ _______ _______ _____ _____    ______ ____
ROOT
ATOM      1  C   UNL     1       2.776   3.590  -0.306  0.00  0.00    +0.039 C 
ENDROOT
BRANCH   1   2
ATOM      2  C   UNL     1       1.794   2.470  -0.535  0.00  0.00    +0.011 A 
ATOM      3  C   UNL     1       1.228   1.841   0.525  0.00  0.00    +0.018 A 
ATOM      4  C   UNL     1       0.278   0.757   0.268  0.00  0.00    +0.002 A 
ATOM      5  C   UNL     1      -0.338   0.071   1.320  0.00  0.00    -0.041 A 
ATOM      6  C   UNL     1      -1.221  -0.935   1.047  0.00  0.00    +0.004 A 
ATOM      7  C   UNL     1      -1.512  -1.283  -0.265  0.00  0.00    +0.005 A 
ATOM      8  C   UNL     1      -0.917  -0.621  -1.317  0.00  0.00    -0.026 A 
ATOM      9  C   UNL     1      -0.019   0.410  -1.063  0.00  0.00    +0.052 A 
ATOM     10  N   UNL     1       0.595   1.087  -2.096  0.00  0.00    -0.322 N 
ATOM     11  H   UNL     1       0.391   0.844  -3.013  0.00  0.00    +0.169 HD
ATOM     12  C   UNL     1       1.466   2.081  -1.851  0.00  0.00    +0.251 A 
ATOM     13  O   UNL     1       1.986   2.660  -2.789  0.00  0.00    -0.268 OA
ATOM     14  C   UNL     1      -1.242  -1.009  -2.736  0.00  0.00    +0.046 C 
ATOM     15  C   UNL     1      -0.030   0.440   2.748  0.00  0.00    +0.044 C 
ENDBRANCH   1   2
BRANCH   1  21
ATOM     16  N   UNL     1       6.854   2.746  -1.016  0.00  0.00    -0.333 N 
ATOM     17  C   UNL     1       6.309   4.005  -1.543  0.00  0.00    +0.086 C 
ATOM     18  C   UNL     1       5.022   4.355  -0.793  0.00  0.00    -0.058 C 
ATOM     19  C   UNL     1       4.599   2.000  -0.423  0.00  0.00    -0.058 C 
ATOM     20  C   UNL     1       5.887   1.651  -1.173  0.00  0.00    +0.086 C 
ATOM     21  N   UNL     1       4.051   3.256  -0.977  0.00  0.00    +0.391 N 
ATOM     22  H   UNL     1       3.876   3.129  -1.981  0.00  0.00    -0.080 HD
BRANCH  16  28
ATOM     23  C   UNL     1       9.397   1.730  -5.097  0.00  0.00    +0.044 C 
ATOM     24  C   UNL     1       9.332   1.934  -3.605  0.00  0.00    -0.049 A 
ATOM     25  C   UNL     1      10.477   1.808  -2.840  0.00  0.00    +0.004 A 
ATOM     26  C   UNL     1      10.422   1.993  -1.471  0.00  0.00    +0.005 A 
ATOM     27  C   UNL     1       9.222   2.304  -0.863  0.00  0.00    -0.029 A 
ATOM     28  C   UNL     1       8.070   2.432  -1.628  0.00  0.00    +0.033 A 
ATOM     29  C   UNL     1       8.128   2.240  -3.003  0.00  0.00    +0.026 A 
ATOM     30  C   UNL     1       9.162   2.506   0.629  0.00  0.00    +0.045 C 
ENDBRANCH  16  28
ENDBRANCH   1  21
BRANCH   1  31
ATOM     31  C   UNL     1       2.992   3.775   1.174  0.00  0.00    +0.143 A 
ATOM     32  N   UNL     1       3.607   2.948   1.984  0.00  0.00    -0.115 NA
ATOM     33  N   UNL     1       3.585   3.460   3.167  0.00  0.00    -0.023 NA
ATOM     34  N   UNL     1       2.971   4.590   3.132  0.00  0.00    -0.044 NA
ATOM     35  N   UNL     1       2.594   4.822   1.920  0.00  0.00    -0.228 N 
BRANCH  35  36
ATOM     36  C   UNL     1       1.868   6.003   1.445  0.00  0.00    +0.178 C 
BRANCH  36  37
ATOM     37  C   UNL     1       0.366   5.795   1.652  0.00  0.00    +0.140 C 
ATOM     38  C   UNL     1      -0.422   7.028   1.143  0.00  0.00    +0.035 C 
ATOM     39  C   UNL     1      -1.804   6.388   0.839  0.00  0.00    +0.031 C 
ATOM     40  C   UNL     1      -1.413   4.976   0.353  0.00  0.00    +0.160 C 
ATOM     41  O   UNL     1      -0.100   4.696   0.853  0.00  0.00    -0.375 OA
ENDBRANCH  36  37
ENDBRANCH  35  36
ENDBRANCH   1  31
TORSDOF 6
