REMARK  Name = ZINC20909120
REMARK  5 active torsions:
REMARK  status: ('A' for Active; 'I' for Inactive)
REMARK    1  A    between atoms: C_1  and  C_2
REMARK    2  A    between atoms: C_2  and  C_3
REMARK    3  A    between atoms: C_3  and  C_4
REMARK    4  A    between atoms: N_12  and  S_14
REMARK    5  A    between atoms: S_14  and  C_17
REMARK                            x       y       z     vdW  Elec       q    Type
REMARK                         _______ _______ _______ _____ _____    ______ ____
ROOT
ATOM      1  C   UNL     1       0.762  -2.018   1.233  0.00  0.00    +0.067 A 
ATOM      2  C   UNL     1      -0.199  -2.852   1.796  0.00  0.00    +0.012 A 
ATOM      3  C   UNL     1       0.176  -4.138   1.577  0.00  0.00    +0.042 A 
ATOM      4  N   UNL     1       1.338  -4.115   0.902  0.00  0.00    -0.281 N 
ATOM      5  H   UNL     1       1.845  -4.889   0.610  0.00  0.00    +0.189 HD
ATOM      6  N   UNL     1       1.686  -2.772   0.690  0.00  0.00    -0.178 NA
ATOM      7  C   UNL     1      -0.608  -5.345   2.026  0.00  0.00    +0.072 C 
ATOM      8  C   UNL     1      -1.599  -4.914   3.114  0.00  0.00    +0.116 C 
ATOM      9  N   UNL     1      -2.270  -3.675   2.694  0.00  0.00    -0.169 NA
ATOM     10  C   UNL     1      -1.456  -2.457   2.534  0.00  0.00    +0.148 C 
ENDROOT
BRANCH   9  11
ATOM     11  S   UNL     1      -3.901  -3.649   2.407  0.00  0.00    +0.094 S 
ATOM     12  O   UNL     1      -4.140  -2.563   1.523  0.00  0.00    -0.150 OA
ATOM     13  O   UNL     1      -4.280  -4.983   2.095  0.00  0.00    -0.150 OA
BRANCH  11  14
ATOM     14  C   UNL     1      -4.691  -3.244   3.929  0.00  0.00    +0.259 A 
ATOM     15  C   UNL     1      -4.979  -2.001   4.337  0.00  0.00    +0.079 A 
ATOM     16  C   UNL     1      -5.627  -2.139   5.646  0.00  0.00    +0.022 A 
ATOM     17  C   UNL     1      -6.152  -1.241   6.574  0.00  0.00    +0.012 A 
ATOM     18  C   UNL     1      -6.703  -1.710   7.734  0.00  0.00    +0.001 A 
ATOM     19  C   UNL     1      -6.742  -3.072   7.993  0.00  0.00    +0.004 A 
ATOM     20  C   UNL     1      -6.228  -3.975   7.088  0.00  0.00    +0.047 A 
ATOM     21  C   UNL     1      -5.664  -3.520   5.902  0.00  0.00    +0.137 A 
ATOM     22  O   UNL     1      -5.098  -4.139   4.846  0.00  0.00    -0.437 OA
ENDBRANCH  11  14
ENDBRANCH   9  11
BRANCH   1  23
ATOM     23  C   UNL     1       0.742  -0.511   1.242  0.00  0.00    +0.057 C 
BRANCH  23  25
ATOM     24  C   UNL     1      -0.019   1.526   0.010  0.00  0.00    +0.004 C 
ATOM     25  C   UNL     1       0.002  -0.004   0.002  0.00  0.00    +0.003 C 
ENDBRANCH  23  25
ENDBRANCH   1  23
TORSDOF 4
