REMARK  Name = ZINC38529349
REMARK  10 active torsions:
REMARK  status: ('A' for Active; 'I' for Inactive)
REMARK    1  A    between atoms: C_1  and  C_2
REMARK    2  A    between atoms: C_2  and  C_39
REMARK    3  A    between atoms: C_5  and  C_8
REMARK    4  A    between atoms: C_10  and  O_22
REMARK    5  A    between atoms: C_18  and  C_20
REMARK    6  A    between atoms: C_18  and  C_21
REMARK    7  A    between atoms: O_22  and  C_23
REMARK    8  A    between atoms: C_23  and  C_25
REMARK    9  A    between atoms: C_28  and  N_31
REMARK   10  A    between atoms: N_32  and  C_33
REMARK                            x       y       z     vdW  Elec       q    Type
REMARK                         _______ _______ _______ _____ _____    ______ ____
ROOT
ATOM      1  C   UNL     1       2.743  -1.776   1.578  0.00  0.00    +0.196 C 
ATOM      2  C   UNL     1       2.833  -1.289   3.053  0.00  0.00    +0.242 C 
ATOM      3  C   UNL     1       2.141  -2.407   3.822  0.00  0.00    +0.220 C 
ATOM      4  C   UNL     1       1.133  -2.872   2.705  0.00  0.00    +0.286 C 
ATOM      5  O   UNL     1       1.950  -3.002   1.589  0.00  0.00    -0.339 OA
ATOM      6  O   UNL     1       0.332  -3.769   3.397  0.00  0.00    -0.318 OA
ATOM      7  C   UNL     1       0.274  -3.242   4.752  0.00  0.00    +0.168 C 
ATOM      8  O   UNL     1       1.198  -2.109   4.843  0.00  0.00    -0.337 OA
ATOM      9  C   UNL     1       0.700  -4.323   5.747  0.00  0.00    +0.074 C 
ATOM     10  C   UNL     1      -1.151  -2.781   5.067  0.00  0.00    +0.074 C 
ENDROOT
BRANCH   1  15
ATOM     11  C   UNL     1      -0.019   1.526   0.010  0.00  0.00    +0.074 C 
ATOM     12  C   UNL     1       0.002  -0.004   0.002  0.00  0.00    +0.165 C 
ATOM     13  O   UNL     1       0.685  -0.470  -1.169  0.00  0.00    -0.347 OA
ATOM     14  C   UNL     1       1.825  -1.234  -0.725  0.00  0.00    +0.197 C 
ATOM     15  C   UNL     1       2.054  -0.716   0.717  0.00  0.00    +0.180 C 
ATOM     16  O   UNL     1       0.697  -0.484   1.165  0.00  0.00    -0.341 OA
ATOM     17  C   UNL     1      -1.432  -0.537   0.003  0.00  0.00    +0.074 C 
ENDBRANCH   1  15
BRANCH   2  18
ATOM     18  O   UNL     1       4.196  -1.159   3.460  0.00  0.00    -0.452 OA
BRANCH  18  19
ATOM     19  C   UNL     1       4.471  -0.221   4.388  0.00  0.00    +0.340 C 
ATOM     20  O   UNL     1       3.577   0.467   4.838  0.00  0.00    -0.245 OA
BRANCH  19  21
ATOM     21  C   UNL     1       5.858  -0.029   4.856  0.00  0.00    +0.059 A 
ATOM     22  C   UNL     1       6.887  -0.818   4.333  0.00  0.00    +0.017 A 
ATOM     23  C   UNL     1       8.180  -0.639   4.770  0.00  0.00    +0.030 A 
ATOM     24  C   UNL     1       8.464   0.330   5.737  0.00  0.00    +0.086 A 
ATOM     25  C   UNL     1       7.434   1.119   6.260  0.00  0.00    +0.030 A 
ATOM     26  C   UNL     1       6.142   0.944   5.819  0.00  0.00    +0.017 A 
BRANCH  24  27
ATOM     27  N   UNL     1       9.748   0.507   6.171  0.00  0.00    -0.149 NA
ATOM     28  N   UNL     1      10.009   1.401   7.063  0.00  0.00    -0.149 NA
BRANCH  28  29
ATOM     29  C   UNL     1      11.292   1.578   7.497  0.00  0.00    +0.086 A 
ATOM     30  C   UNL     1      12.325   0.796   6.972  0.00  0.00    +0.029 A 
ATOM     31  C   UNL     1      13.618   0.980   7.415  0.00  0.00    +0.002 A 
ATOM     32  C   UNL     1      13.894   1.937   8.376  0.00  0.00    +0.000 A 
ATOM     33  C   UNL     1      12.877   2.716   8.900  0.00  0.00    +0.002 A 
ATOM     34  C   UNL     1      11.580   2.547   8.463  0.00  0.00    +0.029 A 
ENDBRANCH  28  29
ENDBRANCH  24  27
ENDBRANCH  19  21
ENDBRANCH  18  19
ENDBRANCH   2  18
TORSDOF 6
