REMARK  Name = ZINC34255577
REMARK  9 active torsions:
REMARK  status: ('A' for Active; 'I' for Inactive)
REMARK    1  A    between atoms: C_1  and  N_2
REMARK    2  A    between atoms: N_2  and  C_3
REMARK    3  A    between atoms: N_2  and  C_4
REMARK    4  A    between atoms: C_7  and  C_10
REMARK    5  A    between atoms: N_18  and  C_21
REMARK    6  A    between atoms: C_25  and  N_27
REMARK    7  A    between atoms: C_30  and  C_32
REMARK    8  A    between atoms: C_30  and  C_36
REMARK    9  A    between atoms: C_32  and  C_33
REMARK                            x       y       z     vdW  Elec       q    Type
REMARK                         _______ _______ _______ _____ _____    ______ ____
ROOT
ATOM      1  C   UNL     1      -0.006  -2.813  -4.924  0.00  0.00    -0.027 C 
ATOM      2  C   UNL     1      -1.404  -2.828  -5.534  0.00  0.00    +0.077 C 
ATOM      3  C   UNL     1      -0.973  -3.201  -7.003  0.00  0.00    +0.087 C 
ATOM      4  C   UNL     1      -2.219  -3.650  -7.576  0.00  0.00    +0.229 C 
ATOM      5  O   UNL     1      -2.592  -3.525  -8.723  0.00  0.00    -0.275 OA
ATOM      6  N   UNL     1      -2.890  -4.250  -6.540  0.00  0.00    -0.210 N 
ATOM      7  C   UNL     1      -2.334  -3.978  -5.306  0.00  0.00    +0.229 C 
ATOM      8  O   UNL     1      -2.544  -4.548  -4.258  0.00  0.00    -0.275 OA
ATOM      9  C   UNL     1       0.124  -2.266  -7.285  0.00  0.00    +0.058 C 
ATOM     10  N   UNL     1       0.808  -2.084  -5.951  0.00  0.00    +0.396 N 
ATOM     11  H   UNL     1       0.844  -1.101  -5.725  0.00  0.00    -0.083 HD
ATOM     12  H   UNL     1       1.743  -2.464  -5.979  0.00  0.00    -0.083 HD
ENDROOT
BRANCH   1  16
ATOM     13  C   UNL     1       0.000  -0.696  -1.211  0.00  0.00    +0.029 A 
ATOM     14  C   UNL     1       0.013  -2.085  -1.221  0.00  0.00    +0.023 A 
ATOM     15  C   UNL     1       0.010  -2.766  -2.422  0.00  0.00    +0.004 A 
ATOM     16  C   UNL     1      -0.005  -2.066  -3.615  0.00  0.00    -0.060 A 
ATOM     17  C   UNL     1      -0.018  -0.684  -3.609  0.00  0.00    +0.004 A 
ATOM     18  C   UNL     1      -0.021   0.004  -2.411  0.00  0.00    +0.023 A 
BRANCH  13  20
ATOM     19  C   UNL     1      -0.018   1.461   0.010  0.00  0.00    +0.129 C 
ATOM     20  N   UNL     1       0.002  -0.004   0.002  0.00  0.00    -0.336 N 
ATOM     21  C   UNL     1       0.024  -0.743   1.267  0.00  0.00    +0.129 C 
ENDBRANCH  13  20
ENDBRANCH   1  16
BRANCH   6  22
ATOM     22  C   UNL     1      -4.031  -5.046  -6.711  0.00  0.00    +0.046 A 
ATOM     23  C   UNL     1      -4.538  -5.270  -7.984  0.00  0.00    +0.024 A 
ATOM     24  C   UNL     1      -5.662  -6.055  -8.150  0.00  0.00    +0.004 A 
ATOM     25  C   UNL     1      -6.282  -6.619  -7.049  0.00  0.00    +0.033 A 
ATOM     26  C   UNL     1      -5.780  -6.397  -5.781  0.00  0.00    +0.128 A 
ATOM     27  C   UNL     1      -4.652  -5.618  -5.609  0.00  0.00    +0.056 A 
BRANCH  26  28
ATOM     28  N   UNL     1      -6.446  -7.002  -4.605  0.00  0.00    +0.056 N 
ATOM     29  O   UNL     1      -7.430  -7.688  -4.755  0.00  0.00    -0.126 OA
ATOM     30  O   UNL     1      -6.007  -6.809  -3.496  0.00  0.00    -0.126 OA
ENDBRANCH  26  28
ENDBRANCH   6  22
BRANCH   9  31
ATOM     31  C   UNL     1      -0.419  -0.961  -7.808  0.00  0.00    +0.347 C 
ATOM     32  O   UNL     1      -0.200   0.075  -7.205  0.00  0.00    -0.248 OA
ATOM     33  O   UNL     1      -1.077  -0.942  -8.835  0.00  0.00    -0.248 OA
ENDBRANCH   9  31
BRANCH   9  34
ATOM     34  C   UNL     1       1.102  -2.879  -8.290  0.00  0.00    +0.125 C 
BRANCH  34  35
ATOM     35  C   UNL     1       2.280  -1.957  -8.471  0.00  0.00    +0.355 C 
ATOM     36  O   UNL     1       2.332  -0.907  -7.854  0.00  0.00    -0.246 OA
ATOM     37  O   UNL     1       3.180  -2.261  -9.234  0.00  0.00    -0.246 OA
ENDBRANCH  34  35
ENDBRANCH   9  34
TORSDOF 7
