REMARK  Name = ZINC20796577
REMARK  4 active torsions:
REMARK  status: ('A' for Active; 'I' for Inactive)
REMARK    1  A    between atoms: C_1  and  C_2
REMARK    2  A    between atoms: C_7  and  N_8
REMARK    3  A    between atoms: N_12  and  C_14
REMARK    4  A    between atoms: C_22  and  C_27
REMARK                            x       y       z     vdW  Elec       q    Type
REMARK                         _______ _______ _______ _____ _____    ______ ____
ROOT
ATOM      1  N   UNL     1       1.384   1.593   2.434  0.00  0.00    -0.297 N 
ATOM      2  C   UNL     1       2.122   1.928   3.568  0.00  0.00    +0.156 A 
ATOM      3  C   UNL     1       3.563   1.864   3.714  0.00  0.00    +0.080 A 
ATOM      4  C   UNL     1       3.862   2.291   5.007  0.00  0.00    +0.058 A 
ATOM      5  N   UNL     1       2.708   2.588   5.603  0.00  0.00    -0.234 N 
ATOM      6  N   UNL     1       1.647   2.369   4.714  0.00  0.00    -0.150 NA
ATOM      7  C   UNL     1       5.270   2.368   5.538  0.00  0.00    +0.060 C 
ATOM      8  C   UNL     1       6.250   2.418   4.361  0.00  0.00    -0.001 C 
ATOM      9  C   UNL     1       5.990   1.262   3.390  0.00  0.00    +0.083 C 
ATOM     10  C   UNL     1       4.611   1.450   2.775  0.00  0.00    +0.169 C 
ATOM     11  O   UNL     1       4.394   1.271   1.595  0.00  0.00    -0.292 OA
ATOM     12  C   UNL     1       7.680   2.317   4.894  0.00  0.00    +0.008 C 
ATOM     13  H   UNL     1       1.888   1.160   1.558  0.00  0.00    +0.154 HD
ENDROOT
BRANCH   1  20
ATOM     14  C   UNL     1      -0.087   0.626   0.199  0.00  0.00    +0.045 C 
ATOM     15  C   UNL     1      -0.754   1.352   1.339  0.00  0.00    -0.029 A 
ATOM     16  C   UNL     1      -2.117   1.570   1.317  0.00  0.00    +0.005 A 
ATOM     17  C   UNL     1      -2.731   2.231   2.365  0.00  0.00    +0.000 A 
ATOM     18  C   UNL     1      -1.980   2.685   3.435  0.00  0.00    +0.002 A 
ATOM     19  C   UNL     1      -0.615   2.476   3.461  0.00  0.00    +0.023 A 
ATOM     20  C   UNL     1       0.004   1.807   2.411  0.00  0.00    +0.035 A 
ENDBRANCH   1  20
BRANCH   5  21
ATOM     21  C   UNL     1       2.576   3.052   6.918  0.00  0.00    +0.066 A 
ATOM     22  C   UNL     1       3.433   2.590   7.909  0.00  0.00    +0.030 A 
ATOM     23  C   UNL     1       3.304   3.054   9.203  0.00  0.00    +0.040 A 
ATOM     24  C   UNL     1       2.315   3.971   9.516  0.00  0.00    +0.124 A 
ATOM     25  C   UNL     1       1.455   4.428   8.531  0.00  0.00    +0.040 A 
ATOM     26  C   UNL     1       1.584   3.971   7.235  0.00  0.00    +0.030 A 
ATOM     27  F   UNL     1       2.187   4.419  10.784  0.00  0.00    -0.205 F 
ENDBRANCH   5  21
TORSDOF 2
