REMARK  Name = ZINC01308052
REMARK  10 active torsions:
REMARK  status: ('A' for Active; 'I' for Inactive)
REMARK    1  A    between atoms: C_1  and  C_2
REMARK    2  A    between atoms: C_5  and  C_8
REMARK    3  A    between atoms: C_11  and  S_21
REMARK    4  A    between atoms: N_12  and  C_13
REMARK    5  A    between atoms: C_16  and  O_19
REMARK    6  A    between atoms: O_19  and  C_20
REMARK    7  A    between atoms: S_21  and  C_22
REMARK    8  A    between atoms: C_22  and  C_23
REMARK    9  A    between atoms: N_25  and  N_26
REMARK   10  A    between atoms: N_26  and  C_27
REMARK                            x       y       z     vdW  Elec       q    Type
REMARK                         _______ _______ _______ _____ _____    ______ ____
ROOT
ATOM      1  C   UNL     1      -0.663  -4.291   0.255  0.00  0.00    +0.169 A 
ATOM      2  N   UNL     1      -0.680  -5.040  -0.823  0.00  0.00    -0.128 NA
ATOM      3  N   UNL     1      -0.538  -6.276  -0.503  0.00  0.00    -0.122 NA
ATOM      4  C   UNL     1      -0.421  -6.395   0.801  0.00  0.00    +0.197 A 
ATOM      5  N   UNL     1      -0.491  -5.136   1.330  0.00  0.00    -0.270 N 
ENDROOT
BRANCH   1  10
ATOM      6  C   UNL     1      -1.188   1.436   0.454  0.00  0.00    +0.044 C 
ATOM      7  C   UNL     1      -1.050  -0.064   0.402  0.00  0.00    -0.050 A 
ATOM      8  C   UNL     1      -0.782  -0.690  -0.803  0.00  0.00    +0.004 A 
ATOM      9  C   UNL     1      -0.655  -2.062  -0.857  0.00  0.00    +0.012 A 
ATOM     10  C   UNL     1      -0.798  -2.820   0.306  0.00  0.00    +0.020 A 
ATOM     11  C   UNL     1      -1.069  -2.183   1.518  0.00  0.00    +0.012 A 
ATOM     12  C   UNL     1      -1.188  -0.809   1.560  0.00  0.00    +0.004 A 
ENDBRANCH   1  10
BRANCH   5  13
ATOM     13  C   UNL     1      -0.407  -4.779   2.684  0.00  0.00    +0.051 A 
ATOM     14  C   UNL     1       0.655  -4.006   3.135  0.00  0.00    +0.030 A 
ATOM     15  C   UNL     1       0.737  -3.655   4.468  0.00  0.00    +0.047 A 
ATOM     16  C   UNL     1      -0.242  -4.075   5.357  0.00  0.00    +0.120 A 
ATOM     17  C   UNL     1      -1.303  -4.847   4.907  0.00  0.00    +0.047 A 
ATOM     18  C   UNL     1      -1.389  -5.193   3.574  0.00  0.00    +0.030 A 
BRANCH  16  19
ATOM     19  O   UNL     1      -0.161  -3.730   6.669  0.00  0.00    -0.495 OA
ATOM     20  C   UNL     1      -1.203  -4.196   7.529  0.00  0.00    +0.277 C 
ENDBRANCH  16  19
ENDBRANCH   5  13
BRANCH   4  21
ATOM     21  S   UNL     1      -0.207  -7.896   1.699  0.00  0.00    -0.076 S 
BRANCH  21  22
ATOM     22  C   UNL     1      -0.190  -9.177   0.414  0.00  0.00    +0.174 C 
BRANCH  22  23
ATOM     23  C   UNL     1      -0.010 -10.529   1.056  0.00  0.00    +0.239 C 
ATOM     24  O   UNL     1       0.096 -10.619   2.260  0.00  0.00    -0.273 OA
ATOM     25  N   UNL     1       0.033 -11.637   0.290  0.00  0.00    -0.236 N 
ATOM     26  H   UNL     1      -0.052 -11.565  -0.673  0.00  0.00    +0.173 HD
BRANCH  25  27
ATOM     27  N   UNL     1       0.200 -12.894   0.887  0.00  0.00    -0.271 N 
ATOM     28  H   UNL     1       0.284 -12.966   1.850  0.00  0.00    +0.169 HD
BRANCH  27  29
ATOM     29  C   UNL     1       0.242 -14.004   0.120  0.00  0.00    +0.097 C 
ATOM     30  C   UNL     1       0.522 -15.230   0.695  0.00  0.00    +0.017 C 
ATOM     31  C   UNL     1       0.499 -16.503   0.070  0.00  0.00    +0.121 C 
ATOM     32  N   UNL     1       0.822 -17.421   0.941  0.00  0.00    -0.254 NA
ATOM     33  C   UNL     1       1.081 -16.901   2.164  0.00  0.00    +0.072 A 
ATOM     34  C   UNL     1       0.917 -15.501   2.091  0.00  0.00    +0.010 A 
ATOM     35  C   UNL     1       1.128 -14.711   3.214  0.00  0.00    +0.011 A 
ATOM     36  C   UNL     1       1.502 -15.300   4.403  0.00  0.00    +0.001 A 
ATOM     37  C   UNL     1       1.668 -16.676   4.482  0.00  0.00    +0.002 A 
ATOM     38  C   UNL     1       1.456 -17.476   3.383  0.00  0.00    +0.028 A 
ENDBRANCH  27  29
ENDBRANCH  25  27
ENDBRANCH  22  23
ENDBRANCH  21  22
ENDBRANCH   4  21
TORSDOF 8
