REMARK  Name = ZINC58005380
REMARK  10 active torsions:
REMARK  status: ('A' for Active; 'I' for Inactive)
REMARK    1  A    between atoms: C_1  and  C_2
REMARK    2  A    between atoms: C_2  and  C_3
REMARK    3  A    between atoms: C_3  and  N_4
REMARK    4  A    between atoms: C_7  and  C_19
REMARK    5  A    between atoms: C_12  and  C_15
REMARK    6  A    between atoms: C_12  and  C_17
REMARK    7  A    between atoms: C_15  and  C_16
REMARK    8  A    between atoms: C_17  and  C_18
REMARK    9  A    between atoms: C_19  and  C_21
REMARK   10  A    between atoms: C_21  and  C_22
REMARK                            x       y       z     vdW  Elec       q    Type
REMARK                         _______ _______ _______ _____ _____    ______ ____
ROOT
ATOM      1  N   UNL     1      -1.413  -1.998   0.005  0.00  0.00    -0.265 N 
ATOM      2  C   UNL     1      -1.409  -2.702  -1.208  0.00  0.00    +0.079 A 
ATOM      3  C   UNL     1      -1.196  -2.038  -2.400  0.00  0.00    +0.038 A 
ATOM      4  C   UNL     1      -1.181  -2.757  -3.602  0.00  0.00    +0.019 A 
ATOM      5  C   UNL     1      -1.383  -4.143  -3.587  0.00  0.00    +0.015 A 
ATOM      6  C   UNL     1      -1.601  -4.796  -2.394  0.00  0.00    +0.048 A 
ATOM      7  C   UNL     1      -1.621  -4.082  -1.203  0.00  0.00    +0.143 A 
ATOM      8  O   UNL     1      -1.867  -4.719  -0.028  0.00  0.00    -0.475 OA
ATOM      9  C   UNL     1      -1.241  -4.187   1.141  0.00  0.00    +0.186 C 
ATOM     10  C   UNL     1      -1.393  -2.688   1.165  0.00  0.00    +0.264 C 
ATOM     11  O   UNL     1      -1.500  -2.103   2.222  0.00  0.00    -0.271 OA
ENDROOT
BRANCH   9  12
ATOM     12  C   UNL     1      -1.896  -4.787   2.387  0.00  0.00    +0.054 C 
ATOM     13  C   UNL     1      -3.385  -4.435   2.400  0.00  0.00    +0.008 C 
ENDBRANCH   9  12
BRANCH   9  14
ATOM     14  C   UNL     1       0.247  -4.543   1.129  0.00  0.00    +0.054 C 
ATOM     15  C   UNL     1       0.929  -3.843  -0.049  0.00  0.00    +0.008 C 
ENDBRANCH   9  14
BRANCH   4  16
ATOM     16  C   UNL     1      -0.956  -2.060  -4.875  0.00  0.00    +0.163 C 
ATOM     17  O   UNL     1      -0.782  -0.860  -4.886  0.00  0.00    -0.292 OA
BRANCH  16  18
ATOM     18  C   UNL     1      -0.941  -2.836  -6.167  0.00  0.00    +0.076 C 
ATOM     19  C   UNL     1      -0.689  -1.879  -7.333  0.00  0.00    +0.012 C 
ENDBRANCH  16  18
ENDBRANCH   4  16
BRANCH   1  20
ATOM     20  C   UNL     1      -1.433  -0.534   0.013  0.00  0.00    +0.113 C 
BRANCH  20  22
ATOM     21  C   UNL     1      -0.019   1.526   0.010  0.00  0.00    +0.005 C 
ATOM     22  C   UNL     1       0.002  -0.004   0.002  0.00  0.00    +0.016 C 
ENDBRANCH  20  22
ENDBRANCH   1  20
TORSDOF 6
