REMARK  Name = ZINC39981080
REMARK  8 active torsions:
REMARK  status: ('A' for Active; 'I' for Inactive)
REMARK    1  A    between atoms: C_1  and  C_2
REMARK    2  A    between atoms: C_2  and  C_3
REMARK    3  A    between atoms: C_15  and  S_17
REMARK    4  A    between atoms: S_17  and  C_18
REMARK    5  A    between atoms: C_18  and  C_19
REMARK    6  A    between atoms: N_21  and  C_22
REMARK    7  A    between atoms: C_25  and  C_28
REMARK    8  A    between atoms: N_30  and  C_31
REMARK                            x       y       z     vdW  Elec       q    Type
REMARK                         _______ _______ _______ _____ _____    ______ ____
ROOT
ATOM      1  C   UNL     1      -9.218  -0.456  -2.803  0.00  0.00    +0.173 C 
ENDROOT
BRANCH   1   2
ATOM      2  C   UNL     1     -10.508   0.138  -3.309  0.00  0.00    +0.227 C 
ATOM      3  O   UNL     1     -10.559   0.618  -4.422  0.00  0.00    -0.275 OA
ATOM      4  N   UNL     1     -11.604   0.135  -2.526  0.00  0.00    -0.285 N 
ATOM      5  H   UNL     1     -11.582  -0.308  -1.663  0.00  0.00    +0.155 HD
BRANCH   4   6
ATOM      6  C   UNL     1     -12.770   0.768  -2.955  0.00  0.00    +0.033 A 
ATOM      7  C   UNL     1     -13.113   0.750  -4.303  0.00  0.00    +0.024 A 
ATOM      8  C   UNL     1     -14.263   1.374  -4.731  0.00  0.00    +0.015 A 
ATOM      9  C   UNL     1     -15.086   2.027  -3.809  0.00  0.00    +0.037 A 
ATOM     10  C   UNL     1     -14.738   2.043  -2.455  0.00  0.00    +0.015 A 
ATOM     11  C   UNL     1     -13.589   1.412  -2.034  0.00  0.00    +0.024 A 
BRANCH   9  12
ATOM     12  C   UNL     1     -16.320   2.698  -4.263  0.00  0.00    +0.244 C 
ATOM     13  O   UNL     1     -16.621   2.683  -5.441  0.00  0.00    -0.270 OA
ATOM     14  N   UNL     1     -17.112   3.327  -3.373  0.00  0.00    -0.308 N 
ATOM     15  H   UNL     1     -16.872   3.338  -2.433  0.00  0.00    +0.149 HD
BRANCH  14  16
ATOM     16  C   UNL     1     -18.337   3.993  -3.824  0.00  0.00    +0.073 C 
ATOM     17  C   UNL     1     -18.640   5.378  -3.250  0.00  0.00    +0.024 C 
ATOM     18  C   UNL     1     -19.463   4.168  -2.803  0.00  0.00    +0.024 C 
ENDBRANCH  14  16
ENDBRANCH   9  12
ENDBRANCH   4   6
ENDBRANCH   1   2
BRANCH   1  19
ATOM     19  S   UNL     1      -7.939  -0.301  -4.080  0.00  0.00    -0.075 S 
BRANCH  19  31
ATOM     20  C   UNL     1      -1.416  -0.579   0.017  0.00  0.00    -0.047 A 
ATOM     21  C   UNL     1      -2.042  -0.821   1.248  0.00  0.00    +0.005 A 
ATOM     22  C   UNL     1      -3.308  -1.290   1.324  0.00  0.00    +0.026 A 
ATOM     23  C   UNL     1      -4.050  -1.554   0.085  0.00  0.00    +0.046 A 
ATOM     24  N   UNL     1      -5.275  -1.972  -0.128  0.00  0.00    -0.358 N 
ATOM     25  C   UNL     1      -5.459  -2.180  -1.554  0.00  0.00    +0.252 C 
ATOM     26  C   UNL     1      -4.238  -1.572  -2.221  0.00  0.00    +0.117 C 
ATOM     27  C   UNL     1      -3.364  -1.276  -1.202  0.00  0.00    +0.025 A 
ATOM     28  C   UNL     1      -2.038  -0.787  -1.166  0.00  0.00    +0.015 A 
ATOM     29  N   UNL     1      -4.213  -1.301  -3.529  0.00  0.00    -0.147 NA
ATOM     30  N   UNL     1      -5.369  -1.065  -4.072  0.00  0.00    -0.122 NA
ATOM     31  C   UNL     1      -6.513  -1.030  -3.346  0.00  0.00    +0.208 C 
ATOM     32  N   UNL     1      -6.624  -1.510  -2.128  0.00  0.00    -0.227 NA
ATOM     33  H   UNL     1      -5.949  -2.118   0.555  0.00  0.00    +0.162 HD
BRANCH  20  35
ATOM     34  C   UNL     1      -0.016   1.468   0.031  0.00  0.00    +0.009 C 
ATOM     35  C   UNL     1      -0.001  -0.062   0.011  0.00  0.00    +0.032 C 
ENDBRANCH  20  35
ENDBRANCH  19  31
ENDBRANCH   1  19
TORSDOF 7
