REMARK  Name = ZINC36307026
REMARK  15 active torsions:
REMARK  status: ('A' for Active; 'I' for Inactive)
REMARK    1  A    between atoms: C_1  and  N_2
REMARK    2  A    between atoms: C_3  and  O_30
REMARK    3  A    between atoms: C_4  and  C_13
REMARK    4  A    between atoms: C_5  and  C_7
REMARK    5  A    between atoms: C_13  and  N_14
REMARK    6  A    between atoms: N_14  and  C_15
REMARK    7  A    between atoms: N_14  and  C_21
REMARK    8  A    between atoms: C_15  and  C_16
REMARK    9  A    between atoms: C_21  and  C_22
REMARK   10  A    between atoms: C_22  and  C_24
REMARK   11  A    between atoms: C_22  and  O_29
REMARK   12  A    between atoms: C_24  and  O_25
REMARK   13  A    between atoms: O_25  and  C_26
REMARK   14  A    between atoms: C_26  and  C_27
REMARK   15  A    between atoms: O_30  and  C_31
REMARK                            x       y       z     vdW  Elec       q    Type
REMARK                         _______ _______ _______ _____ _____    ______ ____
ROOT
ATOM      1  C   UNL     1       1.295   0.257  -0.528  0.00  0.00    +0.176 C 
ATOM      2  N   UNL     1       0.821  -1.129  -0.476  0.00  0.00    -0.235 N 
ATOM      3  C   UNL     1       0.549  -1.919  -1.546  0.00  0.00    +0.221 A 
ATOM      4  C   UNL     1       0.138  -3.125  -1.075  0.00  0.00    +0.025 A 
ATOM      5  C   UNL     1       0.160  -3.068   0.331  0.00  0.00    +0.098 A 
ATOM      6  N   UNL     1       0.576  -1.871   0.686  0.00  0.00    -0.168 NA
ENDROOT
BRANCH   5   7
ATOM      7  C   UNL     1      -0.215  -4.169   1.253  0.00  0.00    +0.002 A 
ATOM      8  C   UNL     1      -1.349  -4.937   1.000  0.00  0.00    +0.010 A 
ATOM      9  C   UNL     1      -1.693  -5.960   1.860  0.00  0.00    +0.001 A 
ATOM     10  C   UNL     1      -0.914  -6.223   2.973  0.00  0.00    +0.000 A 
ATOM     11  C   UNL     1       0.213  -5.463   3.229  0.00  0.00    +0.001 A 
ATOM     12  C   UNL     1       0.569  -4.441   2.372  0.00  0.00    +0.010 A 
ENDBRANCH   5   7
BRANCH   4  13
ATOM     13  C   UNL     1      -0.269  -4.311  -1.910  0.00  0.00    -0.035 C 
BRANCH  13  14
ATOM     14  N   UNL     1       0.929  -5.058  -2.318  0.00  0.00    +0.389 N 
ATOM     15  H   UNL     1       1.572  -4.434  -2.783  0.00  0.00    -0.081 HD
BRANCH  14  16
ATOM     16  C   UNL     1       0.544  -6.138  -3.236  0.00  0.00    -0.003 C 
BRANCH  16  17
ATOM     17  C   UNL     1      -0.016  -5.545  -4.503  0.00  0.00    +0.089 A 
ATOM     18  C   UNL     1       0.685  -5.264  -5.616  0.00  0.00    +0.042 A 
ATOM     19  C   UNL     1      -0.229  -4.725  -6.551  0.00  0.00    +0.041 A 
ATOM     20  C   UNL     1      -1.434  -4.709  -5.952  0.00  0.00    +0.195 A 
ATOM     21  O   UNL     1      -1.299  -5.212  -4.715  0.00  0.00    -0.470 OA
ENDBRANCH  16  17
ENDBRANCH  14  16
BRANCH  14  22
ATOM     22  C   UNL     1       1.576  -5.632  -1.130  0.00  0.00    -0.044 C 
BRANCH  22  23
ATOM     23  C   UNL     1       2.889  -6.303  -1.539  0.00  0.00    +0.124 C 
BRANCH  23  24
ATOM     24  O   UNL     1       3.798  -5.313  -2.024  0.00  0.00    -0.391 OA
ATOM     25  H   UNL     1       4.017  -4.629  -1.377  0.00  0.00    +0.210 HD
ENDBRANCH  23  24
BRANCH  23  26
ATOM     26  C   UNL     1       3.500  -7.007  -0.326  0.00  0.00    +0.189 C 
BRANCH  26  27
ATOM     27  O   UNL     1       4.664  -7.730  -0.733  0.00  0.00    -0.373 OA
BRANCH  27  28
ATOM     28  C   UNL     1       5.315  -8.428   0.331  0.00  0.00    +0.186 C 
BRANCH  28  29
ATOM     29  C   UNL     1       6.522  -9.152  -0.208  0.00  0.00    -0.007 C 
ATOM     30  C   UNL     1       7.660  -9.100   0.439  0.00  0.00    +0.006 C 
ENDBRANCH  28  29
ENDBRANCH  27  28
ENDBRANCH  26  27
ENDBRANCH  23  26
ENDBRANCH  22  23
ENDBRANCH  14  22
ENDBRANCH  13  14
ENDBRANCH   4  13
BRANCH   3  31
ATOM     31  O   UNL     1       0.667  -1.568  -2.852  0.00  0.00    -0.438 OA
BRANCH  31  32
ATOM     32  C   UNL     1      -0.406  -0.995  -3.457  0.00  0.00    +0.133 A 
ATOM     33  C   UNL     1      -1.535  -0.676  -2.715  0.00  0.00    +0.046 A 
ATOM     34  C   UNL     1      -2.625  -0.095  -3.332  0.00  0.00    +0.006 A 
ATOM     35  C   UNL     1      -2.594   0.171  -4.689  0.00  0.00    +0.038 A 
ATOM     36  C   UNL     1      -1.470  -0.146  -5.432  0.00  0.00    +0.127 A 
ATOM     37  C   UNL     1      -0.373  -0.724  -4.817  0.00  0.00    +0.084 A 
ATOM     38  F   UNL     1      -1.442   0.113  -6.758  0.00  0.00    -0.205 F 
ENDBRANCH  31  32
ENDBRANCH   3  31
TORSDOF 14
