REMARK  Name = ZINC07503451
REMARK  4 active torsions:
REMARK  status: ('A' for Active; 'I' for Inactive)
REMARK    1  A    between atoms: C_1  and  C_2
REMARK    2  A    between atoms: N_11  and  C_12
REMARK    3  A    between atoms: C_12  and  C_13
REMARK    4  A    between atoms: C_19  and  C_24
REMARK                            x       y       z     vdW  Elec       q    Type
REMARK                         _______ _______ _______ _____ _____    ______ ____
ROOT
ATOM      1  C   UNL     1       2.148   1.010   2.390  0.00  0.00    +0.128 A 
ATOM      2  N   UNL     1       3.356   1.452   2.826  0.00  0.00    -0.309 N 
ATOM      3  H   UNL     1       4.156   0.956   2.592  0.00  0.00    +0.170 HD
ATOM      4  C   UNL     1       3.465   2.563   3.577  0.00  0.00    +0.260 A 
ATOM      5  O   UNL     1       4.557   2.947   3.960  0.00  0.00    -0.267 OA
ATOM      6  C   UNL     1       2.279   3.288   3.919  0.00  0.00    +0.080 A 
ATOM      7  C   UNL     1       2.137   4.505   4.710  0.00  0.00    +0.004 A 
ATOM      8  C   UNL     1       0.897   5.016   4.903  0.00  0.00    +0.056 A 
ATOM      9  S   UNL     1      -0.159   3.880   4.024  0.00  0.00    -0.076 S 
ATOM     10  C   UNL     1       1.077   2.757   3.425  0.00  0.00    +0.116 A 
ATOM     11  N   UNL     1       1.049   1.653   2.682  0.00  0.00    -0.225 NA
ENDROOT
BRANCH   7  12
ATOM     12  C   UNL     1       3.327   5.170   5.292  0.00  0.00    -0.017 A 
ATOM     13  C   UNL     1       4.257   4.429   6.020  0.00  0.00    +0.008 A 
ATOM     14  C   UNL     1       5.363   5.054   6.559  0.00  0.00    +0.001 A 
ATOM     15  C   UNL     1       5.550   6.412   6.379  0.00  0.00    +0.000 A 
ATOM     16  C   UNL     1       4.631   7.153   5.658  0.00  0.00    +0.001 A 
ATOM     17  C   UNL     1       3.524   6.538   5.109  0.00  0.00    +0.008 A 
ENDBRANCH   7  12
BRANCH   1  18
ATOM     18  C   UNL     1       2.075  -0.239   1.552  0.00  0.00    +0.179 C 
BRANCH  18  28
ATOM     19  C   UNL     1      -0.019   1.526   0.010  0.00  0.00    +0.028 C 
ATOM     20  C   UNL     1       0.002  -0.004   0.002  0.00  0.00    +0.075 C 
ATOM     21  C   UNL     1      -1.430  -0.557   0.082  0.00  0.00    +0.059 C 
ATOM     22  C   UNL     1      -1.455  -1.361   1.363  0.00  0.00    -0.025 A 
ATOM     23  C   UNL     1      -2.470  -2.086   1.958  0.00  0.00    +0.005 A 
ATOM     24  C   UNL     1      -2.244  -2.746   3.152  0.00  0.00    +0.000 A 
ATOM     25  C   UNL     1      -0.999  -2.679   3.750  0.00  0.00    +0.002 A 
ATOM     26  C   UNL     1       0.017  -1.957   3.160  0.00  0.00    +0.023 A 
ATOM     27  C   UNL     1      -0.204  -1.287   1.954  0.00  0.00    +0.034 A 
ATOM     28  N   UNL     1       0.679  -0.510   1.199  0.00  0.00    -0.319 N 
ENDBRANCH  18  28
ENDBRANCH   1  18
TORSDOF 3
