REMARK  Name = ZINC20609029
REMARK  11 active torsions:
REMARK  status: ('A' for Active; 'I' for Inactive)
REMARK    1  A    between atoms: C_1  and  C_2
REMARK    2  A    between atoms: C_2  and  O_3
REMARK    3  A    between atoms: O_3  and  C_4
REMARK    4  A    between atoms: C_4  and  C_6
REMARK    5  A    between atoms: C_6  and  C_7
REMARK    6  A    between atoms: C_6  and  N_11
REMARK    7  A    between atoms: C_6  and  O_28
REMARK    8  A    between atoms: N_14  and  C_15
REMARK    9  A    between atoms: C_24  and  C_26
REMARK   10  A    between atoms: C_24  and  C_27
REMARK   11  A    between atoms: O_28  and  C_29
REMARK                            x       y       z     vdW  Elec       q    Type
REMARK                         _______ _______ _______ _____ _____    ______ ____
ROOT
ATOM      1  N   UNL     1       5.712   0.291   0.651  0.00  0.00    -0.254 N 
ATOM      2  C   UNL     1       4.376   0.343   0.479  0.00  0.00    +0.315 C 
ATOM      3  O   UNL     1       3.843   1.393   0.179  0.00  0.00    -0.252 OA
ATOM      4  N   UNL     1       3.632  -0.769   0.640  0.00  0.00    -0.203 N 
ATOM      5  C   UNL     1       2.275  -0.738   0.371  0.00  0.00    +0.164 C 
ATOM      6  N   UNL     1       1.456  -1.740   0.383  0.00  0.00    -0.261 NA
ATOM      7  C   UNL     1       0.050  -1.585   0.085  0.00  0.00    +0.161 C 
ATOM      8  C   UNL     1      -0.335  -0.125  -0.238  0.00  0.00    +0.038 C 
ATOM      9  S   UNL     1       1.300   0.689  -0.060  0.00  0.00    -0.082 S 
ATOM     10  C   UNL     1      -0.867   0.006  -1.667  0.00  0.00    +0.024 C 
ATOM     11  C   UNL     1      -1.340   0.422   0.777  0.00  0.00    +0.024 C 
ATOM     12  H   UNL     1       6.184  -0.634   1.014  0.00  0.00    +0.154 HD
ENDROOT
BRANCH   4  13
ATOM     13  C   UNL     1       4.232  -1.956   1.079  0.00  0.00    +0.045 A 
ATOM     14  C   UNL     1       5.096  -2.650   0.242  0.00  0.00    +0.024 A 
ATOM     15  C   UNL     1       5.689  -3.818   0.679  0.00  0.00    +0.002 A 
ATOM     16  C   UNL     1       5.417  -4.302   1.946  0.00  0.00    +0.000 A 
ATOM     17  C   UNL     1       4.553  -3.616   2.780  0.00  0.00    +0.002 A 
ATOM     18  C   UNL     1       3.960  -2.445   2.350  0.00  0.00    +0.024 A 
ENDBRANCH   4  13
BRANCH   1  19
ATOM     19  C   UNL     1       6.535   1.466   0.354  0.00  0.00    +0.333 C 
BRANCH  19  20
ATOM     20  C   UNL     1       6.184   2.593   1.327  0.00  0.00    +0.447 C 
ATOM     21  F   UNL     1       6.286   2.123   2.641  0.00  0.00    -0.166 F 
ATOM     22  F   UNL     1       7.070   3.660   1.144  0.00  0.00    -0.166 F 
ATOM     23  F   UNL     1       4.876   3.026   1.087  0.00  0.00    -0.166 F 
ENDBRANCH  19  20
BRANCH  19  24
ATOM     24  C   UNL     1       6.271   1.921  -1.058  0.00  0.00    +0.368 C 
ATOM     25  O   UNL     1       7.173   1.952  -1.861  0.00  0.00    -0.245 OA
BRANCH  24  26
ATOM     26  O   UNL     1       5.034   2.291  -1.423  0.00  0.00    -0.462 OA
BRANCH  26  28
ATOM     27  C   UNL     1       3.389   3.099  -3.027  0.00  0.00    +0.048 C 
ATOM     28  C   UNL     1       4.853   2.718  -2.799  0.00  0.00    +0.229 C 
ENDBRANCH  26  28
ENDBRANCH  24  26
ENDBRANCH  19  24
BRANCH  19  29
ATOM     29  O   UNL     1       7.916   1.127   0.495  0.00  0.00    -0.343 OA
ATOM     30  C   UNL     1       8.350   0.079  -0.374  0.00  0.00    +0.197 C 
ENDBRANCH  19  29
ENDBRANCH   1  19
TORSDOF 7
