REMARK  Name = ZINC22163758
REMARK  12 active torsions:
REMARK  status: ('A' for Active; 'I' for Inactive)
REMARK    1  A    between atoms: C_1  and  C_2
REMARK    2  A    between atoms: C_3  and  N_14
REMARK    3  A    between atoms: C_4  and  C_13
REMARK    4  A    between atoms: N_5  and  C_7
REMARK    5  A    between atoms: C_15  and  C_17
REMARK    6  A    between atoms: C_17  and  O_18
REMARK    7  A    between atoms: O_18  and  C_19
REMARK    8  A    between atoms: C_19  and  C_21
REMARK    9  A    between atoms: C_21  and  N_22
REMARK   10  A    between atoms: C_27  and  C_34
REMARK   11  A    between atoms: C_30  and  C_32
REMARK   12  A    between atoms: C_30  and  C_33
REMARK                            x       y       z     vdW  Elec       q    Type
REMARK                         _______ _______ _______ _____ _____    ______ ____
ROOT
ATOM      1  O   UNL     1       0.811  11.110   1.122  0.00  0.00    -0.454 OA
ENDROOT
BRANCH   1   2
ATOM      2  C   UNL     1       1.499  12.229   1.401  0.00  0.00    +0.326 C 
ATOM      3  O   UNL     1       2.688  12.171   1.606  0.00  0.00    -0.249 OA
BRANCH   2   4
ATOM      4  C   UNL     1       0.788  13.556   1.459  0.00  0.00    +0.238 C 
BRANCH   4   5
ATOM      5  N   UNL     1       1.751  14.613   1.779  0.00  0.00    -0.213 N 
ATOM      6  C   UNL     1       2.445  15.311   0.857  0.00  0.00    +0.247 C 
ATOM      7  O   UNL     1       2.392  15.189  -0.348  0.00  0.00    -0.273 OA
ATOM      8  C   UNL     1       3.301  16.278   1.642  0.00  0.00    +0.113 C 
ATOM      9  C   UNL     1       2.940  17.716   1.288  0.00  0.00    +0.038 C 
ATOM     10  C   UNL     1       3.798  18.678   2.114  0.00  0.00    -0.011 C 
ATOM     11  C   UNL     1       5.277  18.420   1.822  0.00  0.00    +0.009 C 
ATOM     12  C   UNL     1       5.629  16.981   2.205  0.00  0.00    -0.032 C 
ATOM     13  C   UNL     1       4.779  16.012   1.380  0.00  0.00    +0.041 C 
ATOM     14  C   UNL     1       7.112  16.726   1.924  0.00  0.00    +0.011 C 
ATOM     15  C   UNL     1       5.348  16.766   3.694  0.00  0.00    +0.011 C 
ATOM     16  C   UNL     1       3.449  20.121   1.741  0.00  0.00    +0.007 C 
ATOM     17  N   UNL     1       2.967  15.993   3.043  0.00  0.00    -0.285 N 
ATOM     18  C   UNL     1       2.048  15.008   3.023  0.00  0.00    +0.310 C 
ATOM     19  O   UNL     1       1.547  14.531   4.022  0.00  0.00    -0.252 OA
ATOM     20  H   UNL     1       3.455  16.557   3.851  0.00  0.00    +0.151 HD
ENDBRANCH   4   5
ENDBRANCH   2   4
ENDBRANCH   1   2
BRANCH   1  21
ATOM     21  C   UNL     1       1.561   9.868   1.083  0.00  0.00    +0.328 C 
BRANCH  21  23
ATOM     22  N   UNL     1       1.108   7.472   0.667  0.00  0.00    -0.280 N 
ATOM     23  C   UNL     1       0.630   8.729   0.757  0.00  0.00    +0.255 C 
ATOM     24  O   UNL     1      -0.550   8.943   0.575  0.00  0.00    -0.272 OA
ATOM     25  H   UNL     1       2.167   7.270   0.882  0.00  0.00    +0.155 HD
BRANCH  22  28
ATOM     26  C   UNL     1      -1.251   7.736  -1.351  0.00  0.00    +0.069 C 
ATOM     27  C   UNL     1      -0.820   6.500  -0.604  0.00  0.00    +0.082 A 
ATOM     28  C   UNL     1       0.251   6.418   0.299  0.00  0.00    +0.078 A 
ATOM     29  C   UNL     1       0.309   5.142   0.760  0.00  0.00    +0.063 A 
ATOM     30  N   UNL     1      -0.690   4.442   0.157  0.00  0.00    -0.235 N 
ATOM     31  N   UNL     1      -1.380   5.321  -0.688  0.00  0.00    -0.170 NA
ATOM     32  C   UNL     1       1.301   4.599   1.757  0.00  0.00    +0.068 C 
BRANCH  30  33
ATOM     33  C   UNL     1      -0.980   3.085   0.350  0.00  0.00    +0.066 A 
ATOM     34  C   UNL     1      -2.296   2.645   0.328  0.00  0.00    +0.028 A 
ATOM     35  C   UNL     1      -2.579   1.306   0.519  0.00  0.00    +0.002 A 
ATOM     36  C   UNL     1      -1.552   0.405   0.732  0.00  0.00    +0.000 A 
ATOM     37  C   UNL     1      -0.240   0.840   0.755  0.00  0.00    +0.002 A 
ATOM     38  C   UNL     1       0.049   2.177   0.565  0.00  0.00    +0.028 A 
ENDBRANCH  30  33
ENDBRANCH  22  28
ENDBRANCH  21  23
ENDBRANCH   1  21
TORSDOF 7
