REMARK  Name = ZINC50854388
REMARK  10 active torsions:
REMARK  status: ('A' for Active; 'I' for Inactive)
REMARK    1  A    between atoms: C_1  and  C_2
REMARK    2  A    between atoms: C_2  and  C_3
REMARK    3  A    between atoms: C_2  and  C_4
REMARK    4  A    between atoms: C_7  and  C_11
REMARK    5  A    between atoms: C_8  and  O_10
REMARK    6  A    between atoms: N_13  and  N_14
REMARK    7  A    between atoms: N_14  and  C_15
REMARK    8  A    between atoms: C_15  and  N_17
REMARK    9  A    between atoms: N_17  and  C_18
REMARK   10  A    between atoms: C_23  and  C_24
REMARK                            x       y       z     vdW  Elec       q    Type
REMARK                         _______ _______ _______ _____ _____    ______ ____
ROOT
ATOM      1  N   UNL     1       4.910  -2.315   5.792  0.00  0.00    -0.245 N 
ATOM      2  H   UNL     1       4.561  -3.089   6.261  0.00  0.00    +0.172 HD
ENDROOT
BRANCH   1   5
ATOM      3  C   UNL     1       2.791  -1.942   4.774  0.00  0.00    +0.264 C 
ATOM      4  O   UNL     1       2.353  -2.912   5.362  0.00  0.00    -0.269 OA
ATOM      5  N   UNL     1       4.078  -1.577   4.941  0.00  0.00    -0.231 N 
ATOM      6  H   UNL     1       4.428  -0.804   4.471  0.00  0.00    +0.173 HD
BRANCH   3  10
ATOM      7  C   UNL     1       0.268   0.296   2.190  0.00  0.00    -0.041 A 
ATOM      8  C   UNL     1       1.590   0.672   2.363  0.00  0.00    +0.005 A 
ATOM      9  C   UNL     1       2.414  -0.050   3.199  0.00  0.00    +0.017 A 
ATOM     10  C   UNL     1       1.915  -1.165   3.877  0.00  0.00    +0.079 A 
ATOM     11  C   UNL     1       0.576  -1.541   3.700  0.00  0.00    +0.129 A 
ATOM     12  C   UNL     1      -0.240  -0.800   2.858  0.00  0.00    +0.050 A 
BRANCH   7  14
ATOM     13  C   UNL     1      -0.702   2.539   1.768  0.00  0.00    +0.012 C 
ATOM     14  C   UNL     1      -0.623   1.094   1.272  0.00  0.00    +0.013 C 
ATOM     15  C   UNL     1      -0.047   1.071  -0.145  0.00  0.00    +0.012 C 
ENDBRANCH   7  14
BRANCH  11  16
ATOM     16  O   UNL     1       0.080  -2.621   4.353  0.00  0.00    -0.506 OA
ATOM     17  H   UNL     1      -0.298  -2.418   5.219  0.00  0.00    +0.292 HD
ENDBRANCH  11  16
ENDBRANCH   3  10
ENDBRANCH   1   5
BRANCH   1  18
ATOM     18  C   UNL     1       6.197  -1.951   5.959  0.00  0.00    +0.151 C 
ATOM     19  S   UNL     1       7.214  -2.853   6.999  0.00  0.00    -0.017 S 
BRANCH  18  20
ATOM     20  N   UNL     1       6.683  -0.876   5.307  0.00  0.00    -0.295 N 
ATOM     21  H   UNL     1       6.131  -0.412   4.657  0.00  0.00    +0.154 HD
BRANCH  20  22
ATOM     22  C   UNL     1       7.983  -0.429   5.567  0.00  0.00    +0.044 A 
ATOM     23  C   UNL     1       8.438  -0.335   6.876  0.00  0.00    +0.024 A 
ATOM     24  C   UNL     1       9.722   0.107   7.129  0.00  0.00    +0.002 A 
ATOM     25  C   UNL     1      10.554   0.455   6.080  0.00  0.00    +0.001 A 
ATOM     26  C   UNL     1      10.104   0.363   4.776  0.00  0.00    +0.014 A 
ATOM     27  C   UNL     1       8.823  -0.083   4.516  0.00  0.00    +0.076 A 
BRANCH  27  28
ATOM     28  C   UNL     1       8.335  -0.189   3.094  0.00  0.00    +0.419 C 
ATOM     29  F   UNL     1       9.353   0.210   2.221  0.00  0.00    -0.166 F 
ATOM     30  F   UNL     1       7.980  -1.514   2.821  0.00  0.00    -0.166 F 
ATOM     31  F   UNL     1       7.220   0.638   2.921  0.00  0.00    -0.166 F 
ENDBRANCH  27  28
ENDBRANCH  20  22
ENDBRANCH  18  20
ENDBRANCH   1  18
TORSDOF 8
