REMARK  Name = ZINC08685756
REMARK  12 active torsions:
REMARK  status: ('A' for Active; 'I' for Inactive)
REMARK    1  A    between atoms: C_1  and  C_2
REMARK    2  A    between atoms: C_2  and  N_3
REMARK    3  A    between atoms: N_3  and  C_4
REMARK    4  A    between atoms: N_3  and  S_6
REMARK    5  A    between atoms: C_4  and  C_5
REMARK    6  A    between atoms: S_6  and  C_9
REMARK    7  A    between atoms: C_13  and  C_15
REMARK    8  A    between atoms: C_18  and  S_21
REMARK    9  A    between atoms: N_19  and  N_20
REMARK   10  A    between atoms: S_21  and  C_22
REMARK   11  A    between atoms: C_22  and  C_23
REMARK   12  A    between atoms: N_25  and  C_26
REMARK                            x       y       z     vdW  Elec       q    Type
REMARK                         _______ _______ _______ _____ _____    ______ ____
ROOT
ATOM      1  C   UNL     1       1.506   2.347  -6.284  0.00  0.00    +0.182 A 
ATOM      2  N   UNL     1       2.399   1.521  -6.777  0.00  0.00    -0.127 NA
ATOM      3  N   UNL     1       3.119   2.127  -7.653  0.00  0.00    -0.121 NA
ATOM      4  C   UNL     1       2.729   3.376  -7.772  0.00  0.00    +0.209 A 
ATOM      5  N   UNL     1       1.686   3.559  -6.910  0.00  0.00    -0.224 N 
ENDROOT
BRANCH   1  10
ATOM      6  C   UNL     1      -0.337   0.586  -3.526  0.00  0.00    +0.106 A 
ATOM      7  C   UNL     1      -1.407   1.441  -3.328  0.00  0.00    +0.028 A 
ATOM      8  C   UNL     1      -1.532   2.590  -4.088  0.00  0.00    +0.003 A 
ATOM      9  C   UNL     1      -0.589   2.890  -5.050  0.00  0.00    +0.012 A 
ATOM     10  C   UNL     1       0.492   2.031  -5.255  0.00  0.00    +0.023 A 
ATOM     11  C   UNL     1       0.615   0.877  -4.480  0.00  0.00    +0.040 A 
BRANCH   6  12
ATOM     12  S   UNL     1      -0.188  -0.875  -2.551  0.00  0.00    +0.061 S 
ATOM     13  O   UNL     1       0.610  -1.782  -3.300  0.00  0.00    -0.153 OA
ATOM     14  O   UNL     1      -1.496  -1.201  -2.104  0.00  0.00    -0.153 OA
BRANCH  12  15
ATOM     15  N   UNL     1       0.688  -0.476  -1.203  0.00  0.00    -0.177 NA
BRANCH  15  17
ATOM     16  C   UNL     1      -0.019   1.526   0.010  0.00  0.00    +0.022 C 
ATOM     17  C   UNL     1       0.002  -0.004   0.002  0.00  0.00    +0.106 C 
ENDBRANCH  15  17
BRANCH  15  18
ATOM     18  C   UNL     1       2.148  -0.597  -1.216  0.00  0.00    +0.106 C 
ATOM     19  C   UNL     1       2.553  -1.951  -0.632  0.00  0.00    +0.022 C 
ENDBRANCH  15  18
ENDBRANCH  12  15
ENDBRANCH   6  12
ENDBRANCH   1  10
BRANCH   5  20
ATOM     20  N   UNL     1       0.973   4.706  -6.709  0.00  0.00    -0.295 N 
ATOM     21  H   UNL     1       1.388   5.268  -5.981  0.00  0.00    +0.163 HD
ATOM     22  H   UNL     1       0.884   5.231  -7.565  0.00  0.00    +0.163 HD
ENDBRANCH   5  20
BRANCH   4  23
ATOM     23  S   UNL     1       3.420   4.588  -8.849  0.00  0.00    -0.075 S 
BRANCH  23  24
ATOM     24  C   UNL     1       4.748   3.704  -9.711  0.00  0.00    +0.173 C 
BRANCH  24  25
ATOM     25  C   UNL     1       5.429   4.639 -10.677  0.00  0.00    +0.224 C 
ATOM     26  O   UNL     1       5.056   5.789 -10.773  0.00  0.00    -0.275 OA
ATOM     27  N   UNL     1       6.454   4.197 -11.433  0.00  0.00    -0.312 N 
ATOM     28  H   UNL     1       6.753   3.277 -11.356  0.00  0.00    +0.149 HD
BRANCH  27  29
ATOM     29  C   UNL     1       7.117   5.106 -12.371  0.00  0.00    +0.073 C 
ATOM     30  C   UNL     1       6.344   5.128 -13.692  0.00  0.00    +0.022 C 
ATOM     31  C   UNL     1       6.779   6.342 -14.516  0.00  0.00    +0.002 C 
ATOM     32  C   UNL     1       6.865   7.571 -13.610  0.00  0.00    +0.000 C 
ATOM     33  C   UNL     1       8.324   8.014 -13.488  0.00  0.00    +0.000 C 
ATOM     34  C   UNL     1       9.066   7.066 -12.543  0.00  0.00    +0.000 C 
ATOM     35  C   UNL     1       9.358   5.751 -13.267  0.00  0.00    +0.002 C 
ATOM     36  C   UNL     1       8.547   4.624 -12.625  0.00  0.00    +0.022 C 
ENDBRANCH  27  29
ENDBRANCH  24  25
ENDBRANCH  23  24
ENDBRANCH   4  23
TORSDOF 10
