REMARK  Name = ZINC36500855
REMARK  13 active torsions:
REMARK  status: ('A' for Active; 'I' for Inactive)
REMARK    1  A    between atoms: C_1  and  C_2
REMARK    2  A    between atoms: C_3  and  C_4
REMARK    3  A    between atoms: C_4  and  C_6
REMARK    4  A    between atoms: C_4  and  N_20
REMARK    5  A    between atoms: N_8  and  C_9
REMARK    6  A    between atoms: C_9  and  S_10
REMARK    7  A    between atoms: S_10  and  C_13
REMARK    8  A    between atoms: C_16  and  C_19
REMARK    9  A    between atoms: N_20  and  C_21
REMARK   10  A    between atoms: C_21  and  C_22
REMARK   11  A    between atoms: C_27  and  C_29
REMARK   12  A    between atoms: C_33  and  O_36
REMARK   13  A    between atoms: C_34  and  O_35
REMARK                            x       y       z     vdW  Elec       q    Type
REMARK                         _______ _______ _______ _____ _____    ______ ____
ROOT
ATOM      1  C   UNL     1      -0.808  -3.475   0.471  0.00  0.00    +0.186 C 
ENDROOT
BRANCH   1   2
ATOM      2  C   UNL     1      -0.197  -3.538   1.848  0.00  0.00    +0.239 C 
ATOM      3  O   UNL     1       0.855  -4.117   2.019  0.00  0.00    -0.273 OA
ATOM      4  N   UNL     1      -0.820  -2.950   2.889  0.00  0.00    -0.294 N 
ATOM      5  H   UNL     1      -1.662  -2.487   2.752  0.00  0.00    +0.150 HD
BRANCH   4   6
ATOM      6  C   UNL     1      -0.227  -3.011   4.227  0.00  0.00    +0.278 C 
BRANCH   6   7
ATOM      7  S   UNL     1       0.750  -1.512   4.523  0.00  0.00    +0.013 S 
ATOM      8  O   UNL     1       1.281  -1.526   5.841  0.00  0.00    -0.168 OA
ATOM      9  O   UNL     1       1.588  -1.245   3.408  0.00  0.00    -0.168 OA
BRANCH   7  10
ATOM     10  C   UNL     1      -0.425  -0.199   4.527  0.00  0.00    +0.090 A 
ATOM     11  C   UNL     1      -0.742   0.449   3.348  0.00  0.00    +0.027 A 
ATOM     12  C   UNL     1      -1.664   1.478   3.350  0.00  0.00    +0.005 A 
ATOM     13  C   UNL     1      -2.270   1.860   4.532  0.00  0.00    -0.050 A 
ATOM     14  C   UNL     1      -1.954   1.212   5.712  0.00  0.00    +0.005 A 
ATOM     15  C   UNL     1      -1.035   0.179   5.708  0.00  0.00    +0.027 A 
ATOM     16  C   UNL     1      -3.275   2.984   4.536  0.00  0.00    +0.044 C 
ENDBRANCH   7  10
ENDBRANCH   6   7
ENDBRANCH   4   6
ENDBRANCH   1   2
BRANCH   1  19
ATOM     17  C   UNL     1      -1.225  -0.281  -1.605  0.00  0.00    +0.035 C 
ATOM     18  C   UNL     1      -1.255  -1.724  -1.170  0.00  0.00    -0.032 C 
ATOM     19  C   UNL     1      -1.020  -2.035   0.081  0.00  0.00    +0.000 C 
ENDBRANCH   1  19
BRANCH   1  20
ATOM     20  N   UNL     1       0.091  -4.116  -0.491  0.00  0.00    -0.275 N 
ATOM     21  C   UNL     1      -0.366  -5.101  -1.288  0.00  0.00    +0.251 C 
ATOM     22  O   UNL     1      -1.552  -5.373  -1.300  0.00  0.00    -0.270 OA
BRANCH  21  23
ATOM     23  C   UNL     1       0.571  -5.851  -2.147  0.00  0.00    +0.082 A 
ATOM     24  C   UNL     1       1.526  -5.169  -2.906  0.00  0.00    +0.017 A 
ATOM     25  C   UNL     1       2.400  -5.873  -3.706  0.00  0.00    +0.005 A 
ATOM     26  C   UNL     1       2.338  -7.255  -3.764  0.00  0.00    +0.049 A 
ATOM     27  C   UNL     1       1.397  -7.945  -3.018  0.00  0.00    +0.159 A 
ATOM     28  C   UNL     1       0.511  -7.248  -2.200  0.00  0.00    +0.171 A 
BRANCH  28  29
ATOM     29  O   UNL     1      -0.409  -7.921  -1.463  0.00  0.00    -0.503 OA
ATOM     30  H   UNL     1      -1.249  -8.066  -1.919  0.00  0.00    +0.292 HD
ENDBRANCH  28  29
BRANCH  27  31
ATOM     31  O   UNL     1       1.342  -9.302  -3.079  0.00  0.00    -0.503 OA
ATOM     32  H   UNL     1       1.898  -9.748  -2.426  0.00  0.00    +0.292 HD
ENDBRANCH  27  31
ENDBRANCH  21  23
BRANCH  20  33
ATOM     33  C   UNL     1       1.488  -3.685  -0.588  0.00  0.00    +0.183 C 
BRANCH  33  34
ATOM     34  C   UNL     1       1.567  -2.416  -1.398  0.00  0.00    +0.122 A 
ATOM     35  C   UNL     1       2.349  -1.356  -1.125  0.00  0.00    +0.046 A 
ATOM     36  C   UNL     1       2.108  -0.398  -2.137  0.00  0.00    +0.041 A 
ATOM     37  C   UNL     1       1.194  -0.931  -2.968  0.00  0.00    +0.195 A 
ATOM     38  O   UNL     1       0.875  -2.155  -2.519  0.00  0.00    -0.466 OA
ENDBRANCH  33  34
ENDBRANCH  20  33
ENDBRANCH   1  20
TORSDOF 11
