REMARK  Name = ZINC35484807
REMARK  16 active torsions:
REMARK  status: ('A' for Active; 'I' for Inactive)
REMARK    1  A    between atoms: C_1  and  C_2
REMARK    2  A    between atoms: C_2  and  N_3
REMARK    3  A    between atoms: N_3  and  C_4
REMARK    4  A    between atoms: N_3  and  C_6
REMARK    5  A    between atoms: C_4  and  C_5
REMARK    6  A    between atoms: C_6  and  C_7
REMARK    7  A    between atoms: C_7  and  C_8
REMARK    8  A    between atoms: C_8  and  N_9
REMARK    9  A    between atoms: C_10  and  C_30
REMARK   10  A    between atoms: C_12  and  C_13
REMARK   11  A    between atoms: C_13  and  C_14
REMARK   12  A    between atoms: C_15  and  C_24
REMARK   13  A    between atoms: C_20  and  C_23
REMARK   14  A    between atoms: C_34  and  O_36
REMARK   15  A    between atoms: O_36  and  C_37
REMARK   16  A    between atoms: C_37  and  C_38
REMARK                            x       y       z     vdW  Elec       q    Type
REMARK                         _______ _______ _______ _____ _____    ______ ____
ROOT
ATOM      1  N   UNL     1       3.797  -4.381   3.835  0.00  0.00    -0.284 N 
ATOM      2  C   UNL     1       5.188  -4.561   4.268  0.00  0.00    +0.145 C 
ATOM      3  C   UNL     1       5.123  -5.081   5.685  0.00  0.00    +0.078 C 
ATOM      4  C   UNL     1       3.812  -5.180   6.006  0.00  0.00    +0.249 C 
ATOM      5  O   UNL     1       3.325  -5.610   7.193  0.00  0.00    -0.282 OA
ATOM      6  C   UNL     1       2.996  -4.738   4.855  0.00  0.00    +0.288 C 
ATOM      7  O   UNL     1       1.782  -4.705   4.833  0.00  0.00    -0.266 OA
ENDROOT
BRANCH   2   8
ATOM      8  C   UNL     1       5.916  -3.242   4.234  0.00  0.00    -0.019 A 
ATOM      9  C   UNL     1       5.348  -2.123   4.816  0.00  0.00    +0.006 A 
ATOM     10  C   UNL     1       6.013  -0.912   4.785  0.00  0.00    +0.004 A 
ATOM     11  C   UNL     1       7.248  -0.816   4.173  0.00  0.00    +0.045 A 
ATOM     12  C   UNL     1       7.820  -1.936   3.588  0.00  0.00    +0.121 A 
ATOM     13  C   UNL     1       7.153  -3.152   3.625  0.00  0.00    +0.051 A 
BRANCH  12  14
ATOM     14  O   UNL     1       9.034  -1.845   2.985  0.00  0.00    -0.488 OA
BRANCH  14  15
ATOM     15  C   UNL     1       9.666  -0.563   2.990  0.00  0.00    +0.256 C 
BRANCH  15  16
ATOM     16  C   UNL     1      10.993  -0.654   2.282  0.00  0.00    +0.006 C 
ATOM     17  C   UNL     1      11.338   0.267   1.416  0.00  0.00    +0.007 C 
ENDBRANCH  15  16
ENDBRANCH  14  15
ENDBRANCH  12  14
ENDBRANCH   2   8
BRANCH   3  18
ATOM     18  C   UNL     1       6.261  -5.415   6.547  0.00  0.00    +0.215 C 
ATOM     19  O   UNL     1       7.392  -5.123   6.202  0.00  0.00    -0.285 OA
BRANCH  18  20
ATOM     20  C   UNL     1       6.037  -6.103   7.833  0.00  0.00    +0.133 A 
ATOM     21  C   UNL     1       6.988  -6.345   8.800  0.00  0.00    +0.051 A 
ATOM     22  N   UNL     1       6.362  -6.999   9.817  0.00  0.00    -0.303 N 
ATOM     23  C   UNL     1       6.813  -7.478  11.015  0.00  0.00    +0.093 A 
ATOM     24  C   UNL     1       5.973  -8.103  11.865  0.00  0.00    +0.018 A 
ATOM     25  C   UNL     1       4.618  -8.271  11.530  0.00  0.00    +0.008 A 
ATOM     26  C   UNL     1       4.154  -7.799  10.342  0.00  0.00    -0.008 A 
ATOM     27  C   UNL     1       5.045  -7.147   9.461  0.00  0.00    +0.141 A 
ATOM     28  N   UNL     1       4.865  -6.599   8.271  0.00  0.00    -0.224 NA
ATOM     29  C   UNL     1       2.704  -7.971   9.969  0.00  0.00    +0.047 C 
ATOM     30  C   UNL     1       8.444  -5.960   8.742  0.00  0.00    +0.066 C 
ENDBRANCH  18  20
ENDBRANCH   3  18
BRANCH   1  31
ATOM     31  C   UNL     1       3.358  -3.892   2.525  0.00  0.00    +0.107 C 
BRANCH  31  32
ATOM     32  C   UNL     1       3.232  -2.368   2.566  0.00  0.00    +0.000 C 
BRANCH  32  33
ATOM     33  C   UNL     1       2.774  -1.857   1.198  0.00  0.00    -0.077 C 
BRANCH  33  34
ATOM     34  N   UNL     1       2.533  -0.410   1.271  0.00  0.00    +0.379 N 
ATOM     35  H   UNL     1       1.874  -0.216   2.010  0.00  0.00    -0.082 HD
BRANCH  34  37
ATOM     36  C   UNL     1       3.527   1.777   1.746  0.00  0.00    -0.017 C 
ATOM     37  C   UNL     1       3.798   0.284   1.546  0.00  0.00    -0.082 C 
ENDBRANCH  34  37
BRANCH  34  38
ATOM     38  C   UNL     1       1.985   0.060  -0.008  0.00  0.00    -0.082 C 
ATOM     39  C   UNL     1       0.594  -0.542  -0.220  0.00  0.00    -0.017 C 
ENDBRANCH  34  38
ENDBRANCH  33  34
ENDBRANCH  32  33
ENDBRANCH  31  32
ENDBRANCH   1  31
TORSDOF 12
