REMARK  Name = ZINC40454817
REMARK  7 active torsions:
REMARK  status: ('A' for Active; 'I' for Inactive)
REMARK    1  A    between atoms: C_2  and  C_3
REMARK    2  A    between atoms: C_3  and  N_4
REMARK    3  A    between atoms: C_10  and  S_11
REMARK    4  A    between atoms: S_11  and  C_12
REMARK    5  A    between atoms: C_12  and  C_13
REMARK    6  A    between atoms: N_15  and  C_16
REMARK    7  A    between atoms: C_21  and  C_22
REMARK                            x       y       z     vdW  Elec       q    Type
REMARK                         _______ _______ _______ _____ _____    ______ ____
ROOT
ATOM      1  N   UNL     1       1.335  -1.666   1.123  0.00  0.00    -0.283 N 
ATOM      2  C   UNL     1       1.817  -1.266   2.325  0.00  0.00    +0.271 A 
ATOM      3  O   UNL     1       2.223  -0.127   2.491  0.00  0.00    -0.266 OA
ATOM      4  C   UNL     1       1.837  -2.187   3.360  0.00  0.00    +0.124 A 
ATOM      5  C   UNL     1       1.373  -3.505   3.185  0.00  0.00    +0.177 A 
ATOM      6  N   UNL     1       0.906  -3.822   1.948  0.00  0.00    -0.203 NA
ATOM      7  C   UNL     1       0.885  -2.946   0.976  0.00  0.00    +0.174 A 
ATOM      8  N   UNL     1       1.464  -4.257   4.283  0.00  0.00    -0.205 NA
ATOM      9  C   UNL     1       1.947  -3.788   5.413  0.00  0.00    +0.164 A 
ATOM     10  S   UNL     1       2.342  -2.190   5.059  0.00  0.00    -0.045 S 
ATOM     11  N   UNL     1       2.095  -4.452   6.612  0.00  0.00    -0.310 N 
ATOM     12  C   UNL     1       2.637  -3.874   7.850  0.00  0.00    +0.107 C 
ATOM     13  C   UNL     1       2.636  -4.991   8.915  0.00  0.00    +0.020 C 
ATOM     14  C   UNL     1       2.622  -6.286   8.061  0.00  0.00    +0.020 C 
ATOM     15  C   UNL     1       1.731  -5.858   6.866  0.00  0.00    +0.107 C 
ENDROOT
BRANCH   1  16
ATOM     16  C   UNL     1       1.292  -0.732  -0.005  0.00  0.00    +0.154 C 
BRANCH  16  18
ATOM     17  C   UNL     1      -0.046   1.311   0.005  0.00  0.00    +0.005 C 
ATOM     18  C   UNL     1      -0.025   0.001   0.000  0.00  0.00    -0.013 C 
ENDBRANCH  16  18
ENDBRANCH   1  16
BRANCH   7  19
ATOM     19  S   UNL     1       0.256  -3.443  -0.593  0.00  0.00    -0.078 S 
BRANCH  19  20
ATOM     20  C   UNL     1      -0.220  -5.176  -0.346  0.00  0.00    +0.173 C 
BRANCH  20  21
ATOM     21  C   UNL     1      -0.781  -5.731  -1.630  0.00  0.00    +0.227 C 
ATOM     22  O   UNL     1      -0.854  -5.026  -2.615  0.00  0.00    -0.275 OA
ATOM     23  N   UNL     1      -1.203  -7.010  -1.684  0.00  0.00    -0.284 N 
ATOM     24  H   UNL     1      -1.072  -7.596  -0.923  0.00  0.00    +0.155 HD
BRANCH  23  25
ATOM     25  C   UNL     1      -1.830  -7.491  -2.839  0.00  0.00    +0.045 A 
ATOM     26  C   UNL     1      -2.479  -6.612  -3.697  0.00  0.00    +0.024 A 
ATOM     27  C   UNL     1      -3.097  -7.091  -4.835  0.00  0.00    +0.002 A 
ATOM     28  C   UNL     1      -3.071  -8.444  -5.121  0.00  0.00    +0.001 A 
ATOM     29  C   UNL     1      -2.427  -9.321  -4.269  0.00  0.00    +0.014 A 
ATOM     30  C   UNL     1      -1.801  -8.848  -3.132  0.00  0.00    +0.076 A 
BRANCH  30  31
ATOM     31  C   UNL     1      -1.093  -9.805  -2.207  0.00  0.00    +0.419 C 
ATOM     32  F   UNL     1      -1.200 -11.105  -2.710  0.00  0.00    -0.166 F 
ATOM     33  F   UNL     1       0.257  -9.450  -2.114  0.00  0.00    -0.166 F 
ATOM     34  F   UNL     1      -1.679  -9.746  -0.938  0.00  0.00    -0.166 F 
ENDBRANCH  30  31
ENDBRANCH  23  25
ENDBRANCH  20  21
ENDBRANCH  19  20
ENDBRANCH   7  19
TORSDOF 7
