REMARK  Name = ZINC22114913
REMARK  4 active torsions:
REMARK  status: ('A' for Active; 'I' for Inactive)
REMARK    1  A    between atoms: C_3  and  C_14
REMARK    2  A    between atoms: C_6  and  C_7
REMARK    3  A    between atoms: C_10  and  N_13
REMARK    4  A    between atoms: C_17  and  N_20
REMARK                            x       y       z     vdW  Elec       q    Type
REMARK                         _______ _______ _______ _____ _____    ______ ____
ROOT
ATOM      1  C   UNL     1      -0.017   1.373   0.010  0.00  0.00    +0.009 A 
ATOM      2  C   UNL     1       0.002  -0.004   0.002  0.00  0.00    +0.009 A 
ATOM      3  C   UNL     1       1.219  -0.685  -0.013  0.00  0.00    -0.018 A 
ATOM      4  C   UNL     1       2.417   0.029  -0.020  0.00  0.00    +0.009 A 
ATOM      5  C   UNL     1       2.399   1.406  -0.013  0.00  0.00    +0.009 A 
ATOM      6  C   UNL     1       1.182   2.087   0.002  0.00  0.00    -0.018 A 
ENDROOT
BRANCH   6   7
ATOM      7  C   UNL     1       1.162   3.569   0.010  0.00  0.00    -0.018 A 
ATOM      8  C   UNL     1      -0.055   4.251   0.019  0.00  0.00    +0.010 A 
ATOM      9  C   UNL     1      -0.071   5.630   0.032  0.00  0.00    +0.023 A 
ATOM     10  C   UNL     1       1.124   6.340   0.024  0.00  0.00    +0.025 A 
ATOM     11  C   UNL     1       2.338   5.662   0.009  0.00  0.00    +0.023 A 
ATOM     12  C   UNL     1       2.359   4.284   0.002  0.00  0.00    +0.010 A 
BRANCH  10  13
ATOM     13  N   UNL     1       1.106   7.735   0.031  0.00  0.00    -0.358 N 
ATOM     14  H   UNL     1       2.051   8.298   0.025  0.00  0.00    +0.142 HD
ATOM     15  H   UNL     1       0.146   8.272   0.042  0.00  0.00    +0.142 HD
ENDBRANCH  10  13
ENDBRANCH   6   7
BRANCH   3  16
ATOM     16  C   UNL     1       1.239  -2.168  -0.021  0.00  0.00    -0.018 A 
ATOM     17  C   UNL     1       0.043  -2.884  -0.008  0.00  0.00    +0.011 A 
ATOM     18  C   UNL     1       0.068  -4.263  -0.022  0.00  0.00    +0.033 A 
ATOM     19  C   UNL     1       1.276  -4.936  -0.037  0.00  0.00    +0.126 A 
ATOM     20  C   UNL     1       2.466  -4.231  -0.044  0.00  0.00    +0.033 A 
ATOM     21  C   UNL     1       2.454  -2.851  -0.037  0.00  0.00    +0.011 A 
BRANCH  19  22
ATOM     22  N   UNL     1       1.296  -6.416  -0.046  0.00  0.00    +0.056 N 
ATOM     23  O   UNL     1       2.359  -7.011  -0.059  0.00  0.00    -0.126 OA
ATOM     24  O   UNL     1       0.250  -7.039  -0.040  0.00  0.00    -0.126 OA
ENDBRANCH  19  22
ENDBRANCH   3  16
TORSDOF 4
