REMARK  Name = ZINC03375537
REMARK  11 active torsions:
REMARK  status: ('A' for Active; 'I' for Inactive)
REMARK    1  A    between atoms: C_1  and  C_2
REMARK    2  A    between atoms: C_2  and  C_3
REMARK    3  A    between atoms: C_3  and  C_4
REMARK    4  A    between atoms: C_4  and  O_5
REMARK    5  A    between atoms: O_5  and  C_6
REMARK    6  A    between atoms: C_6  and  C_8
REMARK    7  A    between atoms: C_8  and  S_9
REMARK    8  A    between atoms: S_9  and  C_10
REMARK    9  A    between atoms: N_23  and  C_24
REMARK   10  A    between atoms: C_24  and  C_25
REMARK   11  A    between atoms: C_25  and  C_26
REMARK                            x       y       z     vdW  Elec       q    Type
REMARK                         _______ _______ _______ _____ _____    ______ ____
ROOT
ATOM      1  C   UNL     1       1.224   1.819   0.000  0.00  0.00    +0.198 A 
ATOM      2  N   UNL     1      -0.017   1.396   0.010  0.00  0.00    -0.120 NA
ATOM      3  N   UNL     1       0.002  -0.004   0.002  0.00  0.00    -0.109 NA
ATOM      4  C   UNL     1       1.256  -0.396  -0.012  0.00  0.00    +0.240 A 
ATOM      5  N   UNL     1       2.044   0.723  -0.014  0.00  0.00    -0.256 N 
ATOM      6  C   UNL     1       3.433   0.612  -0.027  0.00  0.00    +0.064 A 
ATOM      7  C   UNL     1       4.239   1.739  -0.029  0.00  0.00    +0.027 A 
ATOM      8  C   UNL     1       5.613   1.601  -0.043  0.00  0.00    +0.002 A 
ATOM      9  C   UNL     1       6.195   0.343  -0.055  0.00  0.00    +0.001 A 
ATOM     10  C   UNL     1       5.408  -0.789  -0.053  0.00  0.00    +0.015 A 
ATOM     11  C   UNL     1       4.020  -0.662  -0.039  0.00  0.00    +0.064 A 
ATOM     12  C   UNL     1       3.144  -1.848  -0.037  0.00  0.00    +0.263 A 
ATOM     13  O   UNL     1       3.618  -2.968  -0.047  0.00  0.00    -0.267 OA
ATOM     14  N   UNL     1       1.807  -1.669  -0.024  0.00  0.00    -0.277 N 
ENDROOT
BRANCH   1  15
ATOM     15  S   UNL     1       1.744   3.502   0.003  0.00  0.00    -0.074 S 
BRANCH  15  16
ATOM     16  C   UNL     1       0.192   4.441   0.023  0.00  0.00    +0.197 C 
BRANCH  16  17
ATOM     17  C   UNL     1       0.498   5.917   0.027  0.00  0.00    +0.317 C 
ATOM     18  O   UNL     1       1.645   6.296   0.018  0.00  0.00    -0.250 OA
BRANCH  17  19
ATOM     19  O   UNL     1      -0.504   6.810   0.042  0.00  0.00    -0.464 OA
BRANCH  19  20
ATOM     20  C   UNL     1      -0.136   8.214   0.045  0.00  0.00    +0.232 C 
BRANCH  20  21
ATOM     21  C   UNL     1      -1.401   9.074   0.061  0.00  0.00    +0.041 C 
BRANCH  21  23
ATOM     22  C   UNL     1      -2.278  11.413   0.082  0.00  0.00    +0.004 C 
ATOM     23  C   UNL     1      -1.013  10.554   0.065  0.00  0.00    -0.000 C 
ENDBRANCH  21  23
ENDBRANCH  20  21
ENDBRANCH  19  20
ENDBRANCH  17  19
ENDBRANCH  16  17
ENDBRANCH  15  16
ENDBRANCH   1  15
BRANCH  14  24
ATOM     24  C   UNL     1       0.923  -2.837  -0.021  0.00  0.00    +0.128 C 
BRANCH  24  25
ATOM     25  C   UNL     1       0.601  -3.236  -1.463  0.00  0.00    +0.018 C 
ATOM     26  C   UNL     1      -0.323  -4.456  -1.460  0.00  0.00    +0.005 C 
ENDBRANCH  24  25
ENDBRANCH  14  24
TORSDOF 9
