REMARK  Name = ZINC34921804
REMARK  10 active torsions:
REMARK  status: ('A' for Active; 'I' for Inactive)
REMARK    1  A    between atoms: C_1  and  N_2
REMARK    2  A    between atoms: N_2  and  C_3
REMARK    3  A    between atoms: N_2  and  C_4
REMARK    4  A    between atoms: C_7  and  N_26
REMARK    5  A    between atoms: C_9  and  C_10
REMARK    6  A    between atoms: C_10  and  N_11
REMARK    7  A    between atoms: N_11  and  C_12
REMARK    8  A    between atoms: C_12  and  C_13
REMARK    9  A    between atoms: C_19  and  C_21
REMARK   10  A    between atoms: N_29  and  C_30
REMARK                            x       y       z     vdW  Elec       q    Type
REMARK                         _______ _______ _______ _____ _____    ______ ____
ROOT
ATOM      1  C   UNL     1      -0.726  -1.229  -0.433  0.00  0.00    +0.034 A 
ATOM      2  C   UNL     1       0.542  -1.488  -0.937  0.00  0.00    +0.025 A 
ATOM      3  C   UNL     1       0.687  -2.022  -2.202  0.00  0.00    +0.025 A 
ATOM      4  C   UNL     1      -0.436  -2.299  -2.971  0.00  0.00    +0.035 A 
ATOM      5  C   UNL     1      -1.704  -2.040  -2.468  0.00  0.00    +0.030 A 
ATOM      6  C   UNL     1      -1.849  -1.512  -1.200  0.00  0.00    -0.007 A 
ENDROOT
BRANCH   4   7
ATOM      7  N   UNL     1      -0.289  -2.840  -4.256  0.00  0.00    -0.269 N 
ATOM      8  C   UNL     1       0.702  -3.717  -4.508  0.00  0.00    +0.308 C 
ATOM      9  O   UNL     1       1.409  -4.114  -3.602  0.00  0.00    -0.252 OA
ATOM     10  N   UNL     1       0.911  -4.155  -5.766  0.00  0.00    -0.267 N 
ATOM     11  H   UNL     1      -0.901  -2.583  -4.963  0.00  0.00    +0.156 HD
ATOM     12  H   UNL     1       0.403  -3.778  -6.501  0.00  0.00    +0.156 HD
BRANCH  10  13
ATOM     13  C   UNL     1       1.861  -5.156  -6.011  0.00  0.00    +0.070 A 
ATOM     14  C   UNL     1       2.178  -6.072  -5.018  0.00  0.00    +0.029 A 
ATOM     15  C   UNL     1       3.115  -7.057  -5.261  0.00  0.00    +0.040 A 
ATOM     16  C   UNL     1       3.739  -7.133  -6.495  0.00  0.00    +0.126 A 
ATOM     17  C   UNL     1       3.425  -6.221  -7.489  0.00  0.00    +0.078 A 
ATOM     18  C   UNL     1       2.484  -5.236  -7.252  0.00  0.00    +0.147 A 
ATOM     19  F   UNL     1       2.174  -4.349  -8.223  0.00  0.00    -0.203 F 
ATOM     20  F   UNL     1       4.655  -8.097  -6.730  0.00  0.00    -0.205 F 
ENDBRANCH  10  13
ENDBRANCH   4   7
BRANCH   1  22
ATOM     21  C   UNL     1      -0.948   0.763   1.028  0.00  0.00    +0.129 C 
ATOM     22  N   UNL     1      -0.873  -0.689   0.849  0.00  0.00    -0.336 N 
ATOM     23  C   UNL     1      -0.951  -1.575   2.013  0.00  0.00    +0.129 C 
ENDBRANCH   1  22
BRANCH   6  24
ATOM     24  C   UNL     1      -3.225  -1.236  -0.652  0.00  0.00    +0.145 C 
BRANCH  24  25
ATOM     25  N   UNL     1      -4.232  -1.789  -1.560  0.00  0.00    -0.290 N 
ATOM     26  C   UNL     1      -4.703  -1.043  -2.579  0.00  0.00    +0.254 C 
ATOM     27  O   UNL     1      -5.610  -1.464  -3.273  0.00  0.00    -0.269 OA
BRANCH  26  28
ATOM     28  C   UNL     1      -4.122   0.275  -2.852  0.00  0.00    +0.074 A 
ATOM     29  C   UNL     1      -4.528   1.237  -3.763  0.00  0.00    +0.021 A 
ATOM     30  C   UNL     1      -3.776   2.387  -3.792  0.00  0.00    +0.008 A 
ATOM     31  C   UNL     1      -2.717   2.504  -2.953  0.00  0.00    +0.046 A 
ATOM     32  S   UNL     1      -2.712   1.060  -2.094  0.00  0.00    -0.092 S 
ENDBRANCH  26  28
BRANCH  25  33
ATOM     33  C   UNL     1      -4.729  -3.153  -1.361  0.00  0.00    +0.140 C 
BRANCH  33  34
ATOM     34  C   UNL     1      -5.949  -3.122  -0.438  0.00  0.00    +0.136 C 
ATOM     35  C   UNL     1      -6.405  -4.563  -0.125  0.00  0.00    +0.035 C 
ATOM     36  C   UNL     1      -7.953  -4.432  -0.153  0.00  0.00    +0.031 C 
ATOM     37  C   UNL     1      -8.137  -3.362  -1.259  0.00  0.00    +0.160 C 
ATOM     38  O   UNL     1      -7.035  -2.454  -1.091  0.00  0.00    -0.375 OA
ENDBRANCH  33  34
ENDBRANCH  25  33
ENDBRANCH  24  25
ENDBRANCH   6  24
TORSDOF 8
