REMARK  Name = ZINC42334091
REMARK  9 active torsions:
REMARK  status: ('A' for Active; 'I' for Inactive)
REMARK    1  A    between atoms: C_1  and  C_2
REMARK    2  A    between atoms: C_3  and  N_11
REMARK    3  A    between atoms: C_7  and  N_8
REMARK    4  A    between atoms: C_12  and  C_14
REMARK    5  A    between atoms: C_14  and  C_16
REMARK    6  A    between atoms: C_14  and  N_17
REMARK    7  A    between atoms: N_17  and  C_18
REMARK    8  A    between atoms: C_18  and  C_20
REMARK    9  A    between atoms: C_18  and  C_21
REMARK                            x       y       z     vdW  Elec       q    Type
REMARK                         _______ _______ _______ _____ _____    ______ ____
ROOT
ATOM      1  N   UNL     1      -0.410   0.200  -2.478  0.00  0.00    -0.284 N 
ATOM      2  C   UNL     1      -0.696  -0.480  -3.606  0.00  0.00    +0.234 C 
ATOM      3  O   UNL     1      -0.666  -1.693  -3.608  0.00  0.00    -0.274 OA
ATOM      4  H   UNL     1      -0.382   1.169  -2.490  0.00  0.00    +0.155 HD
ENDROOT
BRANCH   1   7
ATOM      5  C   UNL     1      -1.250   1.379  -0.028  0.00  0.00    +0.048 C 
ATOM      6  C   UNL     1      -0.548   0.046  -0.072  0.00  0.00    +0.001 A 
ATOM      7  C   UNL     1      -0.154  -0.493  -1.290  0.00  0.00    +0.039 A 
ATOM      8  C   UNL     1       0.494  -1.720  -1.325  0.00  0.00    +0.024 A 
ATOM      9  C   UNL     1       0.744  -2.402  -0.150  0.00  0.00    +0.004 A 
ATOM     10  C   UNL     1       0.351  -1.863   1.060  0.00  0.00    +0.033 A 
ATOM     11  C   UNL     1      -0.289  -0.637   1.100  0.00  0.00    +0.131 A 
BRANCH  11  12
ATOM     12  N   UNL     1      -0.703  -0.061   2.399  0.00  0.00    +0.057 N 
ATOM     13  O   UNL     1      -0.798   1.138   2.526  0.00  0.00    -0.126 OA
ATOM     14  O   UNL     1      -0.946  -0.789   3.333  0.00  0.00    -0.126 OA
ENDBRANCH  11  12
ENDBRANCH   1   7
BRANCH   2  15
ATOM     15  C   UNL     1      -1.052   0.266  -4.866  0.00  0.00    +0.138 C 
ATOM     16  C   UNL     1       0.112   1.175  -5.267  0.00  0.00    +0.034 C 
BRANCH  15  17
ATOM     17  N   UNL     1      -1.318  -0.694  -5.946  0.00  0.00    -0.299 NA
ATOM     18  H   UNL     1      -0.457  -1.019  -6.360  0.00  0.00    +0.123 HD
BRANCH  17  19
ATOM     19  C   UNL     1      -2.205  -0.113  -6.962  0.00  0.00    +0.081 C 
ATOM     20  C   UNL     1      -3.662  -0.294  -6.531  0.00  0.00    +0.029 C 
BRANCH  19  21
ATOM     21  C   UNL     1      -1.981  -0.806  -8.281  0.00  0.00    -0.029 A 
ATOM     22  C   UNL     1      -1.791  -2.175  -8.318  0.00  0.00    +0.005 A 
ATOM     23  C   UNL     1      -1.586  -2.812  -9.528  0.00  0.00    +0.002 A 
ATOM     24  C   UNL     1      -1.570  -2.080 -10.700  0.00  0.00    +0.020 A 
ATOM     25  C   UNL     1      -1.760  -0.711 -10.663  0.00  0.00    +0.041 A 
ATOM     26  C   UNL     1      -1.971  -0.074  -9.453  0.00  0.00    +0.025 A 
ATOM     27 CL   UNL     1      -1.740   0.209 -12.136  0.00  0.00    -0.084 Cl
ENDBRANCH  19  21
ENDBRANCH  17  19
ENDBRANCH  15  17
ENDBRANCH   2  15
TORSDOF 6
