REMARK  Name = ZINC08627175
REMARK  8 active torsions:
REMARK  status: ('A' for Active; 'I' for Inactive)
REMARK    1  A    between atoms: C_6  and  N_7
REMARK    2  A    between atoms: C_13  and  C_15
REMARK    3  A    between atoms: C_15  and  C_16
REMARK    4  A    between atoms: C_18  and  O_33
REMARK    5  A    between atoms: C_20  and  O_32
REMARK    6  A    between atoms: C_22  and  C_25
REMARK    7  A    between atoms: C_25  and  N_26
REMARK    8  A    between atoms: C_27  and  C_29
REMARK                            x       y       z     vdW  Elec       q    Type
REMARK                         _______ _______ _______ _____ _____    ______ ____
ROOT
ATOM      1  C   UNL     1      -0.554  -0.872   2.180  0.00  0.00    +0.159 C 
ATOM      2  C   UNL     1       0.674  -0.544   1.288  0.00  0.00    +0.175 C 
ATOM      3  C   UNL     1       0.002  -0.004   0.002  0.00  0.00    +0.176 C 
ATOM      4  C   UNL     1      -1.433  -0.563   0.059  0.00  0.00    +0.167 C 
ATOM      5  O   UNL     1      -1.527  -1.377   1.240  0.00  0.00    -0.366 OA
ENDROOT
BRANCH   3   6
ATOM      6  O   UNL     1      -0.017   1.425   0.010  0.00  0.00    -0.387 OA
ATOM      7  H   UNL     1       0.861   1.830   0.004  0.00  0.00    +0.210 HD
ENDBRANCH   3   6
BRANCH   2   8
ATOM      8  O   UNL     1       1.494   0.458   1.893  0.00  0.00    -0.387 OA
ATOM      9  H   UNL     1       2.223   0.761   1.334  0.00  0.00    +0.210 HD
ENDBRANCH   2   8
BRANCH   1  10
ATOM     10  C   UNL     1      -0.201  -1.940   3.216  0.00  0.00    +0.130 C 
BRANCH  10  17
ATOM     11  N   UNL     1      -0.899  -4.195   7.604  0.00  0.00    -0.327 N 
ATOM     12  C   UNL     1      -2.066  -3.332   7.378  0.00  0.00    +0.124 C 
ATOM     13  C   UNL     1      -2.495  -3.433   5.911  0.00  0.00    +0.126 C 
ATOM     14  N   UNL     1      -1.330  -3.139   5.062  0.00  0.00    -0.298 N 
ATOM     15  C   UNL     1      -0.081  -3.873   5.316  0.00  0.00    +0.126 C 
ATOM     16  C   UNL     1       0.255  -3.751   6.811  0.00  0.00    +0.124 C 
ATOM     17  C   UNL     1      -1.407  -2.225   4.074  0.00  0.00    +0.218 C 
ATOM     18  O   UNL     1      -2.446  -1.633   3.876  0.00  0.00    -0.276 OA
BRANCH  11  24
ATOM     19  C   UNL     1      -1.331  -3.547   9.890  0.00  0.00    +0.026 A 
ATOM     20  C   UNL     1      -1.014  -3.614  11.233  0.00  0.00    +0.040 A 
ATOM     21  C   UNL     1       0.060  -4.380  11.655  0.00  0.00    +0.124 A 
ATOM     22  C   UNL     1       0.815  -5.084  10.733  0.00  0.00    +0.040 A 
ATOM     23  C   UNL     1       0.499  -5.024   9.389  0.00  0.00    +0.026 A 
ATOM     24  C   UNL     1      -0.577  -4.257   8.964  0.00  0.00    +0.030 A 
ATOM     25  F   UNL     1       0.370  -4.440  12.968  0.00  0.00    -0.205 F 
ENDBRANCH  11  24
ENDBRANCH  10  17
ENDBRANCH   1  10
BRANCH   4  26
ATOM     26  C   UNL     1      -1.710  -1.414  -1.182  0.00  0.00    +0.138 C 
BRANCH  26  27
ATOM     27  N   UNL     1      -3.111  -1.842  -1.178  0.00  0.00    -0.313 N 
ATOM     28  C   UNL     1      -3.584  -2.606  -2.182  0.00  0.00    +0.216 C 
ATOM     29  O   UNL     1      -2.851  -2.940  -3.089  0.00  0.00    -0.276 OA
ATOM     30  H   UNL     1      -3.697  -1.575  -0.453  0.00  0.00    +0.149 HD
BRANCH  28  31
ATOM     31  C   UNL     1      -5.026  -3.047  -2.178  0.00  0.00    +0.075 C 
ATOM     32  C   UNL     1      -5.309  -4.535  -1.961  0.00  0.00    +0.013 C 
ATOM     33  C   UNL     1      -5.503  -3.913  -3.346  0.00  0.00    +0.013 C 
ENDBRANCH  28  31
ENDBRANCH  26  27
ENDBRANCH   4  26
TORSDOF 8
