REMARK  Name = ZINC33018549
REMARK  9 active torsions:
REMARK  status: ('A' for Active; 'I' for Inactive)
REMARK    1  A    between atoms: C_1  and  N_2
REMARK    2  A    between atoms: N_2  and  C_3
REMARK    3  A    between atoms: N_2  and  C_29
REMARK    4  A    between atoms: C_3  and  C_4
REMARK    5  A    between atoms: C_4  and  N_5
REMARK    6  A    between atoms: C_6  and  C_8
REMARK    7  A    between atoms: C_12  and  C_14
REMARK    8  A    between atoms: C_14  and  N_15
REMARK    9  A    between atoms: C_29  and  C_30
REMARK                            x       y       z     vdW  Elec       q    Type
REMARK                         _______ _______ _______ _____ _____    ______ ____
ROOT
ATOM      1  C   UNL     1      -2.458   0.867   0.018  0.00  0.00    +0.037 A 
ATOM      2  C   UNL     1      -2.442  -0.529   0.005  0.00  0.00    +0.013 A 
ATOM      3  C   UNL     1      -3.631  -1.228   0.012  0.00  0.00    +0.001 A 
ATOM      4  C   UNL     1      -4.837  -0.550   0.021  0.00  0.00    +0.005 A 
ATOM      5  C   UNL     1      -4.859   0.833   0.029  0.00  0.00    -0.027 A 
ATOM      6  C   UNL     1      -3.677   1.545   0.028  0.00  0.00    +0.018 A 
ENDROOT
BRANCH   1   8
ATOM      7  N   UNL     1      -0.011   0.966   0.007  0.00  0.00    -0.313 N 
ATOM      8  C   UNL     1      -1.187   1.624   0.017  0.00  0.00    +0.244 C 
ATOM      9  O   UNL     1      -1.204   2.839   0.023  0.00  0.00    -0.270 OA
ATOM     10  H   UNL     1       0.004  -0.134   0.006  0.00  0.00    +0.149 HD
BRANCH   7  11
ATOM     11  C   UNL     1       1.248   1.716  -0.001  0.00  0.00    +0.086 C 
BRANCH  11  12
ATOM     12  C   UNL     1       2.424   0.737  -0.017  0.00  0.00    -0.060 C 
BRANCH  12  14
ATOM     13  C   UNL     1       3.865   2.230   1.230  0.00  0.00    -0.096 C 
ATOM     14  N   UNL     1       3.686   1.489  -0.025  0.00  0.00    +0.382 N 
ATOM     15  H   UNL     1       3.638   2.220  -0.845  0.00  0.00    -0.082 HD
BRANCH  14  16
ATOM     16  C   UNL     1       4.827   0.599  -0.279  0.00  0.00    -0.043 C 
BRANCH  16  17
ATOM     17  C   UNL     1       6.063   1.425  -0.524  0.00  0.00    -0.064 A 
ATOM     18  C   UNL     1       6.388   1.819  -1.808  0.00  0.00    +0.002 A 
ATOM     19  C   UNL     1       7.520   2.581  -2.032  0.00  0.00    +0.000 A 
ATOM     20  C   UNL     1       8.332   2.941  -0.973  0.00  0.00    +0.000 A 
ATOM     21  C   UNL     1       8.010   2.542   0.311  0.00  0.00    +0.000 A 
ATOM     22  C   UNL     1       6.875   1.784   0.536  0.00  0.00    +0.002 A 
ENDBRANCH  16  17
ENDBRANCH  14  16
ENDBRANCH  12  14
ENDBRANCH  11  12
ENDBRANCH   7  11
ENDBRANCH   1   8
BRANCH   5  23
ATOM     23  C   UNL     1      -6.177   1.564   0.039  0.00  0.00    +0.162 C 
BRANCH  23  24
ATOM     24  N   UNL     1      -6.610   1.809  -1.339  0.00  0.00    -0.286 N 
ATOM     25  C   UNL     1      -6.233   2.983  -1.981  0.00  0.00    +0.161 A 
ATOM     26  C   UNL     1      -6.634   3.230  -3.295  0.00  0.00    +0.090 A 
ATOM     27  C   UNL     1      -6.241   4.407  -3.918  0.00  0.00    +0.031 A 
ATOM     28  C   UNL     1      -5.453   5.299  -3.204  0.00  0.00    +0.022 A 
ATOM     29  C   UNL     1      -5.089   4.989  -1.907  0.00  0.00    +0.113 A 
ATOM     30  N   UNL     1      -5.477   3.864  -1.341  0.00  0.00    -0.236 NA
ATOM     31  N   UNL     1      -7.428   2.306  -3.981  0.00  0.00    -0.309 N 
ATOM     32  C   UNL     1      -7.948   2.300  -5.234  0.00  0.00    +0.092 A 
ATOM     33  C   UNL     1      -8.653   1.157  -5.412  0.00  0.00    +0.020 A 
ATOM     34  C   UNL     1      -8.575   0.414  -4.230  0.00  0.00    +0.033 A 
ATOM     35  C   UNL     1      -7.809   1.141  -3.346  0.00  0.00    +0.112 A 
ATOM     36  C   UNL     1      -7.375   0.897  -1.970  0.00  0.00    +0.277 A 
ATOM     37  O   UNL     1      -7.704  -0.127  -1.398  0.00  0.00    -0.265 OA
ENDBRANCH  23  24
ENDBRANCH   5  23
TORSDOF 8
