REMARK  Name = ZINC39622469
REMARK  9 active torsions:
REMARK  status: ('A' for Active; 'I' for Inactive)
REMARK    1  A    between atoms: C_1  and  C_2
REMARK    2  A    between atoms: C_2  and  C_4
REMARK    3  A    between atoms: C_2  and  O_16
REMARK    4  A    between atoms: N_6  and  C_7
REMARK    5  A    between atoms: C_11  and  C_13
REMARK    6  A    between atoms: C_13  and  C_15
REMARK    7  A    between atoms: O_16  and  C_17
REMARK    8  A    between atoms: C_17  and  C_19
REMARK    9  A    between atoms: C_25  and  C_27
REMARK                            x       y       z     vdW  Elec       q    Type
REMARK                         _______ _______ _______ _____ _____    ______ ____
ROOT
ATOM      1  C   UNL     1       1.991  -1.038   0.789  0.00  0.00    +0.312 C 
ATOM      2  O   UNL     1       2.673  -0.871  -0.194  0.00  0.00    -0.250 OA
ENDROOT
BRANCH   1   3
ATOM      3  C   UNL     1       2.642  -1.317   2.119  0.00  0.00    +0.110 C 
ATOM      4  C   UNL     1       2.253  -0.224   3.117  0.00  0.00    +0.015 C 
ATOM      5  C   UNL     1       2.914  -0.507   4.467  0.00  0.00    +0.001 C 
ATOM      6  C   UNL     1       4.434  -0.526   4.297  0.00  0.00    +0.001 C 
ATOM      7  C   UNL     1       4.823  -1.619   3.300  0.00  0.00    +0.013 C 
ATOM      8  C   UNL     1       4.162  -1.336   1.950  0.00  0.00    +0.089 C 
BRANCH   8   9
ATOM      9  C   UNL     1       4.626   0.002   1.434  0.00  0.00    +0.224 C 
ATOM     10  O   UNL     1       3.868   0.949   1.434  0.00  0.00    -0.275 OA
ATOM     11  N   UNL     1       5.885   0.147   0.973  0.00  0.00    -0.271 N 
ATOM     12  C   UNL     1       6.918  -0.892   1.011  0.00  0.00    +0.118 C 
ATOM     13  C   UNL     1       8.160  -0.247   0.375  0.00  0.00    +0.056 C 
ATOM     14  C   UNL     1       7.720   1.153   0.014  0.00  0.00    -0.024 A 
ATOM     15  C   UNL     1       6.393   1.308   0.383  0.00  0.00    +0.039 A 
ATOM     16  C   UNL     1       5.761   2.529   0.142  0.00  0.00    +0.024 A 
ATOM     17  C   UNL     1       6.448   3.562  -0.458  0.00  0.00    +0.002 A 
ATOM     18  C   UNL     1       7.771   3.396  -0.827  0.00  0.00    +0.000 A 
ATOM     19  C   UNL     1       8.407   2.193  -0.584  0.00  0.00    +0.005 A 
ENDBRANCH   8   9
ENDBRANCH   1   3
BRANCH   1  20
ATOM     20  O   UNL     1       0.653  -0.975   0.696  0.00  0.00    -0.452 OA
BRANCH  20  22
ATOM     21  C   UNL     1      -0.043   0.805  -0.783  0.00  0.00    +0.062 C 
ATOM     22  C   UNL     1       0.105  -0.707  -0.596  0.00  0.00    +0.259 C 
BRANCH  22  23
ATOM     23  C   UNL     1      -1.247  -1.362  -0.713  0.00  0.00    +0.258 C 
ATOM     24  O   UNL     1      -1.737  -1.919   0.247  0.00  0.00    -0.271 OA
ATOM     25  N   UNL     1      -1.913  -1.329  -1.885  0.00  0.00    -0.282 N 
ATOM     26  H   UNL     1      -1.554  -0.825  -2.632  0.00  0.00    +0.155 HD
BRANCH  25  27
ATOM     27  C   UNL     1      -3.121  -2.022  -2.023  0.00  0.00    +0.034 A 
ATOM     28  C   UNL     1      -3.440  -2.627  -3.233  0.00  0.00    +0.023 A 
ATOM     29  C   UNL     1      -4.632  -3.313  -3.377  0.00  0.00    +0.002 A 
ATOM     30  C   UNL     1      -5.514  -3.402  -2.320  0.00  0.00    +0.011 A 
ATOM     31  C   UNL     1      -5.204  -2.796  -1.098  0.00  0.00    +0.019 A 
ATOM     32  C   UNL     1      -3.996  -2.108  -0.953  0.00  0.00    +0.034 A 
BRANCH  31  33
ATOM     33  C   UNL     1      -6.143  -2.888   0.032  0.00  0.00    +0.160 C 
ATOM     34  O   UNL     1      -5.871  -2.362   1.090  0.00  0.00    -0.292 OA
ATOM     35  C   UNL     1      -7.442  -3.635  -0.127  0.00  0.00    +0.091 C 
ENDBRANCH  31  33
ENDBRANCH  25  27
ENDBRANCH  22  23
ENDBRANCH  20  22
ENDBRANCH   1  20
TORSDOF 7
