REMARK  Name = ZINC20714937
REMARK  9 active torsions:
REMARK  status: ('A' for Active; 'I' for Inactive)
REMARK    1  A    between atoms: C_1  and  O_2
REMARK    2  A    between atoms: O_2  and  C_3
REMARK    3  A    between atoms: C_3  and  C_5
REMARK    4  A    between atoms: C_5  and  C_7
REMARK    5  A    between atoms: C_5  and  N_14
REMARK    6  A    between atoms: C_7  and  C_8
REMARK    7  A    between atoms: C_26  and  C_28
REMARK    8  A    between atoms: C_33  and  O_34
REMARK    9  A    between atoms: O_34  and  C_35
REMARK                            x       y       z     vdW  Elec       q    Type
REMARK                         _______ _______ _______ _____ _____    ______ ____
ROOT
ATOM      1  N   UNL     1      -1.029  -2.369  -3.765  0.00  0.00    -0.286 N 
ATOM      2  C   UNL     1       0.296  -2.492  -3.548  0.00  0.00    +0.304 C 
ATOM      3  O   UNL     1       0.764  -2.207  -2.463  0.00  0.00    -0.253 OA
ATOM      4  N   UNL     1       1.102  -2.930  -4.535  0.00  0.00    -0.273 N 
ATOM      5  C   UNL     1       2.531  -3.178  -4.288  0.00  0.00    +0.116 C 
ATOM      6  C   UNL     1       2.822  -4.672  -4.477  0.00  0.00    +0.076 C 
ATOM      7  C   UNL     1       2.150  -5.144  -5.741  0.00  0.00    +0.066 A 
ATOM      8  C   UNL     1       1.151  -4.483  -6.366  0.00  0.00    +0.064 A 
ATOM      9  N   UNL     1       0.804  -5.215  -7.458  0.00  0.00    -0.346 N 
ATOM     10  H   UNL     1       0.114  -4.997  -8.104  0.00  0.00    +0.167 HD
ATOM     11  C   UNL     1       1.605  -6.306  -7.473  0.00  0.00    +0.197 A 
ATOM     12  N   UNL     1       2.407  -6.253  -6.441  0.00  0.00    -0.240 NA
ATOM     13  C   UNL     1       0.574  -3.178  -5.889  0.00  0.00    +0.160 C 
ATOM     14  H   UNL     1      -1.392  -2.525  -4.650  0.00  0.00    +0.151 HD
ENDROOT
BRANCH  13  15
ATOM     15  C   UNL     1       0.995  -2.067  -6.816  0.00  0.00    +0.021 A 
ATOM     16  C   UNL     1       2.004  -1.200  -6.443  0.00  0.00    +0.009 A 
ATOM     17  C   UNL     1       2.390  -0.180  -7.293  0.00  0.00    +0.001 A 
ATOM     18  C   UNL     1       1.768  -0.025  -8.518  0.00  0.00    +0.004 A 
ATOM     19  C   UNL     1       0.759  -0.888  -8.896  0.00  0.00    +0.046 A 
ATOM     20  C   UNL     1       0.373  -1.916  -8.047  0.00  0.00    +0.135 A 
BRANCH  20  21
ATOM     21  O   UNL     1      -0.616  -2.771  -8.419  0.00  0.00    -0.405 OA
BRANCH  21  22
ATOM     22  C   UNL     1      -1.212  -2.556  -9.700  0.00  0.00    +0.575 C 
ATOM     23  F   UNL     1      -0.232  -2.660 -10.693  0.00  0.00    -0.133 F 
ATOM     24  F   UNL     1      -2.203  -3.518  -9.920  0.00  0.00    -0.133 F 
ATOM     25  F   UNL     1      -1.783  -1.280  -9.740  0.00  0.00    -0.133 F 
ENDBRANCH  21  22
ENDBRANCH  20  21
ENDBRANCH  13  15
BRANCH   1  26
ATOM     26  C   UNL     1      -1.920  -2.001  -2.662  0.00  0.00    +0.187 C 
BRANCH  26  27
ATOM     27  C   UNL     1      -2.306  -3.238  -1.893  0.00  0.00    +0.328 C 
ATOM     28  O   UNL     1      -1.881  -4.317  -2.232  0.00  0.00    -0.249 OA
BRANCH  27  30
ATOM     29  C   UNL     1      -3.447  -4.356  -0.151  0.00  0.00    +0.280 C 
ATOM     30  O   UNL     1      -3.123  -3.142  -0.833  0.00  0.00    -0.467 OA
ENDBRANCH  27  30
ENDBRANCH  26  27
BRANCH  26  31
ATOM     31  C   UNL     1      -3.178  -1.336  -3.223  0.00  0.00    +0.069 C 
BRANCH  31  32
ATOM     32  C   UNL     1      -2.805  -0.035  -3.886  0.00  0.00    -0.045 A 
ATOM     33  C   UNL     1      -2.788   1.136  -3.151  0.00  0.00    +0.004 A 
ATOM     34  C   UNL     1      -2.446   2.329  -3.759  0.00  0.00    +0.000 A 
ATOM     35  C   UNL     1      -2.121   2.352  -5.102  0.00  0.00    +0.000 A 
ATOM     36  C   UNL     1      -2.137   1.182  -5.837  0.00  0.00    +0.000 A 
ATOM     37  C   UNL     1      -2.475  -0.012  -5.228  0.00  0.00    +0.004 A 
ENDBRANCH  31  32
ENDBRANCH  26  31
ENDBRANCH   1  26
TORSDOF 8
