REMARK  Name = ZINC36627276
REMARK  11 active torsions:
REMARK  status: ('A' for Active; 'I' for Inactive)
REMARK    1  A    between atoms: C_1  and  C_2
REMARK    2  A    between atoms: C_2  and  O_3
REMARK    3  A    between atoms: O_3  and  C_4
REMARK    4  A    between atoms: C_4  and  C_6
REMARK    5  A    between atoms: C_7  and  C_20
REMARK    6  A    between atoms: C_12  and  C_14
REMARK    7  A    between atoms: C_20  and  S_21
REMARK    8  A    between atoms: S_21  and  C_22
REMARK    9  A    between atoms: C_25  and  C_28
REMARK   10  A    between atoms: N_26  and  C_27
REMARK   11  A    between atoms: C_33  and  C_34
REMARK                            x       y       z     vdW  Elec       q    Type
REMARK                         _______ _______ _______ _____ _____    ______ ____
ROOT
ATOM      1  C   UNL     1       1.705  -2.475   2.488  0.00  0.00    +0.079 C 
ATOM      2  C   UNL     1       1.493  -3.784   2.744  0.00  0.00    +0.034 C 
ATOM      3  N   UNL     1       1.876  -4.342   3.930  0.00  0.00    -0.272 N 
ATOM      4  C   UNL     1       2.478  -3.658   4.912  0.00  0.00    +0.304 C 
ATOM      5  O   UNL     1       2.783  -4.242   5.933  0.00  0.00    -0.252 OA
ATOM      6  N   UNL     1       2.757  -2.344   4.804  0.00  0.00    -0.288 N 
ATOM      7  C   UNL     1       2.388  -1.649   3.559  0.00  0.00    +0.144 C 
ATOM      8  H   UNL     1       1.703  -5.286   4.069  0.00  0.00    +0.156 HD
ATOM      9  H   UNL     1       3.193  -1.868   5.528  0.00  0.00    +0.151 HD
ENDROOT
BRANCH   7  10
ATOM     10  C   UNL     1       1.471  -0.510   3.922  0.00  0.00    -0.023 A 
ATOM     11  C   UNL     1       0.415  -0.722   4.789  0.00  0.00    +0.006 A 
ATOM     12  C   UNL     1      -0.426   0.323   5.122  0.00  0.00    +0.000 A 
ATOM     13  C   UNL     1      -0.211   1.580   4.590  0.00  0.00    +0.000 A 
ATOM     14  C   UNL     1       0.845   1.793   3.724  0.00  0.00    +0.000 A 
ATOM     15  C   UNL     1       1.689   0.749   3.394  0.00  0.00    +0.006 A 
ENDBRANCH   7  10
BRANCH   1  16
ATOM     16  C   UNL     1       1.308  -1.897   1.260  0.00  0.00    +0.339 C 
ATOM     17  O   UNL     1       2.132  -1.702   0.385  0.00  0.00    -0.245 OA
BRANCH  16  18
ATOM     18  O   UNL     1       0.017  -1.560   1.058  0.00  0.00    -0.462 OA
BRANCH  18  20
ATOM     19  C   UNL     1      -1.810  -0.669  -0.249  0.00  0.00    +0.048 C 
ATOM     20  C   UNL     1      -0.312  -0.981  -0.206  0.00  0.00    +0.229 C 
ENDBRANCH  18  20
ENDBRANCH  16  18
ENDBRANCH   1  16
BRANCH   2  21
ATOM     21  C   UNL     1       0.821  -4.643   1.704  0.00  0.00    +0.128 C 
BRANCH  21  22
ATOM     22  S   UNL     1       2.056  -5.709   0.911  0.00  0.00    -0.080 S 
BRANCH  22  23
ATOM     23  C   UNL     1       1.126  -6.638  -0.263  0.00  0.00    +0.192 A 
ATOM     24  N   UNL     1      -0.166  -6.544  -0.485  0.00  0.00    -0.122 NA
ATOM     25  N   UNL     1      -0.516  -7.367  -1.408  0.00  0.00    -0.128 NA
ATOM     26  C   UNL     1       0.530  -8.037  -1.831  0.00  0.00    +0.165 A 
ATOM     27  N   UNL     1       1.615  -7.587  -1.115  0.00  0.00    -0.305 N 
ATOM     28  C   UNL     1       3.005  -8.034  -1.240  0.00  0.00    +0.153 C 
BRANCH  26  29
ATOM     29  C   UNL     1       0.541  -9.075  -2.884  0.00  0.00    +0.022 A 
ATOM     30  C   UNL     1       1.489  -9.026  -3.907  0.00  0.00    +0.012 A 
ATOM     31  C   UNL     1       1.495  -9.998  -4.886  0.00  0.00    +0.001 A 
ATOM     32  C   UNL     1       0.562 -11.020  -4.855  0.00  0.00    +0.000 A 
ATOM     33  C   UNL     1      -0.381 -11.074  -3.845  0.00  0.00    +0.004 A 
ATOM     34  C   UNL     1      -0.393 -10.111  -2.856  0.00  0.00    -0.040 A 
ATOM     35  C   UNL     1      -1.417 -10.176  -1.752  0.00  0.00    +0.044 C 
ENDBRANCH  26  29
ENDBRANCH  22  23
ENDBRANCH  21  22
ENDBRANCH   2  21
TORSDOF 8
