REMARK  Name = ZINC63737967
REMARK  5 active torsions:
REMARK  status: ('A' for Active; 'I' for Inactive)
REMARK    1  A    between atoms: C_1  and  C_2
REMARK    2  A    between atoms: C_2  and  C_4
REMARK    3  A    between atoms: C_2  and  C_22
REMARK    4  A    between atoms: C_10  and  C_12
REMARK    5  A    between atoms: N_24  and  C_25
REMARK                            x       y       z     vdW  Elec       q    Type
REMARK                         _______ _______ _______ _____ _____    ______ ____
ROOT
ATOM      1  C   UNL     1       0.718  -0.497  -1.257  0.00  0.00    +0.004 C 
ATOM      2  C   UNL     1      -0.021   0.011  -2.497  0.00  0.00    +0.023 C 
ATOM      3  C   UNL     1       0.718  -0.456  -3.754  0.00  0.00    +0.108 C 
ATOM      4  N   UNL     1       0.870  -1.916  -3.699  0.00  0.00    -0.300 N 
ATOM      5  C   UNL     1       1.487  -2.518  -2.509  0.00  0.00    +0.108 C 
ATOM      6  C   UNL     1       0.739  -2.028  -1.265  0.00  0.00    +0.023 C 
ATOM      7  C   UNL     1       0.451  -2.689  -4.720  0.00  0.00    +0.242 C 
ATOM      8  O   UNL     1      -0.057  -2.181  -5.697  0.00  0.00    -0.273 OA
ENDROOT
BRANCH   7   9
ATOM      9  C   UNL     1       0.614  -4.186  -4.649  0.00  0.00    +0.190 C 
ATOM     10  C   UNL     1      -0.186  -4.742  -3.492  0.00  0.00    +0.016 C 
ATOM     11  C   UNL     1      -1.086  -5.594  -4.034  0.00  0.00    -0.004 A 
ATOM     12  C   UNL     1      -2.135  -6.438  -3.449  0.00  0.00    +0.010 A 
ATOM     13  C   UNL     1      -2.895  -7.202  -4.266  0.00  0.00    +0.001 A 
ATOM     14  C   UNL     1      -2.707  -7.207  -5.655  0.00  0.00    +0.002 A 
ATOM     15  C   UNL     1      -1.764  -6.459  -6.266  0.00  0.00    +0.026 A 
ATOM     16  C   UNL     1      -0.908  -5.618  -5.504  0.00  0.00    +0.043 A 
ATOM     17  N   UNL     1       0.066  -4.812  -5.857  0.00  0.00    -0.370 N 
ATOM     18  H   UNL     1       0.373  -4.657  -6.764  0.00  0.00    +0.161 HD
ENDBRANCH   7   9
BRANCH   1  20
ATOM     19  C   UNL     1      -0.019   1.526   0.010  0.00  0.00    +0.017 C 
ATOM     20  C   UNL     1       0.002  -0.004   0.002  0.00  0.00    +0.075 C 
BRANCH  20  21
ATOM     21  C   UNL     1       0.731  -0.503   1.223  0.00  0.00    +0.216 C 
ATOM     22  O   UNL     1       1.725  -1.187   1.099  0.00  0.00    -0.276 OA
ATOM     23  N   UNL     1       0.278  -0.191   2.453  0.00  0.00    -0.312 N 
ATOM     24  H   UNL     1      -0.517   0.356   2.553  0.00  0.00    +0.149 HD
BRANCH  23  25
ATOM     25  C   UNL     1       0.986  -0.676   3.640  0.00  0.00    +0.073 C 
ATOM     26  C   UNL     1       0.543  -2.125   3.929  0.00  0.00    +0.022 C 
ATOM     27  C   UNL     1       1.593  -2.785   4.781  0.00  0.00    +0.002 C 
ATOM     28  C   UNL     1       1.275  -2.691   6.286  0.00  0.00    +0.000 C 
ATOM     29  C   UNL     1       0.733  -1.308   6.697  0.00  0.00    +0.000 C 
ATOM     30  C   UNL     1       1.473  -0.179   6.032  0.00  0.00    +0.002 C 
ATOM     31  C   UNL     1       0.711   0.221   4.753  0.00  0.00    +0.022 C 
ENDBRANCH  23  25
ENDBRANCH  20  21
ENDBRANCH   1  20
TORSDOF 4
