REMARK  Name = ZINC23732249
REMARK  5 active torsions:
REMARK  status: ('A' for Active; 'I' for Inactive)
REMARK    1  A    between atoms: C_1  and  C_2
REMARK    2  A    between atoms: N_11  and  C_15
REMARK    3  A    between atoms: C_15  and  N_16
REMARK    4  A    between atoms: N_19  and  S_22
REMARK    5  A    between atoms: S_22  and  C_25
REMARK                            x       y       z     vdW  Elec       q    Type
REMARK                         _______ _______ _______ _____ _____    ______ ____
ROOT
ATOM      1  N   UNL     1      -2.995   0.347   5.545  0.00  0.00    -0.284 NA
ATOM      2  C   UNL     1      -2.451  -0.998   5.775  0.00  0.00    +0.103 C 
ATOM      3  C   UNL     1      -1.326  -0.919   6.812  0.00  0.00    +0.125 C 
ATOM      4  N   UNL     1      -1.842  -0.243   8.012  0.00  0.00    -0.174 NA
ATOM      5  C   UNL     1      -2.525   1.048   7.843  0.00  0.00    +0.125 C 
ATOM      6  C   UNL     1      -3.603   0.892   6.766  0.00  0.00    +0.103 C 
ENDROOT
BRANCH   4   7
ATOM      7  S   UNL     1      -1.660  -0.919   9.513  0.00  0.00    +0.061 S 
ATOM      8  O   UNL     1      -0.543  -1.794   9.431  0.00  0.00    -0.153 OA
ATOM      9  O   UNL     1      -1.726   0.148  10.449  0.00  0.00    -0.153 OA
BRANCH   7  10
ATOM     10  C   UNL     1      -3.072  -1.932   9.803  0.00  0.00    +0.106 A 
ATOM     11  C   UNL     1      -4.194  -1.399  10.412  0.00  0.00    +0.029 A 
ATOM     12  C   UNL     1      -5.297  -2.198  10.632  0.00  0.00    +0.006 A 
ATOM     13  C   UNL     1      -5.286  -3.536  10.259  0.00  0.00    -0.044 A 
ATOM     14  C   UNL     1      -4.169  -4.066   9.656  0.00  0.00    -0.042 A 
ATOM     15  C   UNL     1      -3.061  -3.259   9.430  0.00  0.00    +0.032 A 
ATOM     16  C   UNL     1      -4.090  -5.505   9.217  0.00  0.00    +0.035 C 
ATOM     17  C   UNL     1      -5.171  -6.336   9.905  0.00  0.00    +0.005 C 
ATOM     18  C   UNL     1      -6.519  -5.633   9.710  0.00  0.00    +0.005 C 
ATOM     19  C   UNL     1      -6.519  -4.353  10.543  0.00  0.00    +0.035 C 
ENDBRANCH   7  10
ENDBRANCH   4   7
BRANCH   1  20
ATOM     20  C   UNL     1      -3.957   0.343   4.434  0.00  0.00    +0.205 C 
BRANCH  20  30
ATOM     21  C   UNL     1      -0.002   1.056   2.507  0.00  0.00    +0.010 C 
ATOM     22  C   UNL     1      -0.730   1.580   1.267  0.00  0.00    +0.018 C 
ATOM     23  C   UNL     1      -0.013   1.086   0.008  0.00  0.00    +0.006 C 
ATOM     24  C   UNL     1      -0.753   1.593  -1.231  0.00  0.00    +0.000 C 
ATOM     25  C   UNL     1      -2.186   1.056  -1.227  0.00  0.00    +0.003 C 
ATOM     26  C   UNL     1      -2.911   1.550   0.027  0.00  0.00    +0.035 C 
ATOM     27  C   UNL     1      -2.167   1.069   1.268  0.00  0.00    +0.115 C 
ATOM     28  C   UNL     1      -2.885   1.517   2.521  0.00  0.00    +0.248 C 
ATOM     29  O   UNL     1      -3.102   2.655   2.875  0.00  0.00    -0.273 OA
ATOM     30  N   UNL     1      -3.233   0.381   3.161  0.00  0.00    -0.211 N 
ATOM     31  C   UNL     1      -2.836  -0.706   2.489  0.00  0.00    +0.310 C 
ATOM     32  O   UNL     1      -3.035  -1.844   2.866  0.00  0.00    -0.252 OA
ATOM     33  N   UNL     1      -2.191  -0.397   1.347  0.00  0.00    -0.285 N 
ATOM     34  H   UNL     1      -1.730  -0.998   0.550  0.00  0.00    +0.151 HD
ENDBRANCH  20  30
ENDBRANCH   1  20
TORSDOF 4
