REMARK  Name = ZINC40825502
REMARK  9 active torsions:
REMARK  status: ('A' for Active; 'I' for Inactive)
REMARK    1  A    between atoms: C_1  and  C_2
REMARK    2  A    between atoms: C_2  and  O_3
REMARK    3  A    between atoms: O_3  and  C_4
REMARK    4  A    between atoms: N_6  and  N_7
REMARK    5  A    between atoms: C_14  and  C_28
REMARK    6  A    between atoms: C_15  and  C_17
REMARK    7  A    between atoms: N_19  and  C_20
REMARK    8  A    between atoms: C_22  and  C_27
REMARK    9  A    between atoms: C_25  and  C_26
REMARK                            x       y       z     vdW  Elec       q    Type
REMARK                         _______ _______ _______ _____ _____    ______ ____
ROOT
ATOM      1  N   UNL     1      -3.862  -1.539   0.066  0.00  0.00    -0.182 NA
ATOM      2  C   UNL     1      -5.054  -2.049   0.077  0.00  0.00    +0.070 C 
ATOM      3  C   UNL     1      -5.299  -3.551   0.089  0.00  0.00    +0.058 C 
ATOM      4  C   UNL     1      -6.446  -3.858  -0.880  0.00  0.00    +0.014 C 
ATOM      5  C   UNL     1      -7.749  -3.219  -0.394  0.00  0.00    +0.075 C 
ATOM      6  C   UNL     1      -7.522  -1.751  -0.137  0.00  0.00    +0.115 A 
ATOM      7  C   UNL     1      -6.275  -1.213   0.085  0.00  0.00    +0.042 A 
ATOM      8  C   UNL     1      -6.439   0.162   0.289  0.00  0.00    +0.009 A 
ATOM      9  C   UNL     1      -7.781   0.406   0.192  0.00  0.00    +0.193 A 
ATOM     10  O   UNL     1      -8.413  -0.764  -0.073  0.00  0.00    -0.454 OA
ATOM     11  C   UNL     1      -5.354   1.171   0.561  0.00  0.00    +0.048 C 
ENDROOT
BRANCH   1  14
ATOM     12  C   UNL     1      -1.501  -1.848   0.048  0.00  0.00    +0.420 C 
ATOM     13  O   UNL     1      -0.528  -2.576   0.042  0.00  0.00    -0.225 OA
ATOM     14  N   UNL     1      -2.740  -2.378   0.059  0.00  0.00    -0.172 N 
ATOM     15  H   UNL     1      -2.855  -3.342   0.062  0.00  0.00    +0.181 HD
BRANCH  12  16
ATOM     16  O   UNL     1      -1.341  -0.511   0.043  0.00  0.00    -0.450 OA
BRANCH  16  18
ATOM     17  C   UNL     1      -0.019   1.512   0.028  0.00  0.00    +0.048 C 
ATOM     18  C   UNL     1       0.000  -0.018   0.031  0.00  0.00    +0.230 C 
ENDBRANCH  16  18
ENDBRANCH  12  16
ENDBRANCH   1  14
BRANCH   9  19
ATOM     19  C   UNL     1      -8.427   1.715   0.337  0.00  0.00    +0.284 C 
ATOM     20  O   UNL     1      -7.754   2.703   0.564  0.00  0.00    -0.266 OA
ATOM     21  N   UNL     1      -9.765   1.823   0.218  0.00  0.00    -0.279 N 
ATOM     22  H   UNL     1     -10.293   1.052  -0.042  0.00  0.00    +0.155 HD
BRANCH  21  23
ATOM     23  C   UNL     1     -10.392   3.047   0.470  0.00  0.00    +0.037 A 
ATOM     24  C   UNL     1      -9.790   3.979   1.305  0.00  0.00    +0.027 A 
ATOM     25  C   UNL     1     -10.412   5.187   1.552  0.00  0.00    -0.049 A 
ATOM     26  C   UNL     1     -11.634   5.469   0.968  0.00  0.00    +0.004 A 
ATOM     27  C   UNL     1     -12.236   4.543   0.136  0.00  0.00    +0.005 A 
ATOM     28  C   UNL     1     -11.616   3.336  -0.119  0.00  0.00    -0.029 A 
ATOM     29  C   UNL     1     -12.270   2.330  -1.032  0.00  0.00    +0.045 C 
ATOM     30  C   UNL     1      -9.760   6.199   2.459  0.00  0.00    +0.044 C 
ENDBRANCH  21  23
ENDBRANCH   9  19
TORSDOF 5
