REMARK  Name = ZINC13129778
REMARK  11 active torsions:
REMARK  status: ('A' for Active; 'I' for Inactive)
REMARK    1  A    between atoms: C_1  and  O_2
REMARK    2  A    between atoms: O_2  and  C_3
REMARK    3  A    between atoms: C_6  and  C_9
REMARK    4  A    between atoms: C_9  and  C_11
REMARK    5  A    between atoms: C_9  and  N_68
REMARK    6  A    between atoms: C_11  and  N_12
REMARK    7  A    between atoms: C_13  and  C_15
REMARK    8  A    between atoms: C_15  and  C_17
REMARK    9  A    between atoms: C_15  and  N_24
REMARK   10  A    between atoms: C_17  and  C_18
REMARK   11  A    between atoms: C_25  and  C_27
REMARK                            x       y       z     vdW  Elec       q    Type
REMARK                         _______ _______ _______ _____ _____    ______ ____
ROOT
ATOM      1  N   UNL     1      -4.272   6.149  -0.739  0.00  0.00    -0.315 N 
ATOM      2  C   UNL     1      -4.316   4.874  -1.173  0.00  0.00    +0.234 C 
ATOM      3  O   UNL     1      -5.375   4.381  -1.498  0.00  0.00    -0.274 OA
ATOM      4  H   UNL     1      -3.425   6.544  -0.479  0.00  0.00    +0.149 HD
ENDROOT
BRANCH   1   5
ATOM      5  C   UNL     1      -5.504   6.939  -0.660  0.00  0.00    +0.093 C 
BRANCH   5   6
ATOM      6  C   UNL     1      -5.202   8.291  -0.010  0.00  0.00    -0.020 C 
BRANCH   6  12
ATOM      7  C   UNL     1      -6.947   9.294  -1.355  0.00  0.00    -0.078 C 
ATOM      8  C   UNL     1      -8.289  10.026  -1.290  0.00  0.00    -0.019 C 
ATOM      9  C   UNL     1      -8.091  11.384  -0.611  0.00  0.00    -0.004 C 
ATOM     10  C   UNL     1      -7.498  11.168   0.783  0.00  0.00    -0.019 C 
ATOM     11  C   UNL     1      -6.178  10.403   0.658  0.00  0.00    -0.078 C 
ATOM     12  N   UNL     1      -6.441   9.096   0.020  0.00  0.00    +0.385 N 
ATOM     13  H   UNL     1      -7.151   8.595   0.567  0.00  0.00    -0.081 HD
ENDBRANCH   6  12
BRANCH   6  17
ATOM     14  C   UNL     1      -3.855   7.676   3.999  0.00  0.00    +0.120 A 
ATOM     15  C   UNL     1      -2.937   7.918   2.987  0.00  0.00    +0.046 A 
ATOM     16  C   UNL     1      -3.375   8.116   1.692  0.00  0.00    +0.005 A 
ATOM     17  C   UNL     1      -4.727   8.074   1.404  0.00  0.00    -0.059 A 
ATOM     18  C   UNL     1      -5.644   7.839   2.412  0.00  0.00    +0.005 A 
ATOM     19  C   UNL     1      -5.211   7.634   3.707  0.00  0.00    +0.046 A 
BRANCH  14  21
ATOM     20  C   UNL     1      -4.428   7.237   6.264  0.00  0.00    +0.277 C 
ATOM     21  O   UNL     1      -3.427   7.481   5.274  0.00  0.00    -0.495 OA
ENDBRANCH  14  21
ENDBRANCH   6  17
ENDBRANCH   5   6
ENDBRANCH   1   5
BRANCH   2  22
ATOM     22  C   UNL     1      -3.050   4.062  -1.255  0.00  0.00    +0.163 C 
BRANCH  22  23
ATOM     23  N   UNL     1      -3.361   2.720  -1.752  0.00  0.00    -0.297 N 
ATOM     24  C   UNL     1      -2.412   1.996  -2.377  0.00  0.00    +0.280 C 
ATOM     25  O   UNL     1      -1.296   2.457  -2.529  0.00  0.00    -0.267 OA
ATOM     26  H   UNL     1      -4.251   2.352  -1.631  0.00  0.00    +0.150 HD
BRANCH  24  27
ATOM     27  C   UNL     1      -2.724   0.652  -2.875  0.00  0.00    +0.189 A 
ATOM     28  C   UNL     1      -1.861  -0.184  -3.523  0.00  0.00    +0.054 A 
ATOM     29  C   UNL     1      -2.577  -1.357  -3.814  0.00  0.00    +0.042 A 
ATOM     30  C   UNL     1      -3.830  -1.186  -3.337  0.00  0.00    +0.196 A 
ATOM     31  O   UNL     1      -3.913   0.023  -2.768  0.00  0.00    -0.458 OA
ENDBRANCH  24  27
ENDBRANCH  22  23
BRANCH  22  32
ATOM     32  C   UNL     1      -2.420   3.958   0.136  0.00  0.00    +0.067 C 
BRANCH  32  33
ATOM     33  C   UNL     1      -1.093   3.252   0.035  0.00  0.00    -0.045 A 
ATOM     34  C   UNL     1      -1.031   1.875   0.151  0.00  0.00    +0.004 A 
ATOM     35  C   UNL     1       0.187   1.228   0.063  0.00  0.00    +0.000 A 
ATOM     36  C   UNL     1       1.343   1.956  -0.152  0.00  0.00    +0.000 A 
ATOM     37  C   UNL     1       1.280   3.332  -0.273  0.00  0.00    +0.000 A 
ATOM     38  C   UNL     1       0.063   3.979  -0.180  0.00  0.00    +0.004 A 
ENDBRANCH  32  33
ENDBRANCH  22  32
ENDBRANCH   2  22
TORSDOF 10
