REMARK  Name = ZINC39541423
REMARK  10 active torsions:
REMARK  status: ('A' for Active; 'I' for Inactive)
REMARK    1  A    between atoms: C_1  and  C_2
REMARK    2  A    between atoms: C_2  and  C_3
REMARK    3  A    between atoms: C_3  and  C_4
REMARK    4  A    between atoms: C_6  and  C_24
REMARK    5  A    between atoms: C_11  and  C_23
REMARK    6  A    between atoms: N_12  and  C_13
REMARK    7  A    between atoms: C_13  and  C_14
REMARK    8  A    between atoms: N_26  and  C_27
REMARK    9  A    between atoms: C_27  and  C_28
REMARK   10  A    between atoms: C_28  and  C_29
REMARK                            x       y       z     vdW  Elec       q    Type
REMARK                         _______ _______ _______ _____ _____    ______ ____
ROOT
ATOM      1  C   UNL     1       0.712  -1.930   1.339  0.00  0.00    +0.093 C 
ATOM      2  C   UNL     1       1.696  -2.552   2.338  0.00  0.00    +0.165 C 
ATOM      3  C   UNL     1       1.141  -2.401   3.732  0.00  0.00    +0.171 C 
ATOM      4  O   UNL     1       1.899  -2.343   4.680  0.00  0.00    -0.292 OA
ATOM      5  C   UNL     1      -0.242  -2.328   3.942  0.00  0.00    +0.065 C 
ATOM      6  C   UNL     1      -1.107  -2.368   2.901  0.00  0.00    +0.007 C 
ATOM      7  N   UNL     1      -0.629  -2.464   1.624  0.00  0.00    -0.325 N 
ATOM      8  C   UNL     1      -2.592  -2.308   3.149  0.00  0.00    +0.060 C 
ENDROOT
BRANCH   2   9
ATOM      9  C   UNL     1       3.024  -1.846   2.243  0.00  0.00    +0.225 C 
ATOM     10  O   UNL     1       3.238  -0.863   2.919  0.00  0.00    -0.275 OA
ATOM     11  N   UNL     1       3.974  -2.308   1.406  0.00  0.00    -0.314 N 
ATOM     12  H   UNL     1       3.804  -3.095   0.865  0.00  0.00    +0.149 HD
BRANCH  11  13
ATOM     13  C   UNL     1       5.266  -1.622   1.314  0.00  0.00    +0.112 C 
BRANCH  13  14
ATOM     14  C   UNL     1       6.155  -2.344   0.300  0.00  0.00    +0.093 C 
BRANCH  14  15
ATOM     15  C   UNL     1       7.484  -1.639   0.205  0.00  0.00    +0.110 A 
ATOM     16  N   UNL     1       7.639  -0.375  -0.063  0.00  0.00    -0.232 NA
ATOM     17  C   UNL     1       8.962  -0.069  -0.071  0.00  0.00    +0.089 A 
ATOM     18  C   UNL     1       9.676   1.110  -0.296  0.00  0.00    +0.030 A 
ATOM     19  C   UNL     1      11.041   1.101  -0.233  0.00  0.00    +0.002 A 
ATOM     20  C   UNL     1      11.729  -0.069   0.052  0.00  0.00    +0.002 A 
ATOM     21  C   UNL     1      11.044  -1.245   0.277  0.00  0.00    +0.028 A 
ATOM     22  C   UNL     1       9.658  -1.255   0.218  0.00  0.00    +0.066 A 
ATOM     23  N   UNL     1       8.695  -2.229   0.393  0.00  0.00    -0.342 N 
ATOM     24  H   UNL     1       8.853  -3.161   0.608  0.00  0.00    +0.167 HD
ENDBRANCH  14  15
ENDBRANCH  13  14
ENDBRANCH  11  13
ENDBRANCH   2   9
BRANCH   1  25
ATOM     25  C   UNL     1       0.706  -0.409   1.498  0.00  0.00    +0.023 C 
BRANCH  25  27
ATOM     26  C   UNL     1      -0.235   1.731   0.617  0.00  0.00    +0.004 C 
ATOM     27  C   UNL     1      -0.230   0.210   0.458  0.00  0.00    -0.002 C 
ENDBRANCH  25  27
ENDBRANCH   1  25
BRANCH   7  28
ATOM     28  C   UNL     1      -1.430  -3.084   0.565  0.00  0.00    +0.140 C 
BRANCH  28  29
ATOM     29  C   UNL     1      -1.135  -4.561   0.512  0.00  0.00    -0.027 A 
ATOM     30  C   UNL     1      -0.116  -5.033  -0.294  0.00  0.00    +0.009 A 
ATOM     31  C   UNL     1       0.159  -6.387  -0.346  0.00  0.00    +0.050 A 
ATOM     32  C   UNL     1      -0.589  -7.275   0.410  0.00  0.00    +0.166 A 
ATOM     33  C   UNL     1      -1.615  -6.800   1.222  0.00  0.00    +0.167 A 
ATOM     34  C   UNL     1      -1.881  -5.441   1.274  0.00  0.00    +0.054 A 
ATOM     35  O   UNL     1      -2.195  -7.860   1.858  0.00  0.00    -0.453 OA
ATOM     36  C   UNL     1      -1.782  -9.024   1.118  0.00  0.00    +0.466 C 
ATOM     37  O   UNL     1      -0.524  -8.633   0.537  0.00  0.00    -0.453 OA
ENDBRANCH  28  29
ENDBRANCH   7  28
TORSDOF 8
