REMARK  Name = ZINC63349597
REMARK  5 active torsions:
REMARK  status: ('A' for Active; 'I' for Inactive)
REMARK    1  A    between atoms: C_1  and  C_2
REMARK    2  A    between atoms: C_2  and  O_3
REMARK    3  A    between atoms: O_3  and  C_4
REMARK    4  A    between atoms: C_4  and  C_6
REMARK    5  A    between atoms: C_19  and  C_22
REMARK                            x       y       z     vdW  Elec       q    Type
REMARK                         _______ _______ _______ _____ _____    ______ ____
ROOT
ATOM      1  C   UNL     1      -2.602  -2.537   0.410  0.00  0.00    +0.168 C 
ATOM      2  C   UNL     1      -3.001  -2.264  -1.052  0.00  0.00    +0.063 C 
ATOM      3  C   UNL     1      -4.343  -2.922  -1.251  0.00  0.00    -0.035 C 
ATOM      4  C   UNL     1      -5.484  -2.485  -1.764  0.00  0.00    -0.001 A 
ATOM      5  C   UNL     1      -5.835  -1.235  -2.458  0.00  0.00    +0.010 A 
ATOM      6  C   UNL     1      -7.134  -1.102  -2.835  0.00  0.00    +0.001 A 
ATOM      7  C   UNL     1      -8.109  -2.075  -2.594  0.00  0.00    +0.002 A 
ATOM      8  C   UNL     1      -7.873  -3.259  -1.974  0.00  0.00    +0.026 A 
ATOM      9  C   UNL     1      -6.541  -3.519  -1.540  0.00  0.00    +0.043 A 
ATOM     10  N   UNL     1      -6.037  -4.566  -0.955  0.00  0.00    -0.376 N 
ATOM     11  C   UNL     1      -4.598  -4.359  -0.805  0.00  0.00    +0.128 C 
ATOM     12  C   UNL     1      -4.132  -4.441   0.649  0.00  0.00    +0.113 C 
ATOM     13  N   UNL     1      -2.740  -3.964   0.712  0.00  0.00    -0.295 NA
ATOM     14  H   UNL     1      -2.139  -4.518   0.121  0.00  0.00    +0.123 HD
ATOM     15  H   UNL     1      -6.531  -5.349  -0.666  0.00  0.00    +0.160 HD
ENDROOT
BRANCH  12  16
ATOM     16  C   UNL     1      -5.010  -3.574   1.514  0.00  0.00    -0.010 A 
ATOM     17  C   UNL     1      -5.202  -2.244   1.190  0.00  0.00    +0.008 A 
ATOM     18  C   UNL     1      -6.007  -1.448   1.982  0.00  0.00    +0.020 A 
ATOM     19  C   UNL     1      -6.622  -1.983   3.101  0.00  0.00    +0.042 A 
ATOM     20  C   UNL     1      -6.430  -3.313   3.426  0.00  0.00    +0.040 A 
ATOM     21  C   UNL     1      -5.628  -4.111   2.630  0.00  0.00    +0.047 A 
ATOM     22 CL   UNL     1      -5.392  -5.783   3.033  0.00  0.00    -0.083 Cl
ATOM     23 CL   UNL     1      -7.633  -0.983   4.097  0.00  0.00    -0.083 Cl
ENDBRANCH  12  16
BRANCH   1  24
ATOM     24  C   UNL     1      -1.171  -2.118   0.624  0.00  0.00    +0.325 C 
ATOM     25  O   UNL     1      -0.292  -2.947   0.627  0.00  0.00    -0.249 OA
BRANCH  24  26
ATOM     26  O   UNL     1      -0.871  -0.823   0.811  0.00  0.00    -0.464 OA
BRANCH  26  28
ATOM     27  C   UNL     1       0.650   1.014   1.203  0.00  0.00    +0.048 C 
ATOM     28  C   UNL     1       0.506  -0.497   1.008  0.00  0.00    +0.229 C 
ENDBRANCH  26  28
ENDBRANCH  24  26
ENDBRANCH   1  24
TORSDOF 4
