REMARK  Name = ZINC34673035
REMARK  5 active torsions:
REMARK  status: ('A' for Active; 'I' for Inactive)
REMARK    1  A    between atoms: C_1  and  N_2
REMARK    2  A    between atoms: N_2  and  C_3
REMARK    3  A    between atoms: C_3  and  C_5
REMARK    4  A    between atoms: C_3  and  C_19
REMARK    5  A    between atoms: C_8  and  C_10
REMARK                            x       y       z     vdW  Elec       q    Type
REMARK                         _______ _______ _______ _____ _____    ______ ____
ROOT
ATOM      1  C   UNL     1       0.819  -1.978  -1.155  0.00  0.00    -0.023 A 
ATOM      2  C   UNL     1       1.868  -2.757  -1.521  0.00  0.00    +0.010 A 
ATOM      3  C   UNL     1       1.768  -4.125  -1.387  0.00  0.00    +0.016 A 
ATOM      4  C   UNL     1       0.609  -4.654  -0.887  0.00  0.00    +0.022 A 
ATOM      5  S   UNL     1      -0.366  -3.188  -0.591  0.00  0.00    -0.095 S 
ENDROOT
BRANCH   4   6
ATOM      6  C   UNL     1       0.257  -6.070  -0.649  0.00  0.00    +0.025 A 
ATOM      7  C   UNL     1      -0.769  -6.671  -1.382  0.00  0.00    +0.052 A 
ATOM      8  C   UNL     1      -1.093  -7.994  -1.155  0.00  0.00    +0.040 A 
ATOM      9  C   UNL     1      -0.402  -8.725  -0.204  0.00  0.00    +0.044 A 
ATOM     10  C   UNL     1       0.616  -8.136   0.526  0.00  0.00    +0.040 A 
ATOM     11  C   UNL     1       0.954  -6.815   0.305  0.00  0.00    +0.052 A 
ATOM     12 CL   UNL     1       2.236  -6.081   1.215  0.00  0.00    -0.083 Cl
ATOM     13 CL   UNL     1      -0.815 -10.388   0.075  0.00  0.00    -0.083 Cl
ATOM     14 CL   UNL     1      -1.637  -5.755  -2.575  0.00  0.00    -0.083 Cl
ENDBRANCH   4   6
BRANCH   1  15
ATOM     15  C   UNL     1       0.690  -0.478  -1.207  0.00  0.00    -0.031 C 
BRANCH  15  17
ATOM     16  C   UNL     1      -0.018   1.465   0.010  0.00  0.00    -0.100 C 
ATOM     17  N   UNL     1       0.002  -0.004   0.002  0.00  0.00    +0.382 N 
ATOM     18  H   UNL     1       0.490  -0.338   0.820  0.00  0.00    -0.085 HD
ATOM     19  H   UNL     1      -0.945  -0.353   0.009  0.00  0.00    -0.085 HD
ENDBRANCH  15  17
BRANCH  15  20
ATOM     20  C   UNL     1      -0.118  -0.077  -2.443  0.00  0.00    -0.020 C 
ATOM     21  C   UNL     1      -0.791  -1.196  -3.240  0.00  0.00    +0.002 C 
ATOM     22  C   UNL     1       0.436  -0.482  -3.810  0.00  0.00    +0.002 C 
ENDBRANCH  15  20
ENDBRANCH   1  15
TORSDOF 4
