REMARK  Name = ZINC41585385
REMARK  7 active torsions:
REMARK  status: ('A' for Active; 'I' for Inactive)
REMARK    1  A    between atoms: C_1  and  C_2
REMARK    2  A    between atoms: C_4  and  O_36
REMARK    3  A    between atoms: C_5  and  C_22
REMARK    4  A    between atoms: C_11  and  C_12
REMARK    5  A    between atoms: C_16  and  N_18
REMARK    6  A    between atoms: C_22  and  N_23
REMARK    7  A    between atoms: N_26  and  C_29
REMARK                            x       y       z     vdW  Elec       q    Type
REMARK                         _______ _______ _______ _____ _____    ______ ____
ROOT
ATOM      1  C   UNL     1       0.373   1.463  -0.008  0.00  0.00    +0.045 C 
ATOM      2  C   UNL     1       0.065  -0.013  -0.002  0.00  0.00    -0.033 A 
ATOM      3  C   UNL     1      -0.154  -0.671  -1.179  0.00  0.00    +0.050 A 
ATOM      4  C   UNL     1      -0.439  -2.034  -1.175  0.00  0.00    +0.122 A 
ATOM      5  C   UNL     1      -0.502  -2.737   0.017  0.00  0.00    +0.020 A 
ATOM      6  C   UNL     1      -0.282  -2.084   1.222  0.00  0.00    +0.145 A 
ATOM      7  C   UNL     1       0.009  -0.710   1.206  0.00  0.00    +0.071 A 
ATOM      8  C   UNL     1       0.197  -0.308   2.611  0.00  0.00    +0.232 C 
ATOM      9  O   UNL     1       0.460   0.801   3.042  0.00  0.00    -0.283 OA
ATOM     10  C   UNL     1      -0.004  -1.548   3.379  0.00  0.00    +0.176 C 
ATOM     11  C   UNL     1       0.069  -1.676   4.727  0.00  0.00    +0.058 C 
ATOM     12  O   UNL     1      -0.287  -2.533   2.496  0.00  0.00    -0.451 OA
ENDROOT
BRANCH  11  13
ATOM     13  C   UNL     1      -0.018  -3.007   5.344  0.00  0.00    -0.019 A 
ATOM     14  C   UNL     1      -0.004  -4.156   4.545  0.00  0.00    +0.008 A 
ATOM     15  C   UNL     1      -0.085  -5.401   5.131  0.00  0.00    +0.003 A 
ATOM     16  C   UNL     1      -0.180  -5.516   6.508  0.00  0.00    +0.033 A 
ATOM     17  C   UNL     1      -0.194  -4.386   7.306  0.00  0.00    +0.127 A 
ATOM     18  C   UNL     1      -0.108  -3.134   6.735  0.00  0.00    +0.040 A 
BRANCH  17  19
ATOM     19  N   UNL     1      -0.297  -4.521   8.776  0.00  0.00    +0.056 N 
ATOM     20  O   UNL     1      -0.368  -5.619   9.278  0.00  0.00    -0.126 OA
ATOM     21  O   UNL     1      -0.309  -3.535   9.475  0.00  0.00    -0.126 OA
ENDBRANCH  17  19
ENDBRANCH  11  13
BRANCH   4  22
ATOM     22  O   UNL     1      -0.655  -2.678  -2.350  0.00  0.00    -0.506 OA
ATOM     23  H   UNL     1       0.144  -3.045  -2.751  0.00  0.00    +0.292 HD
ENDBRANCH   4  22
BRANCH   5  24
ATOM     24  C   UNL     1      -0.811  -4.213   0.005  0.00  0.00    -0.035 C 
BRANCH  24  25
ATOM     25  N   UNL     1       0.441  -4.974  -0.093  0.00  0.00    +0.385 N 
ATOM     26  C   UNL     1       1.084  -4.692  -1.383  0.00  0.00    -0.059 C 
ATOM     27  C   UNL     1       2.444  -5.395  -1.439  0.00  0.00    +0.086 C 
ATOM     28  N   UNL     1       2.241  -6.825  -1.163  0.00  0.00    -0.331 N 
ATOM     29  C   UNL     1       1.462  -7.197   0.029  0.00  0.00    +0.086 C 
ATOM     30  C   UNL     1       0.149  -6.409   0.016  0.00  0.00    -0.059 C 
ATOM     31  H   UNL     1       1.060  -4.700   0.655  0.00  0.00    -0.081 HD
BRANCH  28  32
ATOM     32  C   UNL     1       2.773  -7.804  -2.009  0.00  0.00    +0.065 A 
ATOM     33  C   UNL     1       4.044  -8.311  -1.773  0.00  0.00    +0.026 A 
ATOM     34  C   UNL     1       4.566  -9.278  -2.610  0.00  0.00    +0.002 A 
ATOM     35  C   UNL     1       3.826  -9.741  -3.682  0.00  0.00    +0.003 A 
ATOM     36  C   UNL     1       2.560  -9.238  -3.922  0.00  0.00    +0.040 A 
ATOM     37  C   UNL     1       2.028  -8.275  -3.084  0.00  0.00    +0.144 A 
ATOM     38  F   UNL     1       0.789  -7.788  -3.315  0.00  0.00    -0.204 F 
ENDBRANCH  28  32
ENDBRANCH  24  25
ENDBRANCH   5  24
TORSDOF 6
