REMARK  Name = ZINC02436699
REMARK  3 active torsions:
REMARK  status: ('A' for Active; 'I' for Inactive)
REMARK    1  A    between atoms: C_5  and  C_7
REMARK    2  A    between atoms: C_10  and  C_26
REMARK    3  A    between atoms: C_19  and  C_21
REMARK                            x       y       z     vdW  Elec       q    Type
REMARK                         _______ _______ _______ _____ _____    ______ ____
ROOT
ATOM      1  C   UNL     1       1.229  -2.186  -0.022  0.00  0.00    +0.144 C 
ATOM      2  C   UNL     1       0.520  -2.717   1.230  0.00  0.00    +0.059 C 
ATOM      3  C   UNL     1       0.294  -4.227   1.096  0.00  0.00    +0.106 C 
ATOM      4  N   UNL     1      -0.592  -4.470  -0.059  0.00  0.00    -0.307 N 
ATOM      5  C   UNL     1      -0.318  -3.739  -1.207  0.00  0.00    +0.216 A 
ATOM      6  N   UNL     1       0.529  -2.679  -1.208  0.00  0.00    -0.224 N 
ATOM      7  N   UNL     1       0.569  -2.198  -2.517  0.00  0.00    -0.131 NA
ATOM      8  C   UNL     1      -0.228  -2.965  -3.227  0.00  0.00    +0.243 A 
ATOM      9  N   UNL     1      -0.769  -3.899  -2.422  0.00  0.00    -0.180 NA
ATOM     10  N   UNL     1      -0.479  -2.828  -4.595  0.00  0.00    -0.247 N 
ATOM     11  C   UNL     1      -1.320  -3.679  -5.214  0.00  0.00    +0.286 C 
ATOM     12  O   UNL     1      -1.862  -4.567  -4.582  0.00  0.00    -0.266 OA
ATOM     13  H   UNL     1      -1.325  -5.104  -0.018  0.00  0.00    +0.149 HD
ATOM     14  H   UNL     1      -0.047  -2.120  -5.099  0.00  0.00    +0.158 HD
ENDROOT
BRANCH   1  19
ATOM     15  C   UNL     1      -0.017   1.378   0.010  0.00  0.00    +0.000 A 
ATOM     16  C   UNL     1       1.171   2.086   0.002  0.00  0.00    +0.001 A 
ATOM     17  C   UNL     1       2.377   1.412  -0.013  0.00  0.00    +0.020 A 
ATOM     18  C   UNL     1       2.397   0.029  -0.021  0.00  0.00    +0.046 A 
ATOM     19  C   UNL     1       1.208  -0.679  -0.013  0.00  0.00    -0.005 A 
ATOM     20  C   UNL     1       0.002  -0.004   0.002  0.00  0.00    +0.007 A 
ATOM     21 CL   UNL     1       3.912  -0.818  -0.041  0.00  0.00    -0.083 Cl
ENDBRANCH   1  19
BRANCH   3  22
ATOM     22  C   UNL     1       1.615  -4.919   0.879  0.00  0.00    -0.027 A 
ATOM     23  C   UNL     1       2.193  -4.925  -0.376  0.00  0.00    +0.007 A 
ATOM     24  C   UNL     1       3.405  -5.560  -0.576  0.00  0.00    +0.020 A 
ATOM     25  C   UNL     1       4.039  -6.189   0.481  0.00  0.00    +0.041 A 
ATOM     26  C   UNL     1       3.459  -6.182   1.738  0.00  0.00    +0.020 A 
ATOM     27  C   UNL     1       2.250  -5.542   1.937  0.00  0.00    +0.007 A 
ATOM     28 CL   UNL     1       5.560  -6.987   0.231  0.00  0.00    -0.084 Cl
ENDBRANCH   3  22
BRANCH  11  29
ATOM     29  C   UNL     1      -1.583  -3.536  -6.650  0.00  0.00    +0.189 A 
ATOM     30  C   UNL     1      -2.413  -4.323  -7.396  0.00  0.00    +0.054 A 
ATOM     31  C   UNL     1      -2.363  -3.831  -8.709  0.00  0.00    +0.042 A 
ATOM     32  C   UNL     1      -1.515  -2.779  -8.707  0.00  0.00    +0.196 A 
ATOM     33  O   UNL     1      -1.052  -2.601  -7.463  0.00  0.00    -0.458 OA
ENDBRANCH  11  29
TORSDOF 3
