REMARK  Name = ZINC02687901
REMARK  8 active torsions:
REMARK  status: ('A' for Active; 'I' for Inactive)
REMARK    1  A    between atoms: C_1  and  O_2
REMARK    2  A    between atoms: O_2  and  C_3
REMARK    3  A    between atoms: N_15  and  C_20
REMARK    4  A    between atoms: C_20  and  C_21
REMARK    5  A    between atoms: C_24  and  C_27
REMARK    6  A    between atoms: N_29  and  C_30
REMARK    7  A    between atoms: C_30  and  C_31
REMARK    8  A    between atoms: C_31  and  C_32
REMARK                            x       y       z     vdW  Elec       q    Type
REMARK                         _______ _______ _______ _____ _____    ______ ____
ROOT
ATOM      1  C   UNL     1      -7.315   5.334   7.637  0.00  0.00    +0.121 A 
ATOM      2  C   UNL     1      -6.670   6.564   7.747  0.00  0.00    +0.047 A 
ATOM      3  C   UNL     1      -5.960   7.080   6.689  0.00  0.00    +0.030 A 
ATOM      4  C   UNL     1      -5.879   6.374   5.491  0.00  0.00    +0.049 A 
ATOM      5  C   UNL     1      -6.530   5.131   5.375  0.00  0.00    +0.027 A 
ATOM      6  C   UNL     1      -7.248   4.618   6.460  0.00  0.00    +0.057 A 
ATOM      7  C   UNL     1      -6.263   4.647   4.021  0.00  0.00    +0.079 A 
ATOM      8  C   UNL     1      -5.481   5.604   3.401  0.00  0.00    +0.129 A 
ATOM      9  N   UNL     1      -5.254   6.640   4.291  0.00  0.00    -0.349 N 
ATOM     10  H   UNL     1      -4.733   7.435   4.099  0.00  0.00    +0.166 HD
ATOM     11  C   UNL     1      -5.074   5.381   2.060  0.00  0.00    +0.279 A 
ATOM     12  O   UNL     1      -4.384   6.202   1.483  0.00  0.00    -0.265 OA
ATOM     13  N   UNL     1      -5.457   4.252   1.431  0.00  0.00    -0.283 N 
ATOM     14  C   UNL     1      -6.222   3.337   2.051  0.00  0.00    +0.161 A 
ATOM     15  S   UNL     1      -6.688   1.923   1.207  0.00  0.00    -0.013 S 
ATOM     16  N   UNL     1      -6.625   3.508   3.325  0.00  0.00    -0.333 N 
ATOM     17  H   UNL     1      -7.173   2.833   3.753  0.00  0.00    +0.168 HD
ENDROOT
BRANCH   1  19
ATOM     18  C   UNL     1      -8.042   5.630   9.882  0.00  0.00    +0.277 C 
ATOM     19  O   UNL     1      -8.013   4.837   8.693  0.00  0.00    -0.495 OA
ENDBRANCH   1  19
BRANCH  13  20
ATOM     20  C   UNL     1      -5.037   4.021   0.047  0.00  0.00    +0.162 C 
BRANCH  20  21
ATOM     21  C   UNL     1      -3.721   3.285   0.037  0.00  0.00    -0.028 A 
ATOM     22  C   UNL     1      -3.706   1.901   0.030  0.00  0.00    +0.006 A 
ATOM     23  C   UNL     1      -2.506   1.222   0.021  0.00  0.00    +0.013 A 
ATOM     24  C   UNL     1      -1.305   1.933   0.019  0.00  0.00    +0.037 A 
ATOM     25  C   UNL     1      -1.327   3.329   0.032  0.00  0.00    +0.013 A 
ATOM     26  C   UNL     1      -2.534   3.996   0.036  0.00  0.00    +0.006 A 
BRANCH  24  27
ATOM     27  C   UNL     1      -0.014   1.211   0.009  0.00  0.00    +0.244 C 
ATOM     28  O   UNL     1       0.002  -0.004   0.002  0.00  0.00    -0.270 OA
ATOM     29  N   UNL     1       1.143   1.901   0.001  0.00  0.00    -0.311 N 
ATOM     30  H   UNL     1       1.130   2.871   0.007  0.00  0.00    +0.149 HD
BRANCH  29  31
ATOM     31  C   UNL     1       2.422   1.186  -0.015  0.00  0.00    +0.109 C 
BRANCH  31  32
ATOM     32  C   UNL     1       3.571   2.196  -0.020  0.00  0.00    +0.049 C 
BRANCH  32  33
ATOM     33  C   UNL     1       4.886   1.460  -0.037  0.00  0.00    -0.072 C 
ATOM     34  C   UNL     1       5.454   1.257  -1.182  0.00  0.00    -0.028 C 
ATOM     35  C   UNL     1       6.756   0.533  -1.359  0.00  0.00    +0.027 C 
ATOM     36  C   UNL     1       7.502   0.457  -0.025  0.00  0.00    +0.004 C 
ATOM     37  C   UNL     1       6.531  -0.056   1.046  0.00  0.00    +0.005 C 
ATOM     38  C   UNL     1       5.460   1.014   1.276  0.00  0.00    +0.030 C 
ENDBRANCH  32  33
ENDBRANCH  31  32
ENDBRANCH  29  31
ENDBRANCH  24  27
ENDBRANCH  20  21
ENDBRANCH  13  20
TORSDOF 7
