REMARK  Name = ZINC14986776
REMARK  8 active torsions:
REMARK  status: ('A' for Active; 'I' for Inactive)
REMARK    1  A    between atoms: C_1  and  C_2
REMARK    2  A    between atoms: N_4  and  C_5
REMARK    3  A    between atoms: C_8  and  C_10
REMARK    4  A    between atoms: C_10  and  N_68
REMARK    5  A    between atoms: C_17  and  C_19
REMARK    6  A    between atoms: N_21  and  C_22
REMARK    7  A    between atoms: C_22  and  C_23
REMARK    8  A    between atoms: C_23  and  C_28
REMARK                            x       y       z     vdW  Elec       q    Type
REMARK                         _______ _______ _______ _____ _____    ______ ____
ROOT
ATOM      1  C   UNL     1      -5.227  -0.869   2.218  0.00  0.00    -0.078 C 
ATOM      2  C   UNL     1      -5.532  -1.147   3.693  0.00  0.00    -0.011 C 
ATOM      3  C   UNL     1      -7.048  -1.294   3.861  0.00  0.00    -0.021 C 
ATOM      4  C   UNL     1      -7.706  -2.286   2.896  0.00  0.00    -0.011 C 
ATOM      5  C   UNL     1      -7.273  -1.941   1.468  0.00  0.00    -0.078 C 
ATOM      6  C   UNL     1      -7.844  -0.053   4.260  0.00  0.00    +0.020 C 
ATOM      7  C   UNL     1      -7.624  -1.181   5.271  0.00  0.00    +0.082 C 
ATOM      8  N   UNL     1      -5.795  -1.963   1.399  0.00  0.00    +0.383 N 
ATOM      9  H   UNL     1      -5.459  -2.861   1.765  0.00  0.00    -0.081 HD
ENDROOT
BRANCH   7  10
ATOM     10  C   UNL     1      -6.658  -0.926   6.399  0.00  0.00    +0.217 C 
ATOM     11  O   UNL     1      -5.472  -0.818   6.169  0.00  0.00    -0.275 OA
ATOM     12  N   UNL     1      -7.113  -0.817   7.663  0.00  0.00    -0.314 N 
ATOM     13  H   UNL     1      -8.061  -0.903   7.847  0.00  0.00    +0.149 HD
BRANCH  12  14
ATOM     14  C   UNL     1      -6.174  -0.569   8.760  0.00  0.00    +0.115 C 
BRANCH  14  15
ATOM     15  C   UNL     1      -6.952  -0.366  10.062  0.00  0.00    +0.011 C 
ATOM     16  C   UNL     1      -7.970   0.775   9.895  0.00  0.00    +0.013 C 
ATOM     17  C   UNL     1      -7.591   1.857  10.930  0.00  0.00    +0.001 C 
ATOM     18  C   UNL     1      -6.089   1.605  11.210  0.00  0.00    +0.001 C 
ATOM     19  C   UNL     1      -5.992   0.060  11.191  0.00  0.00    +0.013 C 
BRANCH  15  20
ATOM     20  C   UNL     1      -7.663  -1.640  10.441  0.00  0.00    -0.040 A 
ATOM     21  C   UNL     1      -7.452  -2.793   9.709  0.00  0.00    +0.004 A 
ATOM     22  C   UNL     1      -8.100  -3.963  10.060  0.00  0.00    +0.000 A 
ATOM     23  C   UNL     1      -8.966  -3.977  11.137  0.00  0.00    +0.000 A 
ATOM     24  C   UNL     1      -9.181  -2.822  11.866  0.00  0.00    +0.000 A 
ATOM     25  C   UNL     1      -8.529  -1.654  11.518  0.00  0.00    +0.004 A 
ENDBRANCH  15  20
ENDBRANCH  14  15
ENDBRANCH  12  14
ENDBRANCH   7  10
BRANCH   8  26
ATOM     26  C   UNL     1      -5.354  -1.823  -0.004  0.00  0.00    -0.036 C 
BRANCH  26  30
ATOM     27  C   UNL     1      -1.328  -0.664  -0.066  0.00  0.00    +0.072 A 
ATOM     28  C   UNL     1      -1.550  -2.008  -0.090  0.00  0.00    +0.031 A 
ATOM     29  C   UNL     1      -2.854  -2.469  -0.072  0.00  0.00    +0.011 A 
ATOM     30  C   UNL     1      -3.869  -1.572  -0.031  0.00  0.00    -0.025 A 
ATOM     31  S   UNL     1      -2.991  -0.017  -0.008  0.00  0.00    -0.080 S 
BRANCH  27  35
ATOM     32  C   UNL     1       1.202   2.122  -0.060  0.00  0.00    +0.109 C 
ATOM     33  C   UNL     1      -0.107   1.375  -0.048  0.00  0.00    +0.214 C 
ATOM     34  O   UNL     1      -1.154   1.987  -0.017  0.00  0.00    -0.276 OA
ATOM     35  N   UNL     1      -0.115   0.028  -0.077  0.00  0.00    -0.280 N 
ATOM     36  H   UNL     1       0.723  -0.461  -0.105  0.00  0.00    +0.155 HD
ENDBRANCH  27  35
ENDBRANCH  26  30
ENDBRANCH   8  26
TORSDOF 7
