REMARK  Name = ZINC65919738
REMARK  7 active torsions:
REMARK  status: ('A' for Active; 'I' for Inactive)
REMARK    1  A    between atoms: C_1  and  C_2
REMARK    2  A    between atoms: C_2  and  C_3
REMARK    3  A    between atoms: C_2  and  C_4
REMARK    4  A    between atoms: C_5  and  C_16
REMARK    5  A    between atoms: N_8  and  C_9
REMARK    6  A    between atoms: N_18  and  N_19
REMARK    7  A    between atoms: N_22  and  C_23
REMARK                            x       y       z     vdW  Elec       q    Type
REMARK                         _______ _______ _______ _____ _____    ______ ____
ROOT
ATOM      1  C   UNL     1      -1.453  -0.522   0.231  0.00  0.00    +0.060 A 
ATOM      2  C   UNL     1      -2.415  -0.103   1.129  0.00  0.00    +0.079 A 
ATOM      3  C   UNL     1      -3.656  -0.603   0.674  0.00  0.00    +0.148 A 
ATOM      4  N   UNL     1      -3.444  -1.275  -0.424  0.00  0.00    -0.174 NA
ATOM      5  N   UNL     1      -2.078  -1.234  -0.725  0.00  0.00    -0.236 N 
ENDROOT
BRANCH   5   6
ATOM      6  C   UNL     1      -1.464  -1.836  -1.832  0.00  0.00    +0.066 A 
ATOM      7  C   UNL     1      -0.418  -1.194  -2.481  0.00  0.00    +0.029 A 
ATOM      8  C   UNL     1       0.186  -1.790  -3.571  0.00  0.00    +0.022 A 
ATOM      9  C   UNL     1      -0.252  -3.024  -4.017  0.00  0.00    +0.041 A 
ATOM     10  C   UNL     1      -1.295  -3.665  -3.372  0.00  0.00    +0.022 A 
ATOM     11  C   UNL     1      -1.898  -3.077  -2.278  0.00  0.00    +0.029 A 
ATOM     12 CL   UNL     1       0.509  -3.770  -5.388  0.00  0.00    -0.084 Cl
ENDBRANCH   5   6
BRANCH   2  13
ATOM     13  C   UNL     1      -2.189   0.712   2.336  0.00  0.00    +0.263 C 
ATOM     14  O   UNL     1      -1.056   1.000   2.672  0.00  0.00    -0.269 OA
ATOM     15  N   UNL     1      -3.237   1.137   3.068  0.00  0.00    -0.229 N 
ATOM     16  H   UNL     1      -4.141   0.906   2.801  0.00  0.00    +0.173 HD
BRANCH  15  17
ATOM     17  N   UNL     1      -3.023   1.911   4.216  0.00  0.00    -0.218 N 
ATOM     18  C   UNL     1      -4.071   2.336   4.948  0.00  0.00    +0.316 C 
ATOM     19  O   UNL     1      -3.885   3.008   5.944  0.00  0.00    -0.251 OA
ATOM     20  N   UNL     1      -5.327   2.016   4.576  0.00  0.00    -0.295 N 
ATOM     21  H   UNL     1      -2.119   2.141   4.484  0.00  0.00    +0.174 HD
ATOM     22  H   UNL     1      -5.475   1.480   3.782  0.00  0.00    +0.151 HD
BRANCH  20  23
ATOM     23  C   UNL     1      -6.466   2.478   5.372  0.00  0.00    +0.074 C 
ATOM     24  C   UNL     1      -6.773   1.465   6.494  0.00  0.00    +0.022 C 
ATOM     25  C   UNL     1      -8.319   1.463   6.591  0.00  0.00    +0.002 C 
ATOM     26  C   UNL     1      -8.755   1.586   5.110  0.00  0.00    +0.002 C 
ATOM     27  C   UNL     1      -7.727   2.555   4.492  0.00  0.00    +0.022 C 
ENDBRANCH  20  23
ENDBRANCH  15  17
ENDBRANCH   2  13
BRANCH   1  29
ATOM     28  C   UNL     1       0.243   1.284   0.334  0.00  0.00    +0.014 C 
ATOM     29  C   UNL     1       0.024  -0.230   0.303  0.00  0.00    +0.032 C 
ATOM     30  C   UNL     1       0.605  -0.855   1.573  0.00  0.00    +0.014 C 
ENDBRANCH   1  29
TORSDOF 5
