REMARK  Name = ZINC39314995
REMARK  8 active torsions:
REMARK  status: ('A' for Active; 'I' for Inactive)
REMARK    1  A    between atoms: C_1  and  C_2
REMARK    2  A    between atoms: C_2  and  C_3
REMARK    3  A    between atoms: C_2  and  C_4
REMARK    4  A    between atoms: C_2  and  C_5
REMARK    5  A    between atoms: C_8  and  C_18
REMARK    6  A    between atoms: N_10  and  C_12
REMARK    7  A    between atoms: N_20  and  N_21
REMARK    8  A    between atoms: C_22  and  C_23
REMARK                            x       y       z     vdW  Elec       q    Type
REMARK                         _______ _______ _______ _____ _____    ______ ____
ROOT
ATOM      1  C   UNL     1       1.001  -0.422  -1.825  0.00  0.00    +0.081 C 
ATOM      2  C   UNL     1       1.044  -1.971  -1.725  0.00  0.00    +0.054 C 
ATOM      3  C   UNL     1       2.361  -2.283  -2.475  0.00  0.00    +0.180 C 
ATOM      4  N   UNL     1       3.125  -1.024  -2.465  0.00  0.00    -0.255 N 
ATOM      5  N   UNL     1       2.443  -0.072  -1.752  0.00  0.00    -0.236 NA
ATOM      6  H   UNL     1       2.611   0.850  -2.126  0.00  0.00    +0.145 HD
ENDROOT
BRANCH   4   7
ATOM      7  C   UNL     1       4.359  -0.829  -3.088  0.00  0.00    +0.045 A 
ATOM      8  C   UNL     1       4.956  -1.868  -3.792  0.00  0.00    +0.024 A 
ATOM      9  C   UNL     1       6.176  -1.671  -4.407  0.00  0.00    +0.002 A 
ATOM     10  C   UNL     1       6.805  -0.442  -4.324  0.00  0.00    +0.000 A 
ATOM     11  C   UNL     1       6.213   0.594  -3.625  0.00  0.00    +0.002 A 
ATOM     12  C   UNL     1       4.990   0.406  -3.011  0.00  0.00    +0.024 A 
ENDBRANCH   4   7
BRANCH   1  14
ATOM     13  C   UNL     1       0.275   1.707  -0.738  0.00  0.00    +0.012 C 
ATOM     14  C   UNL     1       0.231   0.181  -0.648  0.00  0.00    -0.021 C 
ATOM     15  C   UNL     1       0.872  -0.271   0.666  0.00  0.00    +0.012 C 
ATOM     16  C   UNL     1      -1.224  -0.291  -0.694  0.00  0.00    +0.012 C 
ENDBRANCH   1  14
BRANCH   3  17
ATOM     17  C   UNL     1       3.126  -3.365  -1.759  0.00  0.00    +0.254 C 
ATOM     18  O   UNL     1       4.055  -3.074  -1.035  0.00  0.00    -0.272 OA
ATOM     19  N   UNL     1       2.779  -4.657  -1.922  0.00  0.00    -0.205 N 
ATOM     20  H   UNL     1       2.036  -4.890  -2.501  0.00  0.00    +0.177 HD
BRANCH  19  21
ATOM     21  N   UNL     1       3.490  -5.664  -1.256  0.00  0.00    -0.188 NA
ATOM     22  C   UNL     1       3.085  -6.907  -1.326  0.00  0.00    +0.136 C 
BRANCH  22  23
ATOM     23  C   UNL     1       1.975  -7.240  -2.116  0.00  0.00    +0.000 C 
ATOM     24  C   UNL     1       1.412  -8.502  -2.288  0.00  0.00    +0.004 A 
ATOM     25  C   UNL     1       1.742  -9.773  -1.767  0.00  0.00    +0.010 A 
ATOM     26  C   UNL     1       1.001 -10.855  -2.115  0.00  0.00    +0.001 A 
ATOM     27  C   UNL     1      -0.091 -10.748  -2.982  0.00  0.00    +0.002 A 
ATOM     28  C   UNL     1      -0.465  -9.562  -3.518  0.00  0.00    +0.026 A 
ATOM     29  C   UNL     1       0.263  -8.384  -3.202  0.00  0.00    +0.043 A 
ATOM     30  N   UNL     1       0.105  -7.134  -3.584  0.00  0.00    -0.380 N 
ATOM     31  C   UNL     1       1.135  -6.302  -2.954  0.00  0.00    +0.150 C 
ATOM     32  H   UNL     1      -0.585  -6.814  -4.186  0.00  0.00    +0.160 HD
ENDBRANCH  22  23
ENDBRANCH  19  21
ENDBRANCH   3  17
TORSDOF 5
