REMARK  Name = ZINC38502690
REMARK  5 active torsions:
REMARK  status: ('A' for Active; 'I' for Inactive)
REMARK    1  A    between atoms: C_1  and  C_2
REMARK    2  A    between atoms: C_4  and  C_10
REMARK    3  A    between atoms: N_5  and  C_7
REMARK    4  A    between atoms: C_7  and  C_8
REMARK    5  A    between atoms: C_7  and  C_9
REMARK                            x       y       z     vdW  Elec       q    Type
REMARK                         _______ _______ _______ _____ _____    ______ ____
ROOT
ATOM      1  C   UNL     1       0.056  -3.374  -1.299  0.00  0.00    +0.268 C 
ATOM      2  O   UNL     1      -0.042  -3.391  -2.511  0.00  0.00    -0.268 OA
ATOM      3  N   UNL     1       0.181  -4.530  -0.616  0.00  0.00    -0.259 N 
ATOM      4  C   UNL     1       0.305  -5.730  -1.301  0.00  0.00    +0.166 A 
ATOM      5  N   UNL     1       0.330  -5.945  -2.598  0.00  0.00    -0.224 NA
ATOM      6  C   UNL     1       0.458  -7.171  -3.127  0.00  0.00    +0.089 A 
ATOM      7  C   UNL     1       0.567  -8.229  -2.212  0.00  0.00    +0.049 A 
ATOM      8  S   UNL     1       0.483  -7.385  -0.651  0.00  0.00    -0.051 S 
ATOM      9  C   UNL     1       0.699  -9.493  -2.919  0.00  0.00    -0.001 A 
ATOM     10  C   UNL     1       0.840 -10.839  -2.607  0.00  0.00    +0.010 A 
ATOM     11  C   UNL     1       0.940 -11.782  -3.627  0.00  0.00    +0.001 A 
ATOM     12  C   UNL     1       0.907 -11.454  -4.956  0.00  0.00    +0.008 A 
ATOM     13  C   UNL     1       0.765 -10.104  -5.318  0.00  0.00    -0.017 A 
ATOM     14  C   UNL     1       0.667  -9.170  -4.284  0.00  0.00    -0.000 A 
ATOM     15  C   UNL     1       0.523  -7.795  -4.480  0.00  0.00    +0.010 A 
ATOM     16  C   UNL     1       0.477  -7.348  -5.788  0.00  0.00    +0.011 A 
ATOM     17  C   UNL     1       0.574  -8.267  -6.834  0.00  0.00    +0.001 A 
ATOM     18  C   UNL     1       0.715  -9.613  -6.634  0.00  0.00    +0.008 A 
ATOM     19  H   UNL     1       0.183  -4.522   0.354  0.00  0.00    +0.157 HD
ENDROOT
BRANCH   1  23
ATOM     20  C   UNL     1       0.005   0.185   2.314  0.00  0.00    +0.067 C 
ATOM     21  C   UNL     1       0.015  -0.528   0.986  0.00  0.00    +0.061 A 
ATOM     22  C   UNL     1       0.036  -1.911   0.795  0.00  0.00    +0.057 A 
ATOM     23  C   UNL     1       0.037  -2.092  -0.577  0.00  0.00    +0.124 A 
ATOM     24  N   UNL     1       0.016  -0.842  -1.127  0.00  0.00    -0.256 N 
ATOM     25  N   UNL     1      -0.002   0.040  -0.193  0.00  0.00    -0.176 NA
BRANCH  24  26
ATOM     26  C   UNL     1       0.008  -0.551  -2.563  0.00  0.00    +0.102 C 
ATOM     27  C   UNL     1      -1.187   0.344  -2.896  0.00  0.00    +0.032 C 
ATOM     28  C   UNL     1       1.305   0.166  -2.945  0.00  0.00    +0.032 C 
ENDBRANCH  24  26
ENDBRANCH   1  23
TORSDOF 2
