REMARK  Name = ZINC16969421
REMARK  6 active torsions:
REMARK  status: ('A' for Active; 'I' for Inactive)
REMARK    1  A    between atoms: C_1  and  C_2
REMARK    2  A    between atoms: C_3  and  C_11
REMARK    3  A    between atoms: C_7  and  N_8
REMARK    4  A    between atoms: N_13  and  C_14
REMARK    5  A    between atoms: C_14  and  C_15
REMARK    6  A    between atoms: C_15  and  C_21
REMARK                            x       y       z     vdW  Elec       q    Type
REMARK                         _______ _______ _______ _____ _____    ______ ____
ROOT
ATOM      1  C   UNL     1       2.161   6.242   1.522  0.00  0.00    +0.244 C 
ATOM      2  O   UNL     1       2.650   5.475   0.715  0.00  0.00    -0.270 OA
ATOM      3  N   UNL     1       0.950   6.784   1.288  0.00  0.00    -0.310 N 
ATOM      4  H   UNL     1       0.560   7.396   1.932  0.00  0.00    +0.149 HD
ENDROOT
BRANCH   1   7
ATOM      5  C   UNL     1       4.872   5.295   1.879  0.00  0.00    +0.047 C 
ATOM      6  C   UNL     1       4.205   6.129   2.942  0.00  0.00    -0.008 A 
ATOM      7  C   UNL     1       2.897   6.580   2.759  0.00  0.00    +0.042 A 
ATOM      8  C   UNL     1       2.286   7.352   3.748  0.00  0.00    +0.013 A 
ATOM      9  C   UNL     1       2.978   7.664   4.901  0.00  0.00    +0.003 A 
ATOM     10  C   UNL     1       4.274   7.214   5.076  0.00  0.00    +0.033 A 
ATOM     11  C   UNL     1       4.886   6.448   4.099  0.00  0.00    +0.130 A 
BRANCH  11  12
ATOM     12  N   UNL     1       6.273   5.971   4.295  0.00  0.00    +0.057 N 
ATOM     13  O   UNL     1       6.917   6.351   5.256  0.00  0.00    -0.126 OA
ATOM     14  O   UNL     1       6.769   5.197   3.496  0.00  0.00    -0.126 OA
ENDBRANCH  11  12
ENDBRANCH   1   7
BRANCH   3  15
ATOM     15  C   UNL     1       0.221   6.449   0.062  0.00  0.00    +0.116 C 
BRANCH  15  16
ATOM     16  C   UNL     1      -1.166   7.093   0.101  0.00  0.00    +0.015 C 
ATOM     17  C   UNL     1      -1.971   6.651  -1.125  0.00  0.00    +0.041 C 
ATOM     18  C   UNL     1      -1.272   7.157  -2.392  0.00  0.00    +0.160 C 
ATOM     19  O   UNL     1      -1.143   8.579  -2.329  0.00  0.00    -0.380 OA
ATOM     20  C   UNL     1      -0.362   9.046  -1.228  0.00  0.00    +0.160 C 
ATOM     21  C   UNL     1      -1.024   8.618   0.085  0.00  0.00    +0.041 C 
BRANCH  16  22
ATOM     22  C   UNL     1      -1.885   6.667   1.356  0.00  0.00    -0.039 A 
ATOM     23  C   UNL     1      -2.375   7.621   2.228  0.00  0.00    +0.005 A 
ATOM     24  C   UNL     1      -3.039   7.231   3.376  0.00  0.00    +0.020 A 
ATOM     25  C   UNL     1      -3.203   5.887   3.658  0.00  0.00    +0.041 A 
ATOM     26  C   UNL     1      -2.706   4.933   2.787  0.00  0.00    +0.020 A 
ATOM     27  C   UNL     1      -2.047   5.324   1.637  0.00  0.00    +0.005 A 
ATOM     28 CL   UNL     1      -4.031   5.396   5.103  0.00  0.00    -0.084 Cl
ENDBRANCH  16  22
ENDBRANCH  15  16
ENDBRANCH   3  15
TORSDOF 5
