REMARK  Name = ZINC22218854
REMARK  4 active torsions:
REMARK  status: ('A' for Active; 'I' for Inactive)
REMARK    1  A    between atoms: C_1  and  C_2
REMARK    2  A    between atoms: C_7  and  C_13
REMARK    3  A    between atoms: C_13  and  S_14
REMARK    4  A    between atoms: S_14  and  C_15
REMARK                            x       y       z     vdW  Elec       q    Type
REMARK                         _______ _______ _______ _____ _____    ______ ____
ROOT
ATOM      1  C   UNL     1      -0.018   1.503   0.010  0.00  0.00    +0.045 C 
ATOM      2  C   UNL     1       0.002  -0.004   0.002  0.00  0.00    -0.034 A 
ATOM      3  C   UNL     1       0.006  -0.697  -1.217  0.00  0.00    +0.008 A 
ATOM      4  C   UNL     1       0.025  -2.059  -1.216  0.00  0.00    +0.047 A 
ATOM      5  C   UNL     1       0.040  -2.750   0.010  0.00  0.00    +0.141 A 
ATOM      6  N   UNL     1       0.059  -4.082   0.013  0.00  0.00    -0.233 NA
ATOM      7  C   UNL     1       0.074  -4.768   1.145  0.00  0.00    +0.059 A 
ATOM      8  C   UNL     1       0.071  -4.104   2.356  0.00  0.00    +0.094 A 
ATOM      9  C   UNL     1       0.051  -2.704   2.361  0.00  0.00    +0.259 A 
ATOM     10  O   UNL     1       0.048  -2.088   3.415  0.00  0.00    -0.267 OA
ATOM     11  N   UNL     1       0.037  -2.046   1.182  0.00  0.00    -0.268 N 
ATOM     12  C   UNL     1       0.022  -0.685   1.170  0.00  0.00    +0.099 A 
ENDROOT
BRANCH   7  13
ATOM     13  C   UNL     1       0.095  -6.274   1.112  0.00  0.00    +0.134 C 
BRANCH  13  14
ATOM     14  S   UNL     1      -1.551  -6.892   0.665  0.00  0.00    -0.061 S 
BRANCH  14  15
ATOM     15  C   UNL     1      -1.365  -8.644   0.669  0.00  0.00    +0.258 A 
ATOM     16  N   UNL     1      -0.255  -9.280   0.950  0.00  0.00    -0.203 NA
ATOM     17  C   UNL     1      -0.484 -10.618   0.855  0.00  0.00    +0.110 A 
ATOM     18  C   UNL     1       0.316 -11.747   1.041  0.00  0.00    +0.033 A 
ATOM     19  C   UNL     1      -0.223 -13.003   0.865  0.00  0.00    +0.022 A 
ATOM     20  C   UNL     1      -1.555 -13.151   0.504  0.00  0.00    +0.045 A 
ATOM     21  C   UNL     1      -2.357 -12.041   0.318  0.00  0.00    +0.068 A 
ATOM     22  C   UNL     1      -1.830 -10.772   0.491  0.00  0.00    +0.158 A 
ATOM     23  O   UNL     1      -2.343  -9.524   0.391  0.00  0.00    -0.431 OA
ATOM     24 CL   UNL     1      -2.218 -14.740   0.285  0.00  0.00    -0.083 Cl
ENDBRANCH  14  15
ENDBRANCH  13  14
ENDBRANCH   7  13
TORSDOF 3
