REMARK  Name = ZINC28256320
REMARK  9 active torsions:
REMARK  status: ('A' for Active; 'I' for Inactive)
REMARK    1  A    between atoms: C_1  and  C_2
REMARK    2  A    between atoms: C_2  and  C_3
REMARK    3  A    between atoms: C_2  and  C_4
REMARK    4  A    between atoms: C_2  and  N_35
REMARK    5  A    between atoms: N_6  and  C_7
REMARK    6  A    between atoms: C_7  and  C_9
REMARK    7  A    between atoms: C_7  and  C_17
REMARK    8  A    between atoms: C_9  and  C_10
REMARK    9  A    between atoms: C_10  and  C_11
REMARK                            x       y       z     vdW  Elec       q    Type
REMARK                         _______ _______ _______ _____ _____    ______ ____
ROOT
ATOM      1  C   UNL     1      -0.729   1.579   1.267  0.00  0.00    +0.159 C 
ENDROOT
BRANCH   1   2
ATOM      2  C   UNL     1       0.067   1.185   2.485  0.00  0.00    +0.236 C 
ATOM      3  O   UNL     1      -0.260   0.214   3.134  0.00  0.00    -0.274 OA
ATOM      4  N   UNL     1       1.141   1.911   2.852  0.00  0.00    -0.300 N 
ATOM      5  C   UNL     1       1.553   3.086   2.072  0.00  0.00    +0.109 C 
ATOM      6  C   UNL     1       1.659   4.289   3.020  0.00  0.00    +0.032 C 
ATOM      7  C   UNL     1       2.604   3.939   4.174  0.00  0.00    +0.020 C 
ATOM      8  C   UNL     1       2.031   2.755   4.961  0.00  0.00    +0.032 C 
ATOM      9  C   UNL     1       1.926   1.538   4.037  0.00  0.00    +0.109 C 
ATOM     10  C   UNL     1       3.971   3.521   3.583  0.00  0.00    +0.183 C 
ATOM     11  S   UNL     1       5.082   4.159   4.905  0.00  0.00    -0.002 S 
ATOM     12  O   UNL     1       6.178   4.873   4.350  0.00  0.00    -0.169 OA
ATOM     13  O   UNL     1       5.268   3.189   5.926  0.00  0.00    -0.169 OA
ATOM     14  C   UNL     1       3.998   5.390   5.596  0.00  0.00    +0.092 A 
ATOM     15  C   UNL     1       2.733   5.130   5.093  0.00  0.00    -0.015 A 
ATOM     16  C   UNL     1       1.703   5.992   5.484  0.00  0.00    +0.006 A 
ATOM     17  C   UNL     1       1.940   7.043   6.338  0.00  0.00    +0.000 A 
ATOM     18  C   UNL     1       3.209   7.275   6.835  0.00  0.00    +0.002 A 
ATOM     19  C   UNL     1       4.242   6.435   6.455  0.00  0.00    +0.027 A 
ENDBRANCH   1   2
BRANCH   1  22
ATOM     20  C   UNL     1      -2.194  -0.364   1.393  0.00  0.00    +0.202 C 
ATOM     21  O   UNL     1      -1.209  -1.071   1.383  0.00  0.00    -0.277 OA
ATOM     22  N   UNL     1      -2.062   0.977   1.338  0.00  0.00    -0.305 N 
ATOM     23  H   UNL     1      -2.956   1.618   1.347  0.00  0.00    +0.149 HD
BRANCH  20  25
ATOM     24  C   UNL     1      -4.134  -1.132   0.053  0.00  0.00    -0.001 C 
ATOM     25  C   UNL     1      -3.566  -0.984   1.466  0.00  0.00    +0.001 C 
ATOM     26  C   UNL     1      -3.468  -2.361   2.124  0.00  0.00    -0.001 C 
BRANCH  25  27
ATOM     27  N   UNL     1      -4.450  -0.122   2.262  0.00  0.00    +0.387 N 
ATOM     28  H   UNL     1      -4.041  -0.016   3.277  0.00  0.00    -0.089 HD
ATOM     29  H   UNL     1      -5.452  -0.575   2.315  0.00  0.00    -0.089 HD
ATOM     30  H   UNL     1      -4.520   0.868   1.789  0.00  0.00    -0.089 HD
ENDBRANCH  25  27
ENDBRANCH  20  25
ENDBRANCH   1  22
BRANCH   1  31
ATOM     31  C   UNL     1      -0.013   1.086   0.008  0.00  0.00    +0.032 C 
BRANCH  31  32
ATOM     32  C   UNL     1      -0.753   1.593  -1.232  0.00  0.00    +0.006 C 
BRANCH  32  33
ATOM     33  C   UNL     1      -0.037   1.099  -2.490  0.00  0.00    -0.011 C 
ATOM     34  C   UNL     1       1.356   1.729  -2.565  0.00  0.00    +0.003 C 
ATOM     35  C   UNL     1       2.072   1.235  -3.824  0.00  0.00    +0.000 C 
ATOM     36  C   UNL     1       1.265   1.636  -5.060  0.00  0.00    +0.000 C 
ATOM     37  C   UNL     1      -0.128   1.006  -4.985  0.00  0.00    +0.000 C 
ATOM     38  C   UNL     1      -0.844   1.500  -3.727  0.00  0.00    +0.003 C 
ENDBRANCH  32  33
ENDBRANCH  31  32
ENDBRANCH   1  31
TORSDOF 7
