REMARK  Name = ZINC65025212
REMARK  11 active torsions:
REMARK  status: ('A' for Active; 'I' for Inactive)
REMARK    1  A    between atoms: C_1  and  C_2
REMARK    2  A    between atoms: C_2  and  C_3
REMARK    3  A    between atoms: C_3  and  N_4
REMARK    4  A    between atoms: N_4  and  C_5
REMARK    5  A    between atoms: C_5  and  C_6
REMARK    6  A    between atoms: C_6  and  C_7
REMARK    7  A    between atoms: C_8  and  C_10
REMARK    8  A    between atoms: C_12  and  N_22
REMARK    9  A    between atoms: C_15  and  N_16
REMARK   10  A    between atoms: N_22  and  S_23
REMARK   11  A    between atoms: S_23  and  C_26
REMARK                            x       y       z     vdW  Elec       q    Type
REMARK                         _______ _______ _______ _____ _____    ______ ____
ROOT
ATOM      1  C   UNL     1      -1.663  -1.795  -2.344  0.00  0.00    +0.079 A 
ATOM      2  C   UNL     1      -1.449  -0.411  -2.375  0.00  0.00    +0.042 A 
ATOM      3  C   UNL     1      -1.351   0.212  -3.612  0.00  0.00    +0.067 A 
ATOM      4  C   UNL     1      -1.467  -0.548  -4.769  0.00  0.00    +0.137 A 
ATOM      5  N   UNL     1      -1.668  -1.850  -4.712  0.00  0.00    -0.238 NA
ATOM      6  C   UNL     1      -1.763  -2.492  -3.559  0.00  0.00    +0.133 A 
ENDROOT
BRANCH   6   7
ATOM      7  N   UNL     1      -1.969  -3.862  -3.550  0.00  0.00    -0.318 N 
ATOM      8  C   UNL     1      -3.323  -4.424  -3.668  0.00  0.00    +0.087 C 
ATOM      9  C   UNL     1      -3.314  -5.488  -4.771  0.00  0.00    -0.063 C 
ATOM     10  N   UNL     1      -2.269  -6.479  -4.484  0.00  0.00    +0.381 N 
ATOM     11  C   UNL     1      -0.947  -5.842  -4.538  0.00  0.00    -0.063 C 
ATOM     12  C   UNL     1      -0.839  -4.796  -3.429  0.00  0.00    +0.087 C 
ATOM     13  H   UNL     1      -2.417  -6.866  -3.564  0.00  0.00    -0.086 HD
ATOM     14  H   UNL     1      -2.312  -7.219  -5.168  0.00  0.00    -0.086 HD
ENDBRANCH   6   7
BRANCH   1  16
ATOM     15  N   UNL     1      -0.771  -2.440  -0.161  0.00  0.00    -0.297 N 
ATOM     16  C   UNL     1      -1.774  -2.508  -1.059  0.00  0.00    +0.250 C 
ATOM     17  O   UNL     1      -2.772  -3.157  -0.808  0.00  0.00    -0.270 OA
BRANCH  15  18
ATOM     18  C   UNL     1       0.388  -1.583  -0.421  0.00  0.00    +0.108 C 
BRANCH  18  20
ATOM     19  C   UNL     1       2.717  -1.521  -1.324  0.00  0.00    +0.005 C 
ATOM     20  C   UNL     1       1.506  -2.416  -1.052  0.00  0.00    +0.016 C 
ENDBRANCH  18  20
ENDBRANCH  15  18
BRANCH  15  21
ATOM     21  C   UNL     1      -0.841  -3.223   1.075  0.00  0.00    +0.108 C 
BRANCH  21  22
ATOM     22  C   UNL     1      -1.528  -2.397   2.164  0.00  0.00    +0.016 C 
ATOM     23  C   UNL     1      -1.601  -3.215   3.455  0.00  0.00    +0.005 C 
ENDBRANCH  21  22
ENDBRANCH  15  21
ENDBRANCH   1  16
BRANCH   3  24
ATOM     24  N   UNL     1      -1.138   1.594  -3.692  0.00  0.00    -0.215 N 
ATOM     25  H   UNL     1      -1.629   2.195  -3.110  0.00  0.00    +0.174 HD
BRANCH  24  26
ATOM     26  S   UNL     1      -0.048   2.203  -4.780  0.00  0.00    +0.072 S 
ATOM     27  O   UNL     1      -0.397   1.666  -6.048  0.00  0.00    -0.150 OA
ATOM     28  O   UNL     1       0.029   3.601  -4.539  0.00  0.00    -0.150 OA
BRANCH  26  29
ATOM     29  C   UNL     1       1.529   1.533  -4.367  0.00  0.00    +0.109 A 
ATOM     30  C   UNL     1       2.300   2.128  -3.385  0.00  0.00    +0.029 A 
ATOM     31  C   UNL     1       3.534   1.600  -3.069  0.00  0.00    +0.006 A 
ATOM     32  C   UNL     1       4.010   0.474  -3.728  0.00  0.00    -0.044 A 
ATOM     33  C   UNL     1       3.240  -0.122  -4.702  0.00  0.00    -0.042 A 
ATOM     34  C   UNL     1       1.996   0.410  -5.017  0.00  0.00    +0.032 A 
ATOM     35  C   UNL     1       3.685  -1.354  -5.446  0.00  0.00    +0.035 C 
ATOM     36  C   UNL     1       5.192  -1.553  -5.303  0.00  0.00    +0.005 C 
ATOM     37  C   UNL     1       5.550  -1.486  -3.813  0.00  0.00    +0.005 C 
ATOM     38  C   UNL     1       5.369  -0.045  -3.339  0.00  0.00    +0.035 C 
ENDBRANCH  26  29
ENDBRANCH  24  26
ENDBRANCH   3  24
TORSDOF 9
