REMARK  Name = ZINC44424513
REMARK  5 active torsions:
REMARK  status: ('A' for Active; 'I' for Inactive)
REMARK    1  A    between atoms: C_1  and  C_2
REMARK    2  A    between atoms: C_6  and  N_8
REMARK    3  A    between atoms: C_10  and  C_15
REMARK    4  A    between atoms: C_17  and  C_20
REMARK    5  A    between atoms: C_20  and  C_21
REMARK                            x       y       z     vdW  Elec       q    Type
REMARK                         _______ _______ _______ _____ _____    ______ ____
ROOT
ATOM      1  C   UNL     1       1.594  -4.184   5.396  0.00  0.00    +0.177 A 
ATOM      2  N   UNL     1       2.381  -5.134   5.915  0.00  0.00    -0.195 NA
ATOM      3  C   UNL     1       2.894  -4.724   7.041  0.00  0.00    +0.232 A 
ATOM      4  O   UNL     1       2.446  -3.486   7.281  0.00  0.00    -0.338 OA
ATOM      5  N   UNL     1       1.602  -3.151   6.189  0.00  0.00    -0.061 NA
ENDROOT
BRANCH   1   8
ATOM      6  N   UNL     1       0.050  -2.796   2.396  0.00  0.00    -0.268 N 
ATOM      7  C   UNL     1       1.271  -3.194   3.107  0.00  0.00    +0.125 C 
ATOM      8  C   UNL     1       0.829  -4.290   4.103  0.00  0.00    +0.087 C 
ATOM      9  C   UNL     1      -0.664  -3.943   4.312  0.00  0.00    +0.109 C 
ATOM     10  C   UNL     1      -1.051  -3.194   3.056  0.00  0.00    +0.221 C 
ATOM     11  O   UNL     1      -2.190  -2.985   2.695  0.00  0.00    -0.275 OA
BRANCH   6  17
ATOM     12  C   UNL     1      -0.018   1.503   0.010  0.00  0.00    +0.044 C 
ATOM     13  C   UNL     1       0.002  -0.004   0.002  0.00  0.00    -0.049 A 
ATOM     14  C   UNL     1       0.006  -0.688  -1.200  0.00  0.00    +0.006 A 
ATOM     15  C   UNL     1       0.024  -2.070  -1.213  0.00  0.00    +0.040 A 
ATOM     16  C   UNL     1       0.039  -2.774  -0.022  0.00  0.00    +0.145 A 
ATOM     17  C   UNL     1       0.035  -2.088   1.188  0.00  0.00    +0.072 A 
ATOM     18  C   UNL     1       0.023  -0.700   1.195  0.00  0.00    +0.029 A 
ATOM     19  F   UNL     1       0.056  -4.124  -0.034  0.00  0.00    -0.204 F 
ENDBRANCH   6  17
ENDBRANCH   1   8
BRANCH   3  20
ATOM     20  C   UNL     1       3.831  -5.510   7.922  0.00  0.00    +0.136 C 
BRANCH  20  21
ATOM     21  C   UNL     1       5.255  -5.234   7.514  0.00  0.00    -0.013 A 
ATOM     22  C   UNL     1       5.999  -5.964   6.669  0.00  0.00    +0.087 A 
ATOM     23  N   UNL     1       7.242  -5.407   6.541  0.00  0.00    -0.360 N 
ATOM     24  H   UNL     1       7.955  -5.757   5.984  0.00  0.00    +0.165 HD
ATOM     25  C   UNL     1       7.330  -4.275   7.321  0.00  0.00    +0.047 A 
ATOM     26  C   UNL     1       6.087  -4.114   7.960  0.00  0.00    +0.003 A 
ATOM     27  C   UNL     1       5.881  -3.033   8.819  0.00  0.00    +0.010 A 
ATOM     28  C   UNL     1       6.888  -2.135   9.033  0.00  0.00    +0.001 A 
ATOM     29  C   UNL     1       8.115  -2.287   8.402  0.00  0.00    +0.002 A 
ATOM     30  C   UNL     1       8.343  -3.352   7.557  0.00  0.00    +0.026 A 
ENDBRANCH  20  21
ENDBRANCH   3  20
TORSDOF 4
