REMARK  Name = ZINC33115392
REMARK  8 active torsions:
REMARK  status: ('A' for Active; 'I' for Inactive)
REMARK    1  A    between atoms: C_1  and  C_2
REMARK    2  A    between atoms: C_5  and  S_9
REMARK    3  A    between atoms: C_7  and  C_8
REMARK    4  A    between atoms: S_9  and  N_12
REMARK    5  A    between atoms: N_12  and  C_13
REMARK    6  A    between atoms: C_16  and  C_19
REMARK    7  A    between atoms: C_19  and  C_22
REMARK    8  A    between atoms: N_24  and  C_25
REMARK                            x       y       z     vdW  Elec       q    Type
REMARK                         _______ _______ _______ _____ _____    ______ ____
ROOT
ATOM      1  C   UNL     1       2.313   0.073  -0.032  0.00  0.00    +0.048 A 
ATOM      2  C   UNL     1       1.219  -0.375  -0.761  0.00  0.00    +0.025 A 
ATOM      3  C   UNL     1       0.025   0.317  -0.706  0.00  0.00    +0.006 A 
ATOM      4  C   UNL     1      -0.082   1.454   0.073  0.00  0.00    -0.032 A 
ATOM      5  C   UNL     1       1.005   1.903   0.800  0.00  0.00    +0.006 A 
ATOM      6  C   UNL     1       2.202   1.216   0.750  0.00  0.00    +0.025 A 
ENDROOT
BRANCH   4   7
ATOM      7  C   UNL     1      -1.385   2.209   0.126  0.00  0.00    +0.072 C 
ATOM      8  C   UNL     1      -1.398   3.635  -0.430  0.00  0.00    +0.022 C 
ATOM      9  C   UNL     1      -1.472   3.402   1.081  0.00  0.00    +0.022 C 
BRANCH   7  10
ATOM     10  C   UNL     1      -2.627   1.377  -0.063  0.00  0.00    +0.224 C 
ATOM     11  O   UNL     1      -3.325   1.542  -1.041  0.00  0.00    -0.275 OA
ATOM     12  N   UNL     1      -2.963   0.449   0.855  0.00  0.00    -0.312 N 
ATOM     13  H   UNL     1      -2.375   0.353   1.780  0.00  0.00    +0.149 HD
BRANCH  12  14
ATOM     14  C   UNL     1      -4.109  -0.432   0.621  0.00  0.00    +0.073 C 
ATOM     15  C   UNL     1      -5.401   0.313   1.015  0.00  0.00    +0.022 C 
ATOM     16  C   UNL     1      -6.563  -0.347   0.324  0.00  0.00    +0.002 C 
ATOM     17  C   UNL     1      -7.247  -1.409   1.205  0.00  0.00    +0.000 C 
ATOM     18  C   UNL     1      -6.241  -2.281   1.980  0.00  0.00    +0.000 C 
ATOM     19  C   UNL     1      -5.057  -2.677   1.141  0.00  0.00    +0.002 C 
ATOM     20  C   UNL     1      -3.923  -1.660   1.381  0.00  0.00    +0.022 C 
ENDBRANCH  12  14
ENDBRANCH   7  10
ENDBRANCH   4   7
BRANCH   1  21
ATOM     21  N   UNL     1       3.523  -0.623  -0.086  0.00  0.00    -0.216 N 
ATOM     22  H   UNL     1       3.634  -1.574   0.456  0.00  0.00    +0.174 HD
BRANCH  21  23
ATOM     23  S   UNL     1       4.789  -0.018  -0.965  0.00  0.00    +0.072 S 
ATOM     24  O   UNL     1       4.942   1.340  -0.575  0.00  0.00    -0.150 OA
ATOM     25  O   UNL     1       5.844  -0.964  -0.862  0.00  0.00    -0.150 OA
BRANCH  23  30
ATOM     26  C   UNL     1       3.079   0.034  -6.751  0.00  0.00    +0.044 C 
ATOM     27  C   UNL     1       3.506   0.021  -5.306  0.00  0.00    -0.047 A 
ATOM     28  C   UNL     1       4.210  -1.057  -4.803  0.00  0.00    +0.005 A 
ATOM     29  C   UNL     1       4.606  -1.067  -3.479  0.00  0.00    +0.029 A 
ATOM     30  C   UNL     1       4.289  -0.003  -2.655  0.00  0.00    +0.109 A 
ATOM     31  C   UNL     1       3.586   1.075  -3.158  0.00  0.00    +0.032 A 
ATOM     32  C   UNL     1       3.194   1.087  -4.484  0.00  0.00    -0.046 A 
ATOM     33  C   UNL     1       2.427   2.263  -5.033  0.00  0.00    +0.044 C 
ENDBRANCH  23  30
ENDBRANCH  21  23
ENDBRANCH   1  21
TORSDOF 6
