REMARK  Name = ZINC19733674
REMARK  8 active torsions:
REMARK  status: ('A' for Active; 'I' for Inactive)
REMARK    1  A    between atoms: C_1  and  C_2
REMARK    2  A    between atoms: C_2  and  C_3
REMARK    3  A    between atoms: C_2  and  C_4
REMARK    4  A    between atoms: C_2  and  C_5
REMARK    5  A    between atoms: C_10  and  N_11
REMARK    6  A    between atoms: N_11  and  S_12
REMARK    7  A    between atoms: S_12  and  C_15
REMARK    8  A    between atoms: C_19  and  O_21
REMARK                            x       y       z     vdW  Elec       q    Type
REMARK                         _______ _______ _______ _____ _____    ______ ____
ROOT
ATOM      1  N   UNL     1      -1.068   6.037  -1.828  0.00  0.00    -0.216 N 
ATOM      2  H   UNL     1      -0.336   5.355  -1.369  0.00  0.00    +0.174 HD
ENDROOT
BRANCH   1   8
ATOM      3  C   UNL     1      -1.286   5.259  -4.102  0.00  0.00    -0.020 A 
ATOM      4  C   UNL     1      -2.078   4.822  -5.146  0.00  0.00    +0.006 A 
ATOM      5  C   UNL     1      -3.447   4.720  -4.981  0.00  0.00    +0.000 A 
ATOM      6  C   UNL     1      -4.028   5.054  -3.771  0.00  0.00    +0.002 A 
ATOM      7  C   UNL     1      -3.242   5.486  -2.722  0.00  0.00    +0.025 A 
ATOM      8  C   UNL     1      -1.866   5.595  -2.886  0.00  0.00    +0.052 A 
BRANCH   3  10
ATOM      9  C   UNL     1       0.569   5.053  -5.734  0.00  0.00    +0.015 C 
ATOM     10  C   UNL     1       0.206   5.370  -4.282  0.00  0.00    -0.011 C 
ATOM     11  C   UNL     1       0.657   6.792  -3.942  0.00  0.00    +0.015 C 
ATOM     12  C   UNL     1       0.907   4.377  -3.353  0.00  0.00    +0.015 C 
ENDBRANCH   3  10
ENDBRANCH   1   8
BRANCH   1  13
ATOM     13  S   UNL     1      -1.223   7.586  -1.264  0.00  0.00    +0.072 S 
ATOM     14  O   UNL     1      -1.222   8.435  -2.403  0.00  0.00    -0.150 OA
ATOM     15  O   UNL     1      -0.285   7.729  -0.206  0.00  0.00    -0.150 OA
BRANCH  13  16
ATOM     16  C   UNL     1      -2.824   7.719  -0.539  0.00  0.00    +0.112 A 
ATOM     17  C   UNL     1      -3.000   7.431   0.802  0.00  0.00    +0.029 A 
ATOM     18  C   UNL     1      -4.255   7.534   1.374  0.00  0.00    +0.005 A 
ATOM     19  C   UNL     1      -5.335   7.925   0.607  0.00  0.00    +0.045 A 
ATOM     20  C   UNL     1      -5.162   8.208  -0.740  0.00  0.00    +0.119 A 
ATOM     21  C   UNL     1      -3.901   8.109  -1.310  0.00  0.00    +0.074 A 
BRANCH  20  22
ATOM     22  O   UNL     1      -6.224   8.587  -1.498  0.00  0.00    -0.507 OA
ATOM     23  H   UNL     1      -6.085   8.812  -2.566  0.00  0.00    +0.292 HD
ENDBRANCH  20  22
ENDBRANCH  13  16
ENDBRANCH   1  13
TORSDOF 5
