REMARK  Name = ZINC40821166
REMARK  5 active torsions:
REMARK  status: ('A' for Active; 'I' for Inactive)
REMARK    1  A    between atoms: C_1  and  C_2
REMARK    2  A    between atoms: C_2  and  N_3
REMARK    3  A    between atoms: C_5  and  C_13
REMARK    4  A    between atoms: C_11  and  C_12
REMARK    5  A    between atoms: C_19  and  C_21
REMARK                            x       y       z     vdW  Elec       q    Type
REMARK                         _______ _______ _______ _____ _____    ______ ____
ROOT
ATOM      1  C   UNL     1      -4.369  -1.781   1.734  0.00  0.00    +0.109 C 
ATOM      2  C   UNL     1      -4.317  -3.320   1.839  0.00  0.00    +0.029 C 
ATOM      3  C   UNL     1      -4.618  -3.576   3.339  0.00  0.00    +0.021 C 
ATOM      4  C   UNL     1      -3.914  -2.369   4.008  0.00  0.00    +0.109 C 
ATOM      5  N   UNL     1      -4.136  -1.241   3.081  0.00  0.00    -0.289 N 
ATOM      6  C   UNL     1      -4.125   0.066   3.412  0.00  0.00    +0.271 C 
ATOM      7  O   UNL     1      -4.320   0.911   2.559  0.00  0.00    -0.268 OA
ENDROOT
BRANCH   1  10
ATOM      8  N   UNL     1      -1.372  -0.511   0.012  0.00  0.00    -0.347 N 
ATOM      9  C   UNL     1      -2.067  -0.875   1.133  0.00  0.00    +0.092 A 
ATOM     10  C   UNL     1      -3.296  -1.295   0.794  0.00  0.00    -0.002 A 
ATOM     11  C   UNL     1      -3.397  -1.191  -0.664  0.00  0.00    +0.008 A 
ATOM     12  C   UNL     1      -2.159  -0.687  -1.104  0.00  0.00    +0.050 A 
ATOM     13  C   UNL     1      -1.955  -0.473  -2.463  0.00  0.00    +0.026 A 
ATOM     14  C   UNL     1      -2.963  -0.753  -3.359  0.00  0.00    +0.002 A 
ATOM     15  C   UNL     1      -4.183  -1.247  -2.920  0.00  0.00    +0.004 A 
ATOM     16  C   UNL     1      -4.403  -1.473  -1.590  0.00  0.00    -0.041 A 
ATOM     17  C   UNL     1      -5.732  -2.008  -1.123  0.00  0.00    +0.044 C 
BRANCH   8  19
ATOM     18  C   UNL     1      -0.019   1.526   0.010  0.00  0.00    +0.027 C 
ATOM     19  C   UNL     1       0.002  -0.004   0.002  0.00  0.00    +0.118 C 
ENDBRANCH   8  19
ENDBRANCH   1  10
BRANCH   6  20
ATOM     20  C   UNL     1      -3.878   0.471   4.809  0.00  0.00    +0.190 A 
ATOM     21  C   UNL     1      -3.864   1.889   5.181  0.00  0.00    +0.279 A 
ATOM     22  N   UNL     1      -3.632   2.213   6.473  0.00  0.00    -0.326 N 
ATOM     23  C   UNL     1      -3.423   1.229   7.372  0.00  0.00    +0.105 A 
ATOM     24  C   UNL     1      -3.442  -0.080   6.997  0.00  0.00    +0.129 A 
ATOM     25  N   UNL     1      -3.670  -0.441   5.746  0.00  0.00    -0.244 NA
ATOM     26  O   UNL     1      -4.055   2.756   4.346  0.00  0.00    -0.265 OA
ATOM     27  H   UNL     1      -3.616   3.143   6.750  0.00  0.00    +0.168 HD
ENDBRANCH   6  20
TORSDOF 3
