REMARK  Name = ZINC12039990
REMARK  6 active torsions:
REMARK  status: ('A' for Active; 'I' for Inactive)
REMARK    1  A    between atoms: C_4  and  C_7
REMARK    2  A    between atoms: C_7  and  C_8
REMARK    3  A    between atoms: C_8  and  C_9
REMARK    4  A    between atoms: C_9  and  C_16
REMARK    5  A    between atoms: C_21  and  C_22
REMARK    6  A    between atoms: C_21  and  N_58
REMARK                            x       y       z     vdW  Elec       q    Type
REMARK                         _______ _______ _______ _____ _____    ______ ____
ROOT
ATOM      1  C   UNL     1      -0.018   1.469   0.010  0.00  0.00    +0.115 C 
ATOM      2  C   UNL     1       1.450   1.845  -0.002  0.00  0.00    +0.244 C 
ATOM      3  O   UNL     1       1.920   2.963  -0.001  0.00  0.00    -0.273 OA
ATOM      4  N   UNL     1       2.125   0.679  -0.015  0.00  0.00    -0.238 N 
ATOM      5  C   UNL     1       1.296  -0.371  -0.012  0.00  0.00    +0.307 C 
ATOM      6  O   UNL     1       1.670  -1.528  -0.022  0.00  0.00    -0.252 OA
ATOM      7  N   UNL     1       0.002  -0.004   0.002  0.00  0.00    -0.285 N 
ATOM      8  H   UNL     1       3.093   0.609  -0.024  0.00  0.00    +0.159 HD
ATOM      9  H   UNL     1      -0.768  -0.594   0.006  0.00  0.00    +0.151 HD
ENDROOT
BRANCH   1  10
ATOM     10  C   UNL     1      -0.721   2.005  -1.239  0.00  0.00    +0.018 C 
ATOM     11  C   UNL     1      -2.166   1.498  -1.270  0.00  0.00    -0.013 C 
ATOM     12  C   UNL     1      -2.845   1.986  -2.551  0.00  0.00    -0.078 C 
ATOM     13  C   UNL     1      -0.731   2.000  -3.735  0.00  0.00    -0.078 C 
ATOM     14  C   UNL     1       0.012   1.512  -2.490  0.00  0.00    -0.013 C 
ATOM     15  N   UNL     1      -2.107   1.458  -3.717  0.00  0.00    +0.382 N 
ATOM     16  H   UNL     1      -2.060   0.434  -3.646  0.00  0.00    -0.081 HD
BRANCH  15  17
ATOM     17  C   UNL     1      -2.808   1.821  -4.966  0.00  0.00    -0.043 C 
BRANCH  17  18
ATOM     18  C   UNL     1      -4.119   1.079  -5.019  0.00  0.00    -0.060 A 
ATOM     19  C   UNL     1      -5.260   1.655  -4.494  0.00  0.00    +0.005 A 
ATOM     20  C   UNL     1      -6.465   0.979  -4.542  0.00  0.00    +0.050 A 
ATOM     21  C   UNL     1      -6.530  -0.281  -5.116  0.00  0.00    +0.166 A 
ATOM     22  C   UNL     1      -5.380  -0.862  -5.644  0.00  0.00    +0.166 A 
ATOM     23  C   UNL     1      -4.178  -0.175  -5.598  0.00  0.00    +0.051 A 
ATOM     24  O   UNL     1      -5.703  -2.089  -6.147  0.00  0.00    -0.453 OA
ATOM     25  C   UNL     1      -6.973  -2.425  -5.556  0.00  0.00    +0.466 C 
ATOM     26  O   UNL     1      -7.574  -1.144  -5.287  0.00  0.00    -0.453 OA
ENDBRANCH  17  18
ENDBRANCH  15  17
ENDBRANCH   1  10
BRANCH   1  27
ATOM     27  C   UNL     1      -0.697   1.991   1.278  0.00  0.00    +0.040 C 
BRANCH  27  28
ATOM     28  C   UNL     1       0.060   1.484   2.507  0.00  0.00    +0.038 C 
BRANCH  28  32
ATOM     29  C   UNL     1      -1.836   2.942   6.047  0.00  0.00    +0.000 A 
ATOM     30  C   UNL     1      -2.226   1.733   5.502  0.00  0.00    +0.000 A 
ATOM     31  C   UNL     1      -1.613   1.262   4.356  0.00  0.00    +0.003 A 
ATOM     32  C   UNL     1      -0.609   1.999   3.756  0.00  0.00    -0.047 A 
ATOM     33  C   UNL     1      -0.216   3.205   4.304  0.00  0.00    +0.003 A 
ATOM     34  C   UNL     1      -0.832   3.679   5.447  0.00  0.00    +0.000 A 
ENDBRANCH  28  32
ENDBRANCH  27  28
ENDBRANCH   1  27
TORSDOF 6
