REMARK  Name = ZINC23251109
REMARK  2 active torsions:
REMARK  status: ('A' for Active; 'I' for Inactive)
REMARK    1  A    between atoms: C_4  and  C_6
REMARK    2  A    between atoms: C_19  and  C_21
REMARK                            x       y       z     vdW  Elec       q    Type
REMARK                         _______ _______ _______ _____ _____    ______ ____
ROOT
ATOM      1  C   UNL     1       7.209  -5.392  -3.075  0.00  0.00    +0.133 C 
ATOM      2  C   UNL     1       8.626  -5.067  -2.592  0.00  0.00    +0.029 C 
ATOM      3  C   UNL     1       9.002  -6.015  -1.451  0.00  0.00    +0.004 C 
ATOM      4  C   UNL     1       8.036  -5.817  -0.281  0.00  0.00    +0.019 C 
ATOM      5  C   UNL     1       6.615  -6.146  -0.736  0.00  0.00    +0.110 C 
ATOM      6  N   UNL     1       6.295  -5.345  -1.926  0.00  0.00    -0.276 N 
ATOM      7  C   UNL     1       5.188  -4.578  -1.960  0.00  0.00    +0.308 C 
ATOM      8  O   UNL     1       4.895  -3.977  -2.975  0.00  0.00    -0.252 OA
ATOM      9  N   UNL     1       4.405  -4.476  -0.867  0.00  0.00    -0.247 N 
ATOM     10  C   UNL     1       3.325  -3.600  -0.865  0.00  0.00    +0.189 A 
ATOM     11  N   UNL     1       2.897  -2.788  -1.817  0.00  0.00    -0.126 NA
ATOM     12  N   UNL     1       1.885  -2.050  -1.658  0.00  0.00    -0.144 NA
ATOM     13  C   UNL     1       1.218  -2.058  -0.521  0.00  0.00    +0.107 A 
ATOM     14  S   UNL     1       2.166  -3.272   0.390  0.00  0.00    -0.035 S 
ATOM     15  H   UNL     1       4.620  -5.085   0.023  0.00  0.00    +0.158 HD
ENDROOT
BRANCH   1  19
ATOM     16  C   UNL     1       6.008  -3.568  -6.106  0.00  0.00    +0.119 A 
ATOM     17  C   UNL     1       6.118  -2.307  -5.616  0.00  0.00    +0.066 A 
ATOM     18  S   UNL     1       6.727  -2.646  -3.970  0.00  0.00    -0.079 S 
ATOM     19  C   UNL     1       6.780  -4.376  -4.103  0.00  0.00    +0.099 A 
ATOM     20  N   UNL     1       6.346  -4.574  -5.326  0.00  0.00    -0.250 NA
ENDBRANCH   1  19
BRANCH  13  21
ATOM     21  C   UNL     1       0.001  -1.273  -0.108  0.00  0.00    +0.047 C 
ATOM     22  C   UNL     1      -1.226  -1.521  -1.002  0.00  0.00    +0.010 C 
ATOM     23  C   UNL     1      -1.512  -0.014  -0.894  0.00  0.00    +0.001 C 
ATOM     24  C   UNL     1      -0.008   0.173  -0.633  0.00  0.00    +0.010 C 
ENDBRANCH  13  21
TORSDOF 2
