REMARK  Name = ZINC12641793
REMARK  6 active torsions:
REMARK  status: ('A' for Active; 'I' for Inactive)
REMARK    1  A    between atoms: C_3  and  C_34
REMARK    2  A    between atoms: C_5  and  N_7
REMARK    3  A    between atoms: C_12  and  C_14
REMARK    4  A    between atoms: C_12  and  C_24
REMARK    5  A    between atoms: C_12  and  N_65
REMARK    6  A    between atoms: N_28  and  C_29
REMARK                            x       y       z     vdW  Elec       q    Type
REMARK                         _______ _______ _______ _____ _____    ______ ____
ROOT
ATOM      1  C   UNL     1       3.510   0.737  -0.027  0.00  0.00    +0.033 C 
ENDROOT
BRANCH   1   2
ATOM      2  C   UNL     1       4.005   1.055   1.360  0.00  0.00    -0.053 A 
ATOM      3  C   UNL     1       5.304   1.530   1.535  0.00  0.00    +0.004 A 
ATOM      4  C   UNL     1       5.780   1.833   2.773  0.00  0.00    +0.028 A 
ATOM      5  C   UNL     1       4.959   1.654   3.900  0.00  0.00    +0.071 A 
ATOM      6  C   UNL     1       3.641   1.165   3.720  0.00  0.00    +0.001 A 
ATOM      7  C   UNL     1       3.180   0.869   2.427  0.00  0.00    +0.012 A 
ATOM      8  C   UNL     1       2.820   0.987   4.849  0.00  0.00    +0.011 A 
ATOM      9  C   UNL     1       3.335   1.295   6.076  0.00  0.00    +0.020 A 
ATOM     10  C   UNL     1       4.639   1.772   6.182  0.00  0.00    +0.111 A 
ATOM     11  N   UNL     1       5.402   1.936   5.129  0.00  0.00    -0.255 NA
ENDBRANCH   1   2
BRANCH   1  17
ATOM     12  N   UNL     1       3.702   3.856  -2.870  0.00  0.00    -0.333 N 
ATOM     13  C   UNL     1       4.127   2.513  -3.291  0.00  0.00    +0.086 C 
ATOM     14  C   UNL     1       3.540   1.472  -2.334  0.00  0.00    -0.058 C 
ATOM     15  C   UNL     1       3.566   3.102  -0.545  0.00  0.00    -0.058 C 
ATOM     16  C   UNL     1       4.153   4.143  -1.501  0.00  0.00    +0.086 C 
ATOM     17  N   UNL     1       4.019   1.759  -0.966  0.00  0.00    +0.391 N 
ATOM     18  H   UNL     1       5.046   1.736  -0.960  0.00  0.00    -0.080 HD
BRANCH  12  23
ATOM     19  C   UNL     1       5.363   5.422  -5.750  0.00  0.00    +0.002 A 
ATOM     20  C   UNL     1       5.067   6.755  -5.529  0.00  0.00    +0.012 A 
ATOM     21  C   UNL     1       4.318   7.126  -4.428  0.00  0.00    +0.057 A 
ATOM     22  C   UNL     1       3.864   6.167  -3.544  0.00  0.00    +0.035 A 
ATOM     23  C   UNL     1       4.159   4.828  -3.762  0.00  0.00    +0.030 A 
ATOM     24  C   UNL     1       4.916   4.458  -4.867  0.00  0.00    +0.023 A 
BRANCH  21  25
ATOM     25  C   UNL     1       3.998   8.580  -4.191  0.00  0.00    +0.417 C 
ATOM     26  F   UNL     1       5.004   9.158  -3.411  0.00  0.00    -0.166 F 
ATOM     27  F   UNL     1       3.920   9.246  -5.419  0.00  0.00    -0.166 F 
ATOM     28  F   UNL     1       2.772   8.685  -3.525  0.00  0.00    -0.166 F 
ENDBRANCH  21  25
ENDBRANCH  12  23
ENDBRANCH   1  17
BRANCH   1  29
ATOM     29  C   UNL     1       2.003   0.720  -0.031  0.00  0.00    +0.143 A 
ATOM     30  N   UNL     1       1.209   1.762   0.009  0.00  0.00    -0.115 NA
ATOM     31  N   UNL     1      -0.007   1.337  -0.011  0.00  0.00    -0.023 NA
ATOM     32  N   UNL     1      -0.009   0.051  -0.062  0.00  0.00    -0.044 NA
ATOM     33  N   UNL     1       1.212  -0.367  -0.076  0.00  0.00    -0.227 N 
BRANCH  33  34
ATOM     34  C   UNL     1       1.653  -1.763  -0.131  0.00  0.00    +0.111 C 
ATOM     35  C   UNL     1       1.081  -2.450  -1.388  0.00  0.00    +0.027 C 
ATOM     36  C   UNL     1       0.752  -3.889  -0.918  0.00  0.00    +0.002 C 
ATOM     37  C   UNL     1       0.218  -3.667   0.519  0.00  0.00    +0.002 C 
ATOM     38  C   UNL     1       1.105  -2.537   1.081  0.00  0.00    +0.027 C 
ENDBRANCH  33  34
ENDBRANCH   1  29
TORSDOF 6
