REMARK  Name = ZINC30516529
REMARK  7 active torsions:
REMARK  status: ('A' for Active; 'I' for Inactive)
REMARK    1  A    between atoms: C_3  and  S_6
REMARK    2  A    between atoms: S_6  and  N_9
REMARK    3  A    between atoms: N_9  and  C_10
REMARK    4  A    between atoms: C_13  and  C_16
REMARK    5  A    between atoms: C_16  and  C_17
REMARK    6  A    between atoms: N_19  and  C_20
REMARK    7  A    between atoms: C_20  and  C_21
REMARK                            x       y       z     vdW  Elec       q    Type
REMARK                         _______ _______ _______ _____ _____    ______ ____
ROOT
ATOM      1  C   UNL     1       1.638   3.573  -0.135  0.00  0.00    +0.130 C 
ENDROOT
BRANCH   1   5
ATOM      2  C   UNL     1       1.339  -0.690  -0.047  0.00  0.00    +0.048 A 
ATOM      3  C   UNL     1       0.190   0.090  -0.004  0.00  0.00    +0.025 A 
ATOM      4  C   UNL     1       0.290   1.467  -0.032  0.00  0.00    +0.006 A 
ATOM      5  C   UNL     1       1.532   2.070  -0.104  0.00  0.00    -0.039 A 
ATOM      6  C   UNL     1       2.678   1.297  -0.147  0.00  0.00    +0.006 A 
ATOM      7  C   UNL     1       2.585  -0.080  -0.119  0.00  0.00    +0.025 A 
BRANCH   2   8
ATOM      8  N   UNL     1       1.241  -2.083  -0.018  0.00  0.00    -0.216 N 
ATOM      9  H   UNL     1       1.492  -2.632   0.901  0.00  0.00    +0.174 HD
BRANCH   8  10
ATOM     10  S   UNL     1       0.748  -2.906  -1.368  0.00  0.00    +0.079 S 
ATOM     11  O   UNL     1       0.795  -4.288  -1.040  0.00  0.00    -0.149 OA
ATOM     12  O   UNL     1      -0.441  -2.271  -1.819  0.00  0.00    -0.149 OA
BRANCH  10  15
ATOM     13  C   UNL     1       3.861  -3.004  -3.970  0.00  0.00    +0.010 A 
ATOM     14  C   UNL     1       3.030  -3.413  -2.944  0.00  0.00    +0.036 A 
ATOM     15  C   UNL     1       1.965  -2.642  -2.614  0.00  0.00    +0.146 A 
ATOM     16  S   UNL     1       2.112  -1.293  -3.773  0.00  0.00    -0.077 S 
ATOM     17  C   UNL     1       3.588  -1.843  -4.614  0.00  0.00    +0.047 A 
ENDBRANCH  10  15
ENDBRANCH   8  10
ENDBRANCH   2   8
ENDBRANCH   1   5
BRANCH   1  18
ATOM     18  C   UNL     1       1.743   4.099   1.274  0.00  0.00    +0.218 C 
ATOM     19  O   UNL     1       1.733   3.329   2.211  0.00  0.00    -0.275 OA
ATOM     20  N   UNL     1       1.848   5.424   1.492  0.00  0.00    -0.311 N 
ATOM     21  H   UNL     1       1.856   6.123   0.642  0.00  0.00    +0.149 HD
BRANCH  20  22
ATOM     22  C   UNL     1       1.950   5.935   2.861  0.00  0.00    +0.139 C 
BRANCH  22  23
ATOM     23  C   UNL     1       2.055   7.438   2.830  0.00  0.00    -0.025 A 
ATOM     24  C   UNL     1       0.908   8.211   2.873  0.00  0.00    +0.054 A 
ATOM     25  C   UNL     1       1.008   9.591   2.844  0.00  0.00    +0.164 A 
ATOM     26  C   UNL     1       2.255  10.197   2.772  0.00  0.00    +0.180 A 
ATOM     27  C   UNL     1       3.402   9.421   2.729  0.00  0.00    +0.086 A 
ATOM     28  C   UNL     1       3.297   8.040   2.764  0.00  0.00    +0.029 A 
ATOM     29 CL   UNL     1       4.962  10.176   2.639  0.00  0.00    -0.080 Cl
ATOM     30  O   UNL     1       2.343  11.558   2.744  0.00  0.00    -0.487 OA
ATOM     31  C   UNL     1       1.968  12.234   3.946  0.00  0.00    +0.232 C 
ATOM     32  C   UNL     1       0.463  12.444   3.999  0.00  0.00    +0.082 C 
ATOM     33  C   UNL     1      -0.302  11.132   4.077  0.00  0.00    +0.232 C 
ATOM     34  O   UNL     1      -0.115  10.365   2.885  0.00  0.00    -0.488 OA
ENDBRANCH  22  23
ENDBRANCH  20  22
ENDBRANCH   1  18
TORSDOF 7
