REMARK  Name = ZINC09343992
REMARK  11 active torsions:
REMARK  status: ('A' for Active; 'I' for Inactive)
REMARK    1  A    between atoms: C_1  and  C_2
REMARK    2  A    between atoms: C_4  and  C_28
REMARK    3  A    between atoms: N_11  and  C_12
REMARK    4  A    between atoms: C_12  and  C_13
REMARK    5  A    between atoms: C_13  and  N_55
REMARK    6  A    between atoms: C_14  and  N_55
REMARK    7  A    between atoms: C_15  and  N_55
REMARK    8  A    between atoms: C_16  and  C_18
REMARK    9  A    between atoms: C_18  and  C_19
REMARK   10  A    between atoms: C_19  and  S_20
REMARK   11  A    between atoms: S_20  and  C_21
REMARK                            x       y       z     vdW  Elec       q    Type
REMARK                         _______ _______ _______ _____ _____    ______ ____
ROOT
ATOM      1  C   UNL     1      -2.509   0.980   0.019  0.00  0.00    +0.044 C 
ATOM      2  C   UNL     1      -1.220   1.760   0.017  0.00  0.00    -0.048 A 
ATOM      3  C   UNL     1      -0.013   1.076   0.008  0.00  0.00    +0.008 A 
ATOM      4  C   UNL     1       1.171   1.790   0.001  0.00  0.00    -0.034 A 
ATOM      5  C   UNL     1       1.134   3.163   0.008  0.00  0.00    +0.044 A 
ATOM      6  C   UNL     1      -0.076   3.893   0.023  0.00  0.00    +0.081 A 
ATOM      7  C   UNL     1      -1.266   3.130   0.030  0.00  0.00    +0.032 A 
ATOM      8  N   UNL     1       0.053   5.238   0.029  0.00  0.00    -0.224 NA
ATOM      9  C   UNL     1       1.222   5.835   0.022  0.00  0.00    +0.168 A 
ATOM     10  S   UNL     1       2.356   4.453   0.004  0.00  0.00    -0.052 S 
ATOM     11  N   UNL     1       1.505   7.191   0.027  0.00  0.00    -0.252 N 
ATOM     12  C   UNL     1       2.785   7.612   0.018  0.00  0.00    +0.222 C 
ATOM     13  O   UNL     1       3.689   6.804   0.006  0.00  0.00    -0.275 OA
ATOM     14  C   UNL     1       2.493   1.067  -0.015  0.00  0.00    +0.045 C 
ENDROOT
BRANCH  11  15
ATOM     15  C   UNL     1       0.413   8.167   0.042  0.00  0.00    +0.097 C 
BRANCH  15  16
ATOM     16  C   UNL     1       0.045   8.499   1.490  0.00  0.00    -0.060 C 
BRANCH  16  19
ATOM     17  C   UNL     1      -2.282   8.897   0.956  0.00  0.00    -0.097 C 
ATOM     18  C   UNL     1      -1.272   9.998   2.861  0.00  0.00    -0.097 C 
ATOM     19  N   UNL     1      -1.042   9.500   1.488  0.00  0.00    +0.377 N 
ATOM     20  H   UNL     1      -0.770  10.287   0.888  0.00  0.00    -0.083 HD
ENDBRANCH  16  19
ENDBRANCH  15  16
ENDBRANCH  11  15
BRANCH  12  21
ATOM     21  C   UNL     1       3.093   9.087   0.024  0.00  0.00    +0.107 C 
BRANCH  21  22
ATOM     22  C   UNL     1       4.610   9.292   0.012  0.00  0.00    +0.083 C 
BRANCH  22  23
ATOM     23  S   UNL     1       4.980  11.067   0.019  0.00  0.00    -0.125 S 
BRANCH  23  24
ATOM     24  C   UNL     1       6.741  11.135   0.004  0.00  0.00    +0.008 A 
ATOM     25  C   UNL     1       7.483   9.960  -0.004  0.00  0.00    +0.017 A 
ATOM     26  C   UNL     1       8.862  10.016  -0.021  0.00  0.00    +0.039 A 
ATOM     27  C   UNL     1       9.507  11.242  -0.019  0.00  0.00    +0.123 A 
ATOM     28  C   UNL     1       8.770  12.415  -0.006  0.00  0.00    +0.039 A 
ATOM     29  C   UNL     1       7.390  12.364   0.005  0.00  0.00    +0.017 A 
ATOM     30  F   UNL     1      10.857  11.294  -0.032  0.00  0.00    -0.205 F 
ENDBRANCH  23  24
ENDBRANCH  22  23
ENDBRANCH  21  22
ENDBRANCH  12  21
TORSDOF 7
