REMARK  Name = ZINC12504514
REMARK  12 active torsions:
REMARK  status: ('A' for Active; 'I' for Inactive)
REMARK    1  A    between atoms: C_1  and  C_2
REMARK    2  A    between atoms: C_2  and  C_4
REMARK    3  A    between atoms: C_2  and  C_11
REMARK    4  A    between atoms: C_4  and  C_5
REMARK    5  A    between atoms: C_6  and  C_7
REMARK    6  A    between atoms: C_7  and  C_8
REMARK    7  A    between atoms: C_7  and  C_9
REMARK    8  A    between atoms: C_7  and  O_10
REMARK    9  A    between atoms: C_17  and  C_34
REMARK   10  A    between atoms: C_22  and  C_23
REMARK   11  A    between atoms: C_26  and  O_33
REMARK   12  A    between atoms: C_29  and  O_32
REMARK                            x       y       z     vdW  Elec       q    Type
REMARK                         _______ _______ _______ _____ _____    ______ ____
ROOT
ATOM      1  C   UNL     1      -0.058   0.947  -1.722  0.00  0.00    -0.001 C 
ATOM      2  C   UNL     1       0.161  -0.587  -1.634  0.00  0.00    +0.005 C 
ATOM      3  C   UNL     1       0.389  -0.971  -3.120  0.00  0.00    +0.009 C 
ATOM      4  C   UNL     1      -0.617  -0.080  -3.888  0.00  0.00    +0.021 C 
ATOM      5  C   UNL     1      -0.913   1.112  -2.998  0.00  0.00    -0.022 C 
ATOM      6  C   UNL     1      -0.688   2.472  -3.612  0.00  0.00    +0.008 C 
ATOM      7  C   UNL     1       0.539   2.494  -4.519  0.00  0.00    +0.005 C 
ATOM      8  C   UNL     1       0.241   1.604  -5.731  0.00  0.00    +0.031 C 
ATOM      9  C   UNL     1      -0.080   0.224  -5.241  0.00  0.00    -0.066 C 
ATOM     10  C   UNL     1       0.130  -0.794  -6.069  0.00  0.00    -0.001 C 
ATOM     11  C   UNL     1      -2.385   1.038  -2.587  0.00  0.00    +0.012 C 
ENDROOT
BRANCH  10  12
ATOM     12  C   UNL     1       0.660  -0.547  -7.418  0.00  0.00    -0.001 C 
ATOM     13  C   UNL     1       0.967  -1.570  -8.209  0.00  0.00    -0.065 C 
ATOM     14  C   UNL     1       0.655  -2.991  -7.795  0.00  0.00    +0.062 C 
ATOM     15  C   UNL     1      -0.108  -3.672  -8.942  0.00  0.00    +0.121 C 
ATOM     16  C   UNL     1       0.707  -3.556 -10.231  0.00  0.00    +0.063 C 
ATOM     17  C   UNL     1       0.850  -2.084 -10.624  0.00  0.00    +0.121 C 
ATOM     18  C   UNL     1       1.644  -1.344  -9.543  0.00  0.00    +0.062 C 
BRANCH  17  19
ATOM     19  O   UNL     1       1.540  -1.988 -11.872  0.00  0.00    -0.391 OA
ATOM     20  H   UNL     1       1.667  -1.081 -12.182  0.00  0.00    +0.210 HD
ENDBRANCH  17  19
BRANCH  15  21
ATOM     21  O   UNL     1      -1.375  -3.035  -9.120  0.00  0.00    -0.391 OA
ATOM     22  H   UNL     1      -1.946  -3.070  -8.341  0.00  0.00    +0.210 HD
ENDBRANCH  15  21
ENDBRANCH  10  12
BRANCH   1  24
ATOM     23  C   UNL     1      -0.908   2.981  -0.546  0.00  0.00    +0.009 C 
ATOM     24  C   UNL     1      -0.818   1.455  -0.495  0.00  0.00    +0.001 C 
BRANCH  24  25
ATOM     25  C   UNL     1      -0.078   1.030   0.775  0.00  0.00    +0.092 C 
BRANCH  25  26
ATOM     26  C   UNL     1      -0.869   1.413   1.956  0.00  0.00    -0.099 C 
ATOM     27  C   UNL     1      -1.500   1.719   2.897  0.00  0.00    -0.068 C 
BRANCH  27  28
ATOM     28  C   UNL     1      -2.291   2.102   4.078  0.00  0.00    +0.121 C 
ATOM     29  C   UNL     1      -3.654   1.409   4.026  0.00  0.00    +0.055 C 
ATOM     30  C   UNL     1      -1.551   1.677   5.348  0.00  0.00    +0.055 C 
BRANCH  28  31
ATOM     31  O   UNL     1      -2.478   3.519   4.087  0.00  0.00    -0.377 OA
ATOM     32  H   UNL     1      -2.942   3.860   3.309  0.00  0.00    +0.211 HD
ENDBRANCH  28  31
ENDBRANCH  27  28
ENDBRANCH  25  26
ENDBRANCH  24  25
ENDBRANCH   1  24
TORSDOF 8
