REMARK  Name = ZINC03416087
REMARK  2 active torsions:
REMARK  status: ('A' for Active; 'I' for Inactive)
REMARK    1  A    between atoms: C_4  and  C_7
REMARK    2  A    between atoms: C_7  and  N_8
REMARK                            x       y       z     vdW  Elec       q    Type
REMARK                         _______ _______ _______ _____ _____    ______ ____
ROOT
ATOM      1  N   UNL     1      -0.640  -1.268   1.819  0.00  0.00    -0.262 N 
ATOM      2  C   UNL     1      -1.684  -1.309   0.911  0.00  0.00    +0.046 A 
ATOM      3  C   UNL     1      -2.914  -1.961   1.005  0.00  0.00    +0.024 A 
ATOM      4  C   UNL     1      -3.784  -1.831  -0.066  0.00  0.00    +0.002 A 
ATOM      5  C   UNL     1      -3.460  -1.090  -1.185  0.00  0.00    +0.001 A 
ATOM      6  C   UNL     1      -2.238  -0.435  -1.290  0.00  0.00    +0.011 A 
ATOM      7  C   UNL     1      -1.368  -0.559  -0.229  0.00  0.00    +0.043 A 
ATOM      8  C   UNL     1       0.002  -0.004   0.002  0.00  0.00    +0.282 C 
ATOM      9  C   UNL     1       0.393  -0.525   1.369  0.00  0.00    +0.286 C 
ATOM     10  O   UNL     1       1.437  -0.314   1.949  0.00  0.00    -0.269 OA
ATOM     11  N   UNL     1       0.947  -0.493  -1.010  0.00  0.00    -0.190 NA
ATOM     12  N   UNL     1       2.206  -0.012  -0.744  0.00  0.00    -0.273 N 
ATOM     13  C   UNL     1       2.330   1.337  -0.379  0.00  0.00    +0.083 A 
ATOM     14  C   UNL     1       3.565   1.963  -0.395  0.00  0.00    +0.028 A 
ATOM     15  C   UNL     1       3.666   3.293  -0.030  0.00  0.00    +0.002 A 
ATOM     16  C   UNL     1       2.538   3.997   0.350  0.00  0.00    +0.004 A 
ATOM     17  C   UNL     1       1.302   3.377   0.367  0.00  0.00    +0.048 A 
ATOM     18  C   UNL     1       1.193   2.047   0.002  0.00  0.00    +0.146 A 
ATOM     19  O   UNL     1      -0.017   1.423   0.010  0.00  0.00    -0.455 OA
ATOM     20  H   UNL     1       0.946  -1.501  -1.048  0.00  0.00    +0.149 HD
ATOM     21  H   UNL     1       2.985  -0.587  -0.807  0.00  0.00    +0.166 HD
ENDROOT
BRANCH   1  22
ATOM     22  C   UNL     1      -0.654  -1.950   3.115  0.00  0.00    +0.149 C 
BRANCH  22  26
ATOM     23  C   UNL     1      -2.277   0.659   6.082  0.00  0.00    +0.000 A 
ATOM     24  C   UNL     1      -3.112  -0.181   5.369  0.00  0.00    +0.000 A 
ATOM     25  C   UNL     1      -2.587  -1.026   4.409  0.00  0.00    +0.005 A 
ATOM     26  C   UNL     1      -1.226  -1.030   4.161  0.00  0.00    -0.030 A 
ATOM     27  C   UNL     1      -0.391  -0.193   4.878  0.00  0.00    +0.005 A 
ATOM     28  C   UNL     1      -0.917   0.655   5.835  0.00  0.00    +0.000 A 
ENDBRANCH  22  26
ENDBRANCH   1  22
TORSDOF 2
