REMARK  Name = ZINC63655349
REMARK  20 active torsions:
REMARK  status: ('A' for Active; 'I' for Inactive)
REMARK    1  A    between atoms: C_1  and  C_2
REMARK    2  A    between atoms: C_4  and  C_14
REMARK    3  A    between atoms: C_7  and  O_12
REMARK    4  A    between atoms: O_12  and  C_13
REMARK    5  A    between atoms: C_14  and  C_15
REMARK    6  A    between atoms: C_15  and  N_16
REMARK    7  A    between atoms: N_16  and  C_17
REMARK    8  A    between atoms: N_16  and  C_30
REMARK    9  A    between atoms: C_17  and  C_18
REMARK   10  A    between atoms: C_20  and  O_28
REMARK   11  A    between atoms: C_21  and  O_26
REMARK   12  A    between atoms: C_22  and  O_24
REMARK   13  A    between atoms: O_24  and  C_25
REMARK   14  A    between atoms: O_26  and  C_27
REMARK   15  A    between atoms: O_28  and  C_29
REMARK   16  A    between atoms: C_30  and  N_32
REMARK   17  A    between atoms: N_32  and  C_33
REMARK   18  A    between atoms: C_33  and  C_34
REMARK   19  A    between atoms: C_33  and  C_35
REMARK   20  A    between atoms: C_33  and  C_36
REMARK                            x       y       z     vdW  Elec       q    Type
REMARK                         _______ _______ _______ _____ _____    ______ ____
ROOT
ATOM      1  N   UNL     1       1.023  -0.750  -4.981  0.00  0.00    -0.308 N 
ENDROOT
BRANCH   1   2
ATOM      2  C   UNL     1       0.205  -1.612  -5.617  0.00  0.00    +0.134 C 
ATOM      3  S   UNL     1      -0.175  -1.371  -7.269  0.00  0.00    -0.019 S 
BRANCH   2   4
ATOM      4  N   UNL     1      -0.314  -2.664  -4.952  0.00  0.00    -0.322 N 
ATOM      5  H   UNL     1      -0.040  -2.843  -4.039  0.00  0.00    +0.148 HD
BRANCH   4   6
ATOM      6  C   UNL     1      -1.290  -3.536  -5.609  0.00  0.00    +0.025 C 
ATOM      7  C   UNL     1      -0.637  -4.217  -6.814  0.00  0.00    +0.031 C 
ATOM      8  C   UNL     1      -1.771  -4.600  -4.620  0.00  0.00    +0.031 C 
ATOM      9  C   UNL     1      -2.483  -2.702  -6.080  0.00  0.00    +0.031 C 
ENDBRANCH   4   6
ENDBRANCH   2   4
ENDBRANCH   1   2
BRANCH   1  10
ATOM     10  C   UNL     1       1.349  -0.956  -3.568  0.00  0.00    +0.111 C 
BRANCH  10  11
ATOM     11  C   UNL     1       0.324  -0.227  -2.697  0.00  0.00    +0.052 C 
BRANCH  11  14
ATOM     12  C   UNL     1      -0.091   1.634  -0.075  0.00  0.00    +0.035 C 
ATOM     13  C   UNL     1      -0.093   0.104  -0.048  0.00  0.00    +0.103 C 
ATOM     14  C   UNL     1       0.659  -0.439  -1.243  0.00  0.00    -0.037 C 
ATOM     15  C   UNL     1       1.692  -1.154  -0.743  0.00  0.00    +0.003 A 
ATOM     16  C   UNL     1       2.772  -1.919  -1.375  0.00  0.00    +0.055 A 
ATOM     17  C   UNL     1       3.687  -2.548  -0.599  0.00  0.00    +0.121 A 
ATOM     18  C   UNL     1       3.643  -2.496   0.805  0.00  0.00    +0.047 A 
ATOM     19  C   UNL     1       2.688  -1.818   1.478  0.00  0.00    +0.029 A 
ATOM     20  C   UNL     1       1.646  -1.101   0.737  0.00  0.00    +0.043 A 
ATOM     21  N   UNL     1       0.625  -0.382   1.136  0.00  0.00    -0.378 N 
ATOM     22  H   UNL     1       0.384  -0.200   2.058  0.00  0.00    +0.160 HD
BRANCH  17  23
ATOM     23  O   UNL     1       4.683  -3.252  -1.199  0.00  0.00    -0.495 OA
ATOM     24  C   UNL     1       5.626  -3.900  -0.343  0.00  0.00    +0.277 C 
ENDBRANCH  17  23
ENDBRANCH  11  14
ENDBRANCH  10  11
ENDBRANCH   1  10
BRANCH   1  25
ATOM     25  C   UNL     1       1.587   0.393  -5.704  0.00  0.00    +0.142 C 
BRANCH  25  26
ATOM     26  C   UNL     1       2.902  -0.004  -6.325  0.00  0.00    -0.023 A 
ATOM     27  C   UNL     1       4.076   0.154  -5.613  0.00  0.00    +0.054 A 
ATOM     28  C   UNL     1       5.287  -0.210  -6.181  0.00  0.00    +0.165 A 
ATOM     29  C   UNL     1       5.320  -0.734  -7.467  0.00  0.00    +0.204 A 
ATOM     30  C   UNL     1       4.137  -0.892  -8.179  0.00  0.00    +0.165 A 
ATOM     31  C   UNL     1       2.929  -0.531  -7.602  0.00  0.00    +0.054 A 
BRANCH  30  32
ATOM     32  O   UNL     1       4.164  -1.405  -9.439  0.00  0.00    -0.491 OA
ATOM     33  C   UNL     1       2.910  -1.539 -10.111  0.00  0.00    +0.277 C 
ENDBRANCH  30  32
BRANCH  29  34
ATOM     34  O   UNL     1       6.507  -1.092  -8.028  0.00  0.00    -0.488 OA
ATOM     35  C   UNL     1       6.944  -2.437  -7.820  0.00  0.00    +0.277 C 
ENDBRANCH  29  34
BRANCH  28  36
ATOM     36  O   UNL     1       6.442  -0.053  -5.480  0.00  0.00    -0.491 OA
ATOM     37  C   UNL     1       6.333   0.493  -4.164  0.00  0.00    +0.277 C 
ENDBRANCH  28  36
ENDBRANCH  25  26
ENDBRANCH   1  25
TORSDOF 12
