REMARK  Name = ZINC14213190
REMARK  9 active torsions:
REMARK  status: ('A' for Active; 'I' for Inactive)
REMARK    1  A    between atoms: C_1  and  C_2
REMARK    2  A    between atoms: C_4  and  C_8
REMARK    3  A    between atoms: C_5  and  C_7
REMARK    4  A    between atoms: C_10  and  C_20
REMARK    5  A    between atoms: N_14  and  C_17
REMARK    6  A    between atoms: C_17  and  C_18
REMARK    7  A    between atoms: C_17  and  C_19
REMARK    8  A    between atoms: N_22  and  N_23
REMARK    9  A    between atoms: C_24  and  C_26
REMARK                            x       y       z     vdW  Elec       q    Type
REMARK                         _______ _______ _______ _____ _____    ______ ____
ROOT
ATOM      1  C   UNL     1      -1.915  -1.081   3.414  0.00  0.00    +0.075 A 
ATOM      2  C   UNL     1      -2.487  -0.283   4.411  0.00  0.00    +0.042 A 
ATOM      3  C   UNL     1      -2.433   1.100   4.289  0.00  0.00    +0.052 A 
ATOM      4  C   UNL     1      -1.794   1.641   3.149  0.00  0.00    +0.051 A 
ATOM      5  C   UNL     1      -1.553   2.956   2.698  0.00  0.00    +0.145 A 
ATOM      6  N   UNL     1      -0.912   2.896   1.565  0.00  0.00    -0.177 NA
ATOM      7  N   UNL     1      -0.698   1.558   1.213  0.00  0.00    -0.244 N 
ATOM      8  C   UNL     1      -1.247   0.767   2.189  0.00  0.00    +0.160 A 
ATOM      9  N   UNL     1      -1.323  -0.545   2.358  0.00  0.00    -0.227 NA
ENDROOT
BRANCH   1  13
ATOM     10  C   UNL     1      -3.192  -5.400   5.754  0.00  0.00    +0.051 C 
ATOM     11  C   UNL     1      -2.603  -4.503   4.696  0.00  0.00    -0.012 A 
ATOM     12  C   UNL     1      -2.587  -3.152   4.643  0.00  0.00    +0.021 A 
ATOM     13  C   UNL     1      -1.972  -2.555   3.544  0.00  0.00    +0.011 A 
ATOM     14  C   UNL     1      -1.428  -3.363   2.587  0.00  0.00    -0.004 A 
ATOM     15  S   UNL     1      -1.750  -4.954   3.196  0.00  0.00    -0.098 S 
ATOM     16  C   UNL     1      -0.721  -2.970   1.315  0.00  0.00    +0.052 C 
ENDBRANCH   1  13
BRANCH   3  17
ATOM     17  C   UNL     1      -3.025   1.980   5.321  0.00  0.00    +0.261 C 
ATOM     18  O   UNL     1      -2.966   3.187   5.195  0.00  0.00    -0.269 OA
ATOM     19  N   UNL     1      -3.628   1.442   6.399  0.00  0.00    -0.230 N 
ATOM     20  H   UNL     1      -3.675   0.479   6.499  0.00  0.00    +0.173 HD
BRANCH  19  21
ATOM     21  N   UNL     1      -4.189   2.276   7.376  0.00  0.00    -0.230 N 
ATOM     22  C   UNL     1      -4.793   1.738   8.454  0.00  0.00    +0.260 C 
ATOM     23  O   UNL     1      -4.851   0.531   8.579  0.00  0.00    -0.269 OA
ATOM     24  H   UNL     1      -4.143   3.239   7.276  0.00  0.00    +0.173 HD
BRANCH  22  25
ATOM     25  C   UNL     1      -5.385   2.618   9.485  0.00  0.00    +0.038 A 
ATOM     26  C   UNL     1      -5.314   4.005   9.347  0.00  0.00    +0.013 A 
ATOM     27  C   UNL     1      -5.873   4.820  10.310  0.00  0.00    +0.001 A 
ATOM     28  C   UNL     1      -6.492   4.265  11.416  0.00  0.00    +0.000 A 
ATOM     29  C   UNL     1      -6.561   2.890  11.561  0.00  0.00    +0.001 A 
ATOM     30  C   UNL     1      -6.011   2.064  10.603  0.00  0.00    +0.013 A 
ENDBRANCH  22  25
ENDBRANCH  19  21
ENDBRANCH   3  17
BRANCH   7  31
ATOM     31  C   UNL     1      -0.013   1.086   0.008  0.00  0.00    +0.103 C 
ATOM     32  C   UNL     1       1.423   1.615  -0.003  0.00  0.00    +0.032 C 
ATOM     33  C   UNL     1      -0.753   1.593  -1.232  0.00  0.00    +0.032 C 
ENDBRANCH   7  31
TORSDOF 5
