REMARK  Name = ZINC12949867
REMARK  3 active torsions:
REMARK  status: ('A' for Active; 'I' for Inactive)
REMARK    1  A    between atoms: C_1  and  C_2
REMARK    2  A    between atoms: C_8  and  C_10
REMARK    3  A    between atoms: C_13  and  C_15
REMARK                            x       y       z     vdW  Elec       q    Type
REMARK                         _______ _______ _______ _____ _____    ______ ____
ROOT
ATOM      1  C   UNL     1       2.395   4.201   0.058  0.00  0.00    +0.133 A 
ATOM      2  C   UNL     1       3.574   3.568  -0.245  0.00  0.00    +0.080 A 
ATOM      3  S   UNL     1       4.723   4.853  -0.036  0.00  0.00    -0.075 S 
ATOM      4  C   UNL     1       3.569   6.132   0.435  0.00  0.00    +0.110 A 
ATOM      5  N   UNL     1       2.419   5.484   0.395  0.00  0.00    -0.234 NA
ENDROOT
BRANCH   1  13
ATOM      6  C   UNL     1      -3.403   5.934  -1.767  0.00  0.00    +0.007 C 
ATOM      7  C   UNL     1      -2.415   5.428  -0.715  0.00  0.00    -0.011 C 
ATOM      8  C   UNL     1      -1.050   6.082  -0.941  0.00  0.00    +0.022 C 
ATOM      9  C   UNL     1      -0.072   5.600   0.135  0.00  0.00    +0.108 C 
ATOM     10  N   UNL     1      -0.046   4.131   0.126  0.00  0.00    -0.296 N 
ATOM     11  C   UNL     1      -1.316   3.401   0.240  0.00  0.00    +0.108 C 
ATOM     12  C   UNL     1      -2.279   3.908  -0.832  0.00  0.00    +0.022 C 
ATOM     13  C   UNL     1       1.120   3.465   0.009  0.00  0.00    +0.265 C 
ATOM     14  O   UNL     1       1.120   2.258  -0.136  0.00  0.00    -0.268 OA
ENDBRANCH   1  13
BRANCH   4  15
ATOM     15  C   UNL     1       3.832   7.545   0.779  0.00  0.00    +0.014 A 
ATOM     16  C   UNL     1       5.130   8.055   0.766  0.00  0.00    +0.018 A 
ATOM     17  C   UNL     1       5.297   9.356   1.091  0.00  0.00    +0.046 A 
ATOM     18  S   UNL     1       3.627   9.884   1.423  0.00  0.00    -0.104 S 
ATOM     19  C   UNL     1       2.809   8.387   1.114  0.00  0.00    +0.055 A 
ENDBRANCH   4  15
TORSDOF 2
