REMARK  Name = ZINC63194282
REMARK  7 active torsions:
REMARK  status: ('A' for Active; 'I' for Inactive)
REMARK    1  A    between atoms: C_1  and  C_2
REMARK    2  A    between atoms: N_7  and  S_9
REMARK    3  A    between atoms: S_9  and  C_12
REMARK    4  A    between atoms: C_16  and  C_18
REMARK    5  A    between atoms: N_20  and  N_21
REMARK    6  A    between atoms: C_22  and  C_24
REMARK    7  A    between atoms: C_24  and  C_25
REMARK                            x       y       z     vdW  Elec       q    Type
REMARK                         _______ _______ _______ _____ _____    ______ ____
ROOT
ATOM      1  C   UNL     1       3.188  -1.516   6.526  0.00  0.00    +0.260 C 
ATOM      2  O   UNL     1       2.419  -0.590   6.694  0.00  0.00    -0.269 OA
ATOM      3  N   UNL     1       4.231  -1.687   7.362  0.00  0.00    -0.230 N 
ATOM      4  H   UNL     1       4.845  -2.426   7.228  0.00  0.00    +0.173 HD
ENDROOT
BRANCH   1   9
ATOM      5  C   UNL     1       1.712  -3.159   3.488  0.00  0.00    +0.106 A 
ATOM      6  C   UNL     1       2.589  -4.213   3.299  0.00  0.00    +0.028 A 
ATOM      7  C   UNL     1       3.661  -4.391   4.155  0.00  0.00    +0.003 A 
ATOM      8  C   UNL     1       3.861  -3.518   5.205  0.00  0.00    +0.013 A 
ATOM      9  C   UNL     1       2.980  -2.454   5.402  0.00  0.00    +0.040 A 
ATOM     10  C   UNL     1       1.904  -2.277   4.531  0.00  0.00    +0.041 A 
BRANCH   5  11
ATOM     11  S   UNL     1       0.350  -2.942   2.392  0.00  0.00    +0.061 S 
ATOM     12  O   UNL     1      -0.630  -2.199   3.104  0.00  0.00    -0.153 OA
ATOM     13  O   UNL     1       0.077  -4.216   1.825  0.00  0.00    -0.153 OA
BRANCH  11  19
ATOM     14  C   UNL     1      -0.019   1.526   0.010  0.00  0.00    +0.009 C 
ATOM     15  C   UNL     1       0.002  -0.004   0.002  0.00  0.00    +0.002 C 
ATOM     16  C   UNL     1       0.720  -0.498  -1.256  0.00  0.00    +0.006 C 
ATOM     17  C   UNL     1       0.712  -2.028  -1.282  0.00  0.00    +0.017 C 
ATOM     18  C   UNL     1       1.463  -2.559  -0.057  0.00  0.00    +0.109 C 
ATOM     19  N   UNL     1       0.869  -1.973   1.153  0.00  0.00    -0.176 NA
ATOM     20  C   UNL     1       0.744  -0.512   1.242  0.00  0.00    +0.112 C 
ENDBRANCH  11  19
ENDBRANCH   5  11
ENDBRANCH   1   9
BRANCH   3  21
ATOM     21  N   UNL     1       4.428  -0.798   8.427  0.00  0.00    -0.234 N 
ATOM     22  C   UNL     1       5.471  -0.969   9.264  0.00  0.00    +0.233 C 
ATOM     23  O   UNL     1       6.238  -1.893   9.095  0.00  0.00    -0.274 OA
ATOM     24  H   UNL     1       3.814  -0.059   8.562  0.00  0.00    +0.173 HD
BRANCH  22  25
ATOM     25  C   UNL     1       5.683  -0.013  10.409  0.00  0.00    +0.130 C 
BRANCH  25  26
ATOM     26  C   UNL     1       6.907  -0.423  11.186  0.00  0.00    -0.033 C 
ATOM     27  C   UNL     1       8.164   0.054  11.035  0.00  0.00    -0.001 A 
ATOM     28  C   UNL     1       8.745   1.058  10.136  0.00  0.00    +0.010 A 
ATOM     29  C   UNL     1      10.067   1.328  10.221  0.00  0.00    +0.001 A 
ATOM     30  C   UNL     1      10.895   0.674  11.144  0.00  0.00    +0.002 A 
ATOM     31  C   UNL     1      10.435  -0.260  12.002  0.00  0.00    +0.026 A 
ATOM     32  C   UNL     1       9.059  -0.622  12.001  0.00  0.00    +0.043 A 
ATOM     33  N   UNL     1       8.383  -1.484  12.721  0.00  0.00    -0.380 N 
ATOM     34  C   UNL     1       6.979  -1.447  12.296  0.00  0.00    +0.145 C 
ATOM     35  H   UNL     1       8.748  -2.048  13.420  0.00  0.00    +0.160 HD
ENDBRANCH  25  26
ENDBRANCH  22  25
ENDBRANCH   3  21
TORSDOF 6
