REMARK  Name = ZINC10688830
REMARK  10 active torsions:
REMARK  status: ('A' for Active; 'I' for Inactive)
REMARK    1  A    between atoms: C_1  and  C_2
REMARK    2  A    between atoms: C_7  and  C_8
REMARK    3  A    between atoms: N_11  and  C_12
REMARK    4  A    between atoms: C_12  and  C_14
REMARK    5  A    between atoms: C_14  and  C_15
REMARK    6  A    between atoms: C_15  and  C_16
REMARK    7  A    between atoms: C_16  and  S_17
REMARK    8  A    between atoms: S_17  and  C_20
REMARK    9  A    between atoms: C_20  and  C_21
REMARK   10  A    between atoms: N_27  and  C_28
REMARK                            x       y       z     vdW  Elec       q    Type
REMARK                         _______ _______ _______ _____ _____    ______ ____
ROOT
ATOM      1  C   UNL     1      -0.115   1.119  -2.705  0.00  0.00    +0.238 C 
ATOM      2  O   UNL     1       0.139   1.810  -1.737  0.00  0.00    -0.274 OA
ENDROOT
BRANCH   1  13
ATOM      3  C   UNL     1      -6.101  -1.001   1.726  0.00  0.00    +0.044 C 
ATOM      4  C   UNL     1      -4.882  -1.474   0.977  0.00  0.00    -0.046 A 
ATOM      5  C   UNL     1      -4.130  -0.567   0.270  0.00  0.00    +0.030 A 
ATOM      6  C   UNL     1      -2.990  -0.976  -0.439  0.00  0.00    +0.058 A 
ATOM      7  C   UNL     1      -2.668  -2.341  -0.383  0.00  0.00    +0.039 A 
ATOM      8  C   UNL     1      -3.420  -3.247   0.325  0.00  0.00    +0.020 A 
ATOM      9  C   UNL     1      -4.540  -2.816   1.014  0.00  0.00    -0.046 A 
ATOM     10  C   UNL     1      -5.379  -3.795   1.795  0.00  0.00    +0.044 C 
ATOM     11  S   UNL     1      -1.202  -2.454  -1.378  0.00  0.00    -0.052 S 
ATOM     12  C   UNL     1      -1.067  -0.783  -1.821  0.00  0.00    +0.166 A 
ATOM     13  N   UNL     1      -0.145  -0.204  -2.587  0.00  0.00    -0.156 NA
ATOM     14  N   UNL     1      -2.127  -0.206  -1.196  0.00  0.00    -0.324 N 
ATOM     15  C   UNL     1      -2.359   1.234  -1.330  0.00  0.00    +0.151 C 
ENDBRANCH   1  13
BRANCH   1  16
ATOM     16  C   UNL     1      -0.394   1.763  -4.038  0.00  0.00    +0.099 C 
BRANCH  16  17
ATOM     17  C   UNL     1      -0.296   3.284  -3.901  0.00  0.00    +0.032 C 
BRANCH  17  18
ATOM     18  C   UNL     1      -0.579   3.938  -5.254  0.00  0.00    +0.167 C 
BRANCH  18  19
ATOM     19  S   UNL     1      -0.463   5.741  -5.091  0.00  0.00    -0.027 S 
ATOM     20  O   UNL     1      -1.503   6.183  -4.229  0.00  0.00    -0.174 OA
ATOM     21  O   UNL     1       0.882   6.078  -4.779  0.00  0.00    -0.174 OA
BRANCH  19  22
ATOM     22  C   UNL     1      -0.825   6.320  -6.771  0.00  0.00    +0.201 C 
BRANCH  22  23
ATOM     23  C   UNL     1      -0.767   7.825  -6.807  0.00  0.00    -0.027 A 
ATOM     24  C   UNL     1      -1.907   8.567  -6.561  0.00  0.00    +0.005 A 
ATOM     25  C   UNL     1      -1.854   9.948  -6.589  0.00  0.00    +0.000 A 
ATOM     26  C   UNL     1      -0.662  10.587  -6.874  0.00  0.00    +0.000 A 
ATOM     27  C   UNL     1       0.477   9.846  -7.126  0.00  0.00    +0.000 A 
ATOM     28  C   UNL     1       0.425   8.465  -7.093  0.00  0.00    +0.005 A 
ENDBRANCH  22  23
ENDBRANCH  19  22
ENDBRANCH  18  19
ENDBRANCH  17  18
ENDBRANCH  16  17
ENDBRANCH   1  16
TORSDOF 7
