REMARK  Name = ZINC15911006
REMARK  7 active torsions:
REMARK  status: ('A' for Active; 'I' for Inactive)
REMARK    1  A    between atoms: C_1  and  C_2
REMARK    2  A    between atoms: C_5  and  N_9
REMARK    3  A    between atoms: C_7  and  C_8
REMARK    4  A    between atoms: C_13  and  S_15
REMARK    5  A    between atoms: S_15  and  C_16
REMARK    6  A    between atoms: C_16  and  C_17
REMARK    7  A    between atoms: C_29  and  C_33
REMARK                            x       y       z     vdW  Elec       q    Type
REMARK                         _______ _______ _______ _____ _____    ______ ____
ROOT
ATOM      1  C   UNL     1      -0.099   1.817  -0.825  0.00  0.00    +0.150 C 
ENDROOT
BRANCH   1   2
ATOM      2  C   UNL     1       1.292   2.341  -1.071  0.00  0.00    +0.121 A 
ATOM      3  N   UNL     1       1.509   3.681  -1.076  0.00  0.00    -0.310 N 
ATOM      4  H   UNL     1       0.765   4.283  -0.920  0.00  0.00    +0.170 HD
ATOM      5  C   UNL     1       2.736   4.191  -1.292  0.00  0.00    +0.260 A 
ATOM      6  O   UNL     1       2.914   5.397  -1.294  0.00  0.00    -0.267 OA
ATOM      7  C   UNL     1       3.829   3.293  -1.522  0.00  0.00    +0.075 A 
ATOM      8  C   UNL     1       5.232   3.616  -1.777  0.00  0.00    -0.023 A 
ATOM      9  C   UNL     1       6.075   2.578  -1.962  0.00  0.00    -0.004 A 
ATOM     10  S   UNL     1       5.063   1.131  -1.810  0.00  0.00    -0.073 S 
ATOM     11  C   UNL     1       3.508   1.927  -1.497  0.00  0.00    +0.116 A 
ATOM     12  N   UNL     1       2.269   1.497  -1.271  0.00  0.00    -0.226 NA
ATOM     13  C   UNL     1       7.547   2.642  -2.238  0.00  0.00    +0.046 C 
ATOM     14  C   UNL     1       7.900   4.078  -2.650  0.00  0.00    -0.009 C 
ATOM     15  C   UNL     1       7.260   5.047  -1.652  0.00  0.00    +0.008 C 
ATOM     16  C   UNL     1       5.742   5.054  -1.834  0.00  0.00    +0.037 C 
ATOM     17  C   UNL     1       9.420   4.256  -2.640  0.00  0.00    +0.008 C 
ENDBRANCH   1   2
BRANCH   1  18
ATOM     18  S   UNL     1      -0.081   0.004  -0.876  0.00  0.00    -0.089 S 
BRANCH  18  23
ATOM     19  N   UNL     1      -5.309  -2.331   0.038  0.00  0.00    -0.292 N 
ATOM     20  C   UNL     1      -4.170  -1.556  -0.154  0.00  0.00    +0.187 A 
ATOM     21  N   UNL     1      -4.040  -0.244  -0.143  0.00  0.00    -0.125 NA
ATOM     22  N   UNL     1      -2.805   0.323  -0.358  0.00  0.00    -0.133 NA
ATOM     23  C   UNL     1      -1.757  -0.448  -0.575  0.00  0.00    +0.160 A 
ATOM     24  S   UNL     1      -2.493  -2.074  -0.487  0.00  0.00    -0.024 S 
ATOM     25  H   UNL     1      -5.236  -3.297   0.088  0.00  0.00    +0.154 HD
BRANCH  19  30
ATOM     26  C   UNL     1     -10.381   0.159   0.527  0.00  0.00    +0.044 C 
ATOM     27  C   UNL     1      -9.033  -0.502   0.397  0.00  0.00    -0.047 A 
ATOM     28  C   UNL     1      -8.019   0.127  -0.303  0.00  0.00    +0.005 A 
ATOM     29  C   UNL     1      -6.783  -0.476  -0.423  0.00  0.00    +0.023 A 
ATOM     30  C   UNL     1      -6.558  -1.717   0.159  0.00  0.00    +0.033 A 
ATOM     31  C   UNL     1      -7.580  -2.349   0.856  0.00  0.00    +0.027 A 
ATOM     32  C   UNL     1      -8.812  -1.738   0.977  0.00  0.00    -0.046 A 
ATOM     33  C   UNL     1      -9.919  -2.421   1.739  0.00  0.00    +0.044 C 
ENDBRANCH  19  30
ENDBRANCH  18  23
ENDBRANCH   1  18
TORSDOF 4
