REMARK  Name = ZINC39350805
REMARK  12 active torsions:
REMARK  status: ('A' for Active; 'I' for Inactive)
REMARK    1  A    between atoms: C_1  and  C_2
REMARK    2  A    between atoms: C_2  and  C_4
REMARK    3  A    between atoms: C_2  and  N_12
REMARK    4  A    between atoms: C_4  and  C_5
REMARK    5  A    between atoms: C_5  and  C_6
REMARK    6  A    between atoms: C_13  and  C_15
REMARK    7  A    between atoms: C_15  and  C_16
REMARK    8  A    between atoms: C_16  and  C_17
REMARK    9  A    between atoms: N_19  and  N_20
REMARK   10  A    between atoms: C_21  and  C_23
REMARK   11  A    between atoms: C_28  and  O_33
REMARK   12  A    between atoms: O_33  and  C_34
REMARK                            x       y       z     vdW  Elec       q    Type
REMARK                         _______ _______ _______ _____ _____    ______ ____
ROOT
ATOM      1  N   UNL     1       0.585  -2.429   8.314  0.00  0.00    -0.232 N 
ATOM      2  C   UNL     1      -0.102  -2.521   9.470  0.00  0.00    +0.255 C 
ATOM      3  O   UNL     1      -1.268  -2.192   9.511  0.00  0.00    -0.272 OA
ATOM      4  H   UNL     1       1.518  -2.693   8.282  0.00  0.00    +0.173 HD
ENDROOT
BRANCH   2   5
ATOM      5  C   UNL     1       0.580  -3.033  10.713  0.00  0.00    +0.191 C 
ATOM      6  C   UNL     1       1.385  -1.928  11.359  0.00  0.00    +0.016 C 
ATOM      7  C   UNL     1       0.862  -1.755  12.594  0.00  0.00    -0.000 A 
ATOM      8  C   UNL     1       1.194  -0.849  13.698  0.00  0.00    +0.056 A 
ATOM      9  C   UNL     1       0.477  -0.905  14.846  0.00  0.00    +0.129 A 
ATOM     10  C   UNL     1      -0.585  -1.809  15.024  0.00  0.00    +0.048 A 
ATOM     11  C   UNL     1      -0.965  -2.682  14.067  0.00  0.00    +0.029 A 
ATOM     12  C   UNL     1      -0.258  -2.707  12.783  0.00  0.00    +0.043 A 
ATOM     13  N   UNL     1      -0.419  -3.439  11.707  0.00  0.00    -0.370 N 
ATOM     14  H   UNL     1      -1.087  -4.133  11.588  0.00  0.00    +0.161 HD
BRANCH   9  15
ATOM     15  O   UNL     1       0.796  -0.059  15.861  0.00  0.00    -0.456 OA
BRANCH  15  16
ATOM     16  C   UNL     1       1.314  -0.593  16.998  0.00  0.00    +0.128 A 
ATOM     17  C   UNL     1       1.628  -1.944  17.051  0.00  0.00    +0.046 A 
ATOM     18  C   UNL     1       2.155  -2.484  18.208  0.00  0.00    +0.004 A 
ATOM     19  C   UNL     1       2.370  -1.681  19.312  0.00  0.00    +0.000 A 
ATOM     20  C   UNL     1       2.058  -0.335  19.262  0.00  0.00    +0.004 A 
ATOM     21  C   UNL     1       1.536   0.212  18.106  0.00  0.00    +0.046 A 
ENDBRANCH  15  16
ENDBRANCH   9  15
ENDBRANCH   2   5
BRANCH   1  24
ATOM     22  C   UNL     1       0.638  -1.861   6.003  0.00  0.00    +0.230 C 
ATOM     23  O   UNL     1       1.804  -2.190   5.963  0.00  0.00    -0.274 OA
ATOM     24  N   UNL     1      -0.049  -1.953   7.159  0.00  0.00    -0.234 N 
ATOM     25  H   UNL     1      -0.982  -1.690   7.191  0.00  0.00    +0.173 HD
BRANCH  22  26
ATOM     26  C   UNL     1      -0.044  -1.349   4.760  0.00  0.00    +0.106 C 
BRANCH  26  27
ATOM     27  C   UNL     1       0.951  -1.345   3.598  0.00  0.00    +0.105 C 
BRANCH  27  29
ATOM     28  N   UNL     1       0.955  -0.741   1.199  0.00  0.00    -0.313 N 
ATOM     29  C   UNL     1       0.269  -0.833   2.355  0.00  0.00    +0.214 C 
ATOM     30  O   UNL     1      -0.898  -0.504   2.396  0.00  0.00    -0.276 OA
ATOM     31  H   UNL     1       1.888  -1.004   1.167  0.00  0.00    +0.149 HD
BRANCH  28  33
ATOM     32  C   UNL     1       0.345   1.286  -0.026  0.00  0.00    +0.028 C 
ATOM     33  C   UNL     1       0.292  -0.243  -0.009  0.00  0.00    +0.070 C 
BRANCH  33  34
ATOM     34  C   UNL     1       1.007  -0.792  -1.246  0.00  0.00    +0.026 C 
BRANCH  34  35
ATOM     35  C   UNL     1       0.847  -2.313  -1.294  0.00  0.00    +0.037 C 
BRANCH  35  36
ATOM     36  C   UNL     1       1.550  -2.854  -2.512  0.00  0.00    -0.047 A 
ATOM     37  C   UNL     1       0.869  -2.970  -3.709  0.00  0.00    +0.003 A 
ATOM     38  C   UNL     1       1.514  -3.466  -4.826  0.00  0.00    +0.000 A 
ATOM     39  C   UNL     1       2.841  -3.845  -4.747  0.00  0.00    +0.000 A 
ATOM     40  C   UNL     1       3.523  -3.728  -3.550  0.00  0.00    +0.000 A 
ATOM     41  C   UNL     1       2.879  -3.228  -2.434  0.00  0.00    +0.003 A 
ENDBRANCH  35  36
ENDBRANCH  34  35
ENDBRANCH  33  34
ENDBRANCH  28  33
ENDBRANCH  27  29
ENDBRANCH  26  27
ENDBRANCH  22  26
ENDBRANCH   1  24
TORSDOF 11
