REMARK  Name = ZINC08240027
REMARK  4 active torsions:
REMARK  status: ('A' for Active; 'I' for Inactive)
REMARK    1  A    between atoms: C_1  and  C_2
REMARK    2  A    between atoms: C_2  and  C_4
REMARK    3  A    between atoms: C_2  and  N_13
REMARK    4  A    between atoms: C_14  and  C_16
REMARK                            x       y       z     vdW  Elec       q    Type
REMARK                         _______ _______ _______ _____ _____    ______ ____
ROOT
ATOM      1  N   UNL     1       1.178  -0.662  -0.013  0.00  0.00    -0.302 N 
ATOM      2  C   UNL     1       0.002  -0.004   0.002  0.00  0.00    +0.245 C 
ATOM      3  O   UNL     1      -1.042  -0.626   0.009  0.00  0.00    -0.270 OA
ATOM      4  H   UNL     1       2.012  -0.166  -0.018  0.00  0.00    +0.150 HD
ENDROOT
BRANCH   2   5
ATOM      5  C   UNL     1      -0.018   1.472   0.010  0.00  0.00    +0.042 A 
ATOM      6  C   UNL     1      -1.237   2.156   0.020  0.00  0.00    +0.062 A 
ATOM      7  C   UNL     1      -1.252   3.537   0.033  0.00  0.00    +0.168 A 
ATOM      8  C   UNL     1      -0.051   4.247   0.025  0.00  0.00    +0.184 A 
ATOM      9  C   UNL     1       1.160   3.567   0.010  0.00  0.00    +0.087 A 
ATOM     10  C   UNL     1       1.181   2.188   0.003  0.00  0.00    +0.037 A 
ATOM     11 CL   UNL     1       2.652   4.455   0.000  0.00  0.00    -0.080 Cl
ATOM     12  O   UNL     1      -0.335   5.581   0.035  0.00  0.00    -0.451 OA
ATOM     13  C   UNL     1      -1.706   5.680   0.462  0.00  0.00    +0.466 C 
ATOM     14  O   UNL     1      -2.285   4.429   0.047  0.00  0.00    -0.453 OA
ENDBRANCH   2   5
BRANCH   1  16
ATOM     15  C   UNL     1       1.066  -2.631  -1.459  0.00  0.00    +0.036 C 
ATOM     16  C   UNL     1       1.198  -2.127  -0.021  0.00  0.00    +0.136 C 
BRANCH  16  17
ATOM     17  C   UNL     1       2.498  -2.615   0.565  0.00  0.00    +0.126 A 
ATOM     18  C   UNL     1       2.623  -3.667   1.385  0.00  0.00    +0.055 A 
ATOM     19  C   UNL     1       4.053  -3.773   1.700  0.00  0.00    +0.020 A 
ATOM     20  C   UNL     1       4.817  -4.637   2.483  0.00  0.00    +0.011 A 
ATOM     21  C   UNL     1       6.170  -4.457   2.567  0.00  0.00    +0.001 A 
ATOM     22  C   UNL     1       6.785  -3.420   1.880  0.00  0.00    +0.004 A 
ATOM     23  C   UNL     1       6.045  -2.556   1.102  0.00  0.00    +0.047 A 
ATOM     24  C   UNL     1       4.670  -2.721   1.002  0.00  0.00    +0.135 A 
ATOM     25  O   UNL     1       3.702  -2.061   0.335  0.00  0.00    -0.458 OA
ENDBRANCH  16  17
ENDBRANCH   1  16
TORSDOF 3
