REMARK  Name = ZINC12716302
REMARK  14 active torsions:
REMARK  status: ('A' for Active; 'I' for Inactive)
REMARK    1  A    between atoms: C_1  and  C_2
REMARK    2  A    between atoms: C_5  and  C_7
REMARK    3  A    between atoms: N_10  and  C_12
REMARK    4  A    between atoms: C_12  and  C_13
REMARK    5  A    between atoms: N_15  and  C_16
REMARK    6  A    between atoms: N_15  and  C_23
REMARK    7  A    between atoms: C_16  and  C_17
REMARK    8  A    between atoms: C_23  and  C_25
REMARK    9  A    between atoms: C_23  and  C_31
REMARK   10  A    between atoms: C_28  and  C_30
REMARK   11  A    between atoms: N_33  and  C_34
REMARK   12  A    between atoms: C_34  and  C_35
REMARK   13  A    between atoms: C_34  and  C_36
REMARK   14  A    between atoms: C_34  and  C_37
REMARK                            x       y       z     vdW  Elec       q    Type
REMARK                         _______ _______ _______ _____ _____    ______ ____
ROOT
ATOM      1  C   UNL     1       0.199   1.542  -0.188  0.00  0.00    +0.240 C 
ATOM      2  O   UNL     1       0.094   0.337  -0.283  0.00  0.00    -0.273 OA
ATOM      3  N   UNL     1       1.417   2.103  -0.047  0.00  0.00    -0.279 N 
ENDROOT
BRANCH   1   4
ATOM      4  C   UNL     1      -1.030   2.412  -0.233  0.00  0.00    +0.264 C 
BRANCH   4   8
ATOM      5  C   UNL     1      -3.786   0.465  -1.272  0.00  0.00    +0.239 A 
ATOM      6  N   UNL     1      -3.885   0.382   0.064  0.00  0.00    -0.105 NA
ATOM      7  N   UNL     1      -2.913   1.068   0.563  0.00  0.00    -0.045 NA
ATOM      8  N   UNL     1      -2.218   1.570  -0.397  0.00  0.00    -0.154 N 
ATOM      9  N   UNL     1      -2.734   1.221  -1.525  0.00  0.00    -0.127 NA
BRANCH   5  14
ATOM     10  C   UNL     1      -5.776  -0.909  -5.670  0.00  0.00    +0.086 C 
ATOM     11  C   UNL     1      -5.558  -0.767  -4.186  0.00  0.00    +0.103 A 
ATOM     12  C   UNL     1      -6.321  -1.319  -3.223  0.00  0.00    +0.045 A 
ATOM     13  C   UNL     1      -5.763  -0.940  -1.986  0.00  0.00    +0.053 A 
ATOM     14  C   UNL     1      -4.683  -0.163  -2.265  0.00  0.00    +0.175 A 
ATOM     15  O   UNL     1      -4.569  -0.070  -3.604  0.00  0.00    -0.457 OA
ENDBRANCH   5  14
ENDBRANCH   4   8
ENDBRANCH   1   4
BRANCH   3  16
ATOM     16  C   UNL     1       1.544   3.558   0.069  0.00  0.00    +0.140 C 
BRANCH  16  17
ATOM     17  C   UNL     1       1.608   3.948   1.547  0.00  0.00    +0.136 C 
ATOM     18  C   UNL     1       1.875   5.460   1.678  0.00  0.00    +0.035 C 
ATOM     19  C   UNL     1       0.666   5.990   2.487  0.00  0.00    +0.031 C 
ATOM     20  C   UNL     1       0.149   4.703   3.179  0.00  0.00    +0.160 C 
ATOM     21  O   UNL     1       0.345   3.680   2.179  0.00  0.00    -0.375 OA
ENDBRANCH  16  17
ENDBRANCH   3  16
BRANCH   3  22
ATOM     22  C   UNL     1       2.613   1.258  -0.009  0.00  0.00    +0.228 C 
BRANCH  22  23
ATOM     23  C   UNL     1       2.539   0.336   1.181  0.00  0.00    +0.135 A 
ATOM     24  C   UNL     1       3.568   0.001   1.981  0.00  0.00    +0.047 A 
ATOM     25  C   UNL     1       3.054  -0.876   2.964  0.00  0.00    +0.045 A 
ATOM     26  C   UNL     1       1.744  -1.030   2.701  0.00  0.00    +0.102 A 
ATOM     27  O   UNL     1       1.438  -0.294   1.620  0.00  0.00    -0.462 OA
ATOM     28  C   UNL     1       0.782  -1.885   3.486  0.00  0.00    +0.086 C 
ENDBRANCH  22  23
BRANCH  22  29
ATOM     29  C   UNL     1       2.691   0.440  -1.273  0.00  0.00    +0.242 C 
ATOM     30  O   UNL     1       1.775   0.465  -2.068  0.00  0.00    -0.273 OA
ATOM     31  N   UNL     1       3.777  -0.318  -1.519  0.00  0.00    -0.309 N 
ATOM     32  H   UNL     1       4.509  -0.338  -0.882  0.00  0.00    +0.149 HD
BRANCH  31  33
ATOM     33  C   UNL     1       3.852  -1.113  -2.747  0.00  0.00    +0.026 C 
ATOM     34  C   UNL     1       3.767  -0.185  -3.961  0.00  0.00    +0.031 C 
ATOM     35  C   UNL     1       5.178  -1.875  -2.781  0.00  0.00    +0.031 C 
ATOM     36  C   UNL     1       2.691  -2.108  -2.783  0.00  0.00    +0.031 C 
ENDBRANCH  31  33
ENDBRANCH  22  29
ENDBRANCH   3  22
TORSDOF 9
