REMARK  Name = ZINC05137593
REMARK  5 active torsions:
REMARK  status: ('A' for Active; 'I' for Inactive)
REMARK    1  A    between atoms: C_1  and  C_2
REMARK    2  A    between atoms: C_2  and  C_4
REMARK    3  A    between atoms: C_2  and  O_16
REMARK    4  A    between atoms: O_16  and  C_17
REMARK    5  A    between atoms: C_17  and  C_19
REMARK                            x       y       z     vdW  Elec       q    Type
REMARK                         _______ _______ _______ _____ _____    ______ ____
ROOT
ATOM      1  C   UNL     1       1.620  -4.669   0.337  0.00  0.00    +0.060 C 
ATOM      2  C   UNL     1       0.198  -4.232  -0.020  0.00  0.00    +0.239 C 
ENDROOT
BRANCH   2   3
ATOM      3  C   UNL     1       0.119  -2.727  -0.012  0.00  0.00    +0.151 A 
ATOM      4  N   UNL     1      -1.110  -2.147   0.003  0.00  0.00    -0.307 N 
ATOM      5  H   UNL     1      -1.929  -2.720   0.009  0.00  0.00    +0.170 HD
ATOM      6  C   UNL     1      -1.235  -0.799   0.011  0.00  0.00    +0.259 A 
ATOM      7  O   UNL     1      -2.329  -0.266   0.024  0.00  0.00    -0.267 OA
ATOM      8  C   UNL     1       0.002  -0.004   0.002  0.00  0.00    +0.065 A 
ATOM      9  C   UNL     1      -0.017   1.389   0.010  0.00  0.00    +0.015 A 
ATOM     10  C   UNL     1       1.173   2.084   0.002  0.00  0.00    +0.001 A 
ATOM     11  C   UNL     1       2.386   1.408  -0.014  0.00  0.00    +0.002 A 
ATOM     12  C   UNL     1       2.426   0.032  -0.021  0.00  0.00    +0.028 A 
ATOM     13  C   UNL     1       1.234  -0.695  -0.013  0.00  0.00    +0.078 A 
ATOM     14  N   UNL     1       1.227  -2.051  -0.020  0.00  0.00    -0.230 NA
ENDBRANCH   2   3
BRANCH   2  15
ATOM     15  O   UNL     1      -0.143  -4.727  -1.341  0.00  0.00    -0.450 OA
BRANCH  15  16
ATOM     16  C   UNL     1      -0.720  -5.944  -1.409  0.00  0.00    +0.342 C 
ATOM     17  O   UNL     1      -0.932  -6.574  -0.391  0.00  0.00    -0.245 OA
BRANCH  16  18
ATOM     18  C   UNL     1      -1.092  -6.509  -2.711  0.00  0.00    +0.084 A 
ATOM     19  C   UNL     1      -0.918  -5.927  -3.934  0.00  0.00    +0.098 A 
ATOM     20  N   UNL     1      -1.385  -6.750  -4.903  0.00  0.00    -0.360 N 
ATOM     21  H   UNL     1      -1.369  -6.551  -5.852  0.00  0.00    +0.165 HD
ATOM     22  C   UNL     1      -1.885  -7.911  -4.350  0.00  0.00    +0.047 A 
ATOM     23  C   UNL     1      -1.721  -7.819  -2.958  0.00  0.00    +0.014 A 
ATOM     24  C   UNL     1      -2.136  -8.863  -2.136  0.00  0.00    +0.011 A 
ATOM     25  C   UNL     1      -2.705  -9.987  -2.695  0.00  0.00    +0.001 A 
ATOM     26  C   UNL     1      -2.865 -10.080  -4.070  0.00  0.00    +0.002 A 
ATOM     27  C   UNL     1      -2.466  -9.051  -4.895  0.00  0.00    +0.026 A 
ENDBRANCH  16  18
ENDBRANCH  15  16
ENDBRANCH   2  15
TORSDOF 4
