REMARK  Name = ZINC61592575
REMARK  8 active torsions:
REMARK  status: ('A' for Active; 'I' for Inactive)
REMARK    1  A    between atoms: C_1  and  C_2
REMARK    2  A    between atoms: C_2  and  C_3
REMARK    3  A    between atoms: C_3  and  C_5
REMARK    4  A    between atoms: C_3  and  N_22
REMARK    5  A    between atoms: C_5  and  C_7
REMARK    6  A    between atoms: C_5  and  S_13
REMARK    7  A    between atoms: S_13  and  C_14
REMARK    8  A    between atoms: N_20  and  C_21
REMARK                            x       y       z     vdW  Elec       q    Type
REMARK                         _______ _______ _______ _____ _____    ______ ____
ROOT
ATOM      1  C   UNL     1      -1.428  -2.041  -0.249  0.00  0.00    +0.076 C 
ENDROOT
BRANCH   1   2
ATOM      2  C   UNL     1      -2.889  -2.364  -0.431  0.00  0.00    +0.003 A 
ATOM      3  C   UNL     1      -3.658  -3.252   0.246  0.00  0.00    +0.027 A 
ATOM      4  C   UNL     1      -4.991  -3.383  -0.096  0.00  0.00    +0.025 A 
ATOM      5  C   UNL     1      -5.490  -2.619  -1.099  0.00  0.00    +0.060 A 
ATOM      6  S   UNL     1      -4.058  -1.671  -1.588  0.00  0.00    -0.099 S 
ATOM      7 BR   UNL     1      -6.101  -4.609   0.820  0.00  0.00    -0.050 Br
ENDBRANCH   1   2
BRANCH   1   8
ATOM      8  C   UNL     1      -1.274  -0.562   0.111  0.00  0.00    -0.057 C 
BRANCH   8   9
ATOM      9  N   UNL     1      -2.063  -0.267   1.315  0.00  0.00    +0.381 N 
ATOM     10  H   UNL     1      -1.961   0.709   1.552  0.00  0.00    -0.090 HD
ATOM     11  H   UNL     1      -3.035  -0.470   1.137  0.00  0.00    -0.090 HD
ATOM     12  H   UNL     1      -1.735  -0.836   2.080  0.00  0.00    -0.090 HD
ENDBRANCH   8   9
BRANCH   8  14
ATOM     13  C   UNL     1       0.374   1.249   0.609  0.00  0.00    +0.002 C 
ATOM     14  C   UNL     1       0.200  -0.254   0.380  0.00  0.00    -0.018 C 
ENDBRANCH   8  14
ENDBRANCH   1   8
BRANCH   1  15
ATOM     15  S   UNL     1      -0.537  -2.384  -1.792  0.00  0.00    -0.079 S 
BRANCH  15  16
ATOM     16  C   UNL     1      -0.611  -4.137  -1.946  0.00  0.00    +0.192 A 
ATOM     17  N   UNL     1      -1.110  -4.957  -1.067  0.00  0.00    -0.145 NA
ATOM     18  N   UNL     1      -0.979  -6.260  -1.564  0.00  0.00    -0.226 N 
ATOM     19  H   UNL     1      -1.264  -7.075  -1.122  0.00  0.00    +0.194 HD
ATOM     20  C   UNL     1      -0.383  -6.173  -2.771  0.00  0.00    +0.345 A 
ATOM     21  O   UNL     1      -0.104  -7.105  -3.505  0.00  0.00    -0.245 OA
ATOM     22  N   UNL     1      -0.157  -4.868  -3.020  0.00  0.00    -0.274 N 
ATOM     23  C   UNL     1       0.470  -4.322  -4.226  0.00  0.00    +0.156 C 
ENDBRANCH  15  16
ENDBRANCH   1  15
TORSDOF 6
