REMARK  Name = ZINC12790852
REMARK  10 active torsions:
REMARK  status: ('A' for Active; 'I' for Inactive)
REMARK    1  A    between atoms: C_1  and  C_2
REMARK    2  A    between atoms: C_2  and  C_3
REMARK    3  A    between atoms: C_2  and  C_4
REMARK    4  A    between atoms: C_4  and  C_5
REMARK    5  A    between atoms: C_5  and  N_6
REMARK    6  A    between atoms: C_10  and  C_25
REMARK    7  A    between atoms: C_15  and  S_16
REMARK    8  A    between atoms: S_16  and  C_17
REMARK    9  A    between atoms: C_17  and  C_18
REMARK   10  A    between atoms: N_23  and  C_24
REMARK                            x       y       z     vdW  Elec       q    Type
REMARK                         _______ _______ _______ _____ _____    ______ ____
ROOT
ATOM      1  N   UNL     1       0.651  -1.978   1.293  0.00  0.00    -0.287 N 
ATOM      2  C   UNL     1       1.717  -2.621   0.784  0.00  0.00    +0.264 A 
ATOM      3  O   UNL     1       2.660  -1.992   0.333  0.00  0.00    -0.267 OA
ATOM      4  C   UNL     1       1.732  -4.049   0.778  0.00  0.00    +0.080 A 
ATOM      5  C   UNL     1       2.764  -4.958   0.286  0.00  0.00    +0.010 A 
ATOM      6  C   UNL     1       2.556  -6.294   0.387  0.00  0.00    +0.057 A 
ATOM      7  S   UNL     1       0.952  -6.407   1.154  0.00  0.00    -0.076 S 
ATOM      8  C   UNL     1       0.598  -4.676   1.322  0.00  0.00    +0.117 A 
ATOM      9  N   UNL     1      -0.424  -3.982   1.810  0.00  0.00    -0.216 NA
ATOM     10  C   UNL     1      -0.410  -2.665   1.807  0.00  0.00    +0.173 A 
ENDROOT
BRANCH   5  11
ATOM     11  C   UNL     1       4.010  -4.433  -0.310  0.00  0.00    +0.021 A 
ATOM     12  C   UNL     1       5.308  -4.760  -0.024  0.00  0.00    +0.016 A 
ATOM     13  C   UNL     1       6.318  -4.132  -0.721  0.00  0.00    +0.008 A 
ATOM     14  C   UNL     1       5.997  -3.205  -1.659  0.00  0.00    +0.046 A 
ATOM     15  S   UNL     1       4.214  -3.200  -1.585  0.00  0.00    -0.097 S 
ENDBRANCH   5  11
BRANCH   1  16
ATOM     16  C   UNL     1       0.631  -0.513   1.301  0.00  0.00    +0.127 C 
BRANCH  16  17
ATOM     17  C   UNL     1       0.002  -0.004   0.002  0.00  0.00    +0.025 C 
BRANCH  17  19
ATOM     18  C   UNL     1       1.417   2.055  -0.000  0.00  0.00    +0.007 C 
ATOM     19  C   UNL     1      -0.019   1.526   0.010  0.00  0.00    -0.016 C 
ATOM     20  C   UNL     1      -0.759   2.033  -1.229  0.00  0.00    +0.007 C 
ENDBRANCH  17  19
ENDBRANCH  16  17
ENDBRANCH   1  16
BRANCH  10  21
ATOM     21  S   UNL     1      -1.782  -1.779   2.469  0.00  0.00    -0.078 S 
BRANCH  21  22
ATOM     22  C   UNL     1      -2.833  -3.162   2.979  0.00  0.00    +0.173 C 
BRANCH  22  23
ATOM     23  C   UNL     1      -4.102  -2.628   3.592  0.00  0.00    +0.231 C 
ATOM     24  O   UNL     1      -4.279  -1.432   3.676  0.00  0.00    -0.274 OA
ATOM     25  N   UNL     1      -5.041  -3.482   4.047  0.00  0.00    -0.240 N 
ATOM     26  C   UNL     1      -6.176  -3.005   4.595  0.00  0.00    +0.306 C 
ATOM     27  O   UNL     1      -6.353  -1.806   4.679  0.00  0.00    -0.252 OA
ATOM     28  N   UNL     1      -7.114  -3.858   5.050  0.00  0.00    -0.302 N 
ATOM     29  C   UNL     1      -8.348  -3.340   5.646  0.00  0.00    +0.129 C 
ATOM     30  H   UNL     1      -4.899  -4.439   3.980  0.00  0.00    +0.159 HD
ATOM     31  H   UNL     1      -6.973  -4.816   4.983  0.00  0.00    +0.150 HD
ENDBRANCH  22  23
ENDBRANCH  21  22
ENDBRANCH  10  21
TORSDOF 7
