REMARK  Name = ZINC20876961
REMARK  13 active torsions:
REMARK  status: ('A' for Active; 'I' for Inactive)
REMARK    1  A    between atoms: C_1  and  C_2
REMARK    2  A    between atoms: C_2  and  C_3
REMARK    3  A    between atoms: C_2  and  C_4
REMARK    4  A    between atoms: C_2  and  N_5
REMARK    5  A    between atoms: N_5  and  C_6
REMARK    6  A    between atoms: C_6  and  C_7
REMARK    7  A    between atoms: C_9  and  O_28
REMARK    8  A    between atoms: C_10  and  O_14
REMARK    9  A    between atoms: O_14  and  C_15
REMARK   10  A    between atoms: C_15  and  C_16
REMARK   11  A    between atoms: C_16  and  C_18
REMARK   12  A    between atoms: C_16  and  O_27
REMARK   13  A    between atoms: O_28  and  C_29
REMARK                            x       y       z     vdW  Elec       q    Type
REMARK                         _______ _______ _______ _____ _____    ______ ____
ROOT
ATOM      1  C   UNL     1       0.706  -2.034   1.137  0.00  0.00    -0.060 A 
ATOM      2  C   UNL     1       1.738  -2.706   0.509  0.00  0.00    +0.051 A 
ATOM      3  C   UNL     1       1.740  -4.091   0.469  0.00  0.00    +0.163 A 
ATOM      4  C   UNL     1       0.702  -4.803   1.062  0.00  0.00    +0.176 A 
ATOM      5  C   UNL     1      -0.329  -4.123   1.690  0.00  0.00    +0.063 A 
ATOM      6  C   UNL     1      -0.322  -2.740   1.731  0.00  0.00    +0.021 A 
ATOM      7 BR   UNL     1      -1.742  -5.087   2.498  0.00  0.00    -0.046 Br
ENDROOT
BRANCH   3   8
ATOM      8  O   UNL     1       2.755  -4.753  -0.149  0.00  0.00    -0.491 OA
ATOM      9  C   UNL     1       3.787  -3.957  -0.736  0.00  0.00    +0.277 C 
ENDBRANCH   3   8
BRANCH   1  10
ATOM     10  C   UNL     1       0.706  -0.527   1.180  0.00  0.00    -0.046 C 
BRANCH  10  11
ATOM     11  N   UNL     1       0.002  -0.004   0.002  0.00  0.00    +0.385 N 
ATOM     12  H   UNL     1      -1.030  -0.385   0.010  0.00  0.00    -0.085 HD
ATOM     13  H   UNL     1       0.517  -0.359  -0.903  0.00  0.00    -0.085 HD
BRANCH  11  15
ATOM     14  C   UNL     1       1.417   1.994  -0.001  0.00  0.00    -0.011 C 
ATOM     15  C   UNL     1      -0.018   1.465   0.010  0.00  0.00    -0.077 C 
ATOM     16  C   UNL     1      -0.758   1.972  -1.229  0.00  0.00    -0.011 C 
ATOM     17  C   UNL     1      -0.734   1.958   1.269  0.00  0.00    -0.011 C 
ENDBRANCH  11  15
ENDBRANCH  10  11
ENDBRANCH   1  10
BRANCH   4  18
ATOM     18  O   UNL     1       0.700  -6.163   1.024  0.00  0.00    -0.484 OA
BRANCH  18  19
ATOM     19  C   UNL     1       1.346  -6.842   2.103  0.00  0.00    +0.265 C 
BRANCH  19  20
ATOM     20  C   UNL     1       1.242  -8.354   1.888  0.00  0.00    +0.182 C 
BRANCH  20  21
ATOM     21  C   UNL     1       1.814  -9.071   3.084  0.00  0.00    -0.012 A 
ATOM     22  C   UNL     1       3.183  -9.218   3.209  0.00  0.00    +0.010 A 
ATOM     23  C   UNL     1       3.713  -9.875   4.304  0.00  0.00    +0.050 A 
ATOM     24  C   UNL     1       2.873 -10.389   5.278  0.00  0.00    +0.166 A 
ATOM     25  C   UNL     1       1.494 -10.241   5.152  0.00  0.00    +0.167 A 
ATOM     26  C   UNL     1       0.970  -9.576   4.055  0.00  0.00    +0.055 A 
ATOM     27  O   UNL     1       0.891 -10.825   6.228  0.00  0.00    -0.453 OA
ATOM     28  C   UNL     1       1.928 -10.973   7.216  0.00  0.00    +0.466 C 
ATOM     29  O   UNL     1       3.134 -11.066   6.434  0.00  0.00    -0.453 OA
ENDBRANCH  20  21
BRANCH  20  30
ATOM     30  O   UNL     1       1.973  -8.721   0.717  0.00  0.00    -0.384 OA
ATOM     31  H   UNL     1       2.013  -9.773   0.401  0.00  0.00    +0.210 HD
ENDBRANCH  20  30
ENDBRANCH  19  20
ENDBRANCH  18  19
ENDBRANCH   4  18
TORSDOF 9
