REMARK  Name = ZINC20080003
REMARK  6 active torsions:
REMARK  status: ('A' for Active; 'I' for Inactive)
REMARK    1  A    between atoms: C_1  and  N_2
REMARK    2  A    between atoms: C_13  and  C_16
REMARK    3  A    between atoms: C_18  and  O_25
REMARK    4  A    between atoms: C_19  and  O_23
REMARK    5  A    between atoms: O_23  and  C_24
REMARK    6  A    between atoms: O_25  and  C_26
REMARK                            x       y       z     vdW  Elec       q    Type
REMARK                         _______ _______ _______ _____ _____    ______ ____
ROOT
ATOM      1  C   UNL     1       0.005   1.281  -2.410  0.00  0.00    -0.096 C 
ATOM      2  N   UNL     1      -0.737   1.580  -1.178  0.00  0.00    +0.381 N 
ATOM      3  C   UNL     1      -1.005   3.020  -1.061  0.00  0.00    -0.074 C 
ATOM      4  C   UNL     1      -2.078   3.271   0.002  0.00  0.00    +0.018 C 
ATOM      5  C   UNL     1      -1.661   2.551   1.280  0.00  0.00    -0.027 A 
ATOM      6  C   UNL     1      -0.724   1.574   1.230  0.00  0.00    -0.021 A 
ATOM      7  S   UNL     1      -0.549   1.025   2.905  0.00  0.00    -0.080 S 
ATOM      8  C   UNL     1      -1.689   2.064   3.649  0.00  0.00    +0.080 A 
ATOM      9  C   UNL     1      -2.202   2.838   2.596  0.00  0.00    +0.068 A 
ATOM     10  C   UNL     1      -3.234   3.847   2.928  0.00  0.00    +0.248 C 
ATOM     11  O   UNL     1      -3.816   4.469   2.059  0.00  0.00    -0.270 OA
ATOM     12  N   UNL     1      -3.504   4.048   4.235  0.00  0.00    -0.289 N 
ATOM     13  C   UNL     1      -2.686   3.509   5.318  0.00  0.00    +0.190 C 
ATOM     14  N   UNL     1      -2.101   2.208   4.949  0.00  0.00    -0.316 N 
ATOM     15  C   UNL     1      -0.013   1.086   0.008  0.00  0.00    -0.036 C 
ATOM     16  H   UNL     1      -4.393   4.653   4.466  0.00  0.00    +0.151 HD
ATOM     17  H   UNL     1      -2.012   1.411   5.702  0.00  0.00    +0.149 HD
ATOM     18  H   UNL     1      -1.704   1.058  -1.235  0.00  0.00    -0.082 HD
ENDROOT
BRANCH  13  19
ATOM     19  C   UNL     1      -1.576   4.481   5.626  0.00  0.00    -0.005 A 
ATOM     20  C   UNL     1      -1.755   5.831   5.389  0.00  0.00    +0.056 A 
ATOM     21  C   UNL     1      -0.738   6.726   5.677  0.00  0.00    +0.163 A 
ATOM     22  C   UNL     1       0.468   6.262   6.195  0.00  0.00    +0.175 A 
ATOM     23  C   UNL     1       0.643   4.906   6.426  0.00  0.00    +0.063 A 
ATOM     24  C   UNL     1      -0.379   4.019   6.141  0.00  0.00    +0.026 A 
ATOM     25 BR   UNL     1       2.279   4.270   7.129  0.00  0.00    -0.046 Br
BRANCH  22  26
ATOM     26  O   UNL     1       1.472   7.136   6.474  0.00  0.00    -0.490 OA
ATOM     27  C   UNL     1       2.403   7.410   5.426  0.00  0.00    +0.277 C 
ENDBRANCH  22  26
BRANCH  21  28
ATOM     28  O   UNL     1      -0.914   8.055   5.449  0.00  0.00    -0.491 OA
ATOM     29  C   UNL     1      -2.177   8.460   4.916  0.00  0.00    +0.277 C 
ENDBRANCH  21  28
ENDBRANCH  13  19
TORSDOF 3
