REMARK  Name = ZINC10441227
REMARK  6 active torsions:
REMARK  status: ('A' for Active; 'I' for Inactive)
REMARK    1  A    between atoms: C_1  and  C_2
REMARK    2  A    between atoms: C_8  and  N_10
REMARK    3  A    between atoms: C_11  and  C_13
REMARK    4  A    between atoms: C_13  and  S_14
REMARK    5  A    between atoms: S_14  and  C_15
REMARK    6  A    between atoms: N_25  and  C_26
REMARK                            x       y       z     vdW  Elec       q    Type
REMARK                         _______ _______ _______ _____ _____    ______ ____
ROOT
ATOM      1  C   UNL     1       2.223  -4.893   3.935  0.00  0.00    +0.177 A 
ATOM      2  N   UNL     1       1.204  -5.330   3.236  0.00  0.00    -0.223 NA
ATOM      3  C   UNL     1       0.982  -6.648   3.058  0.00  0.00    +0.079 A 
ATOM      4  C   UNL     1      -0.102  -7.114   2.308  0.00  0.00    +0.028 A 
ATOM      5  C   UNL     1      -0.292  -8.458   2.158  0.00  0.00    +0.002 A 
ATOM      6  C   UNL     1       0.576  -9.373   2.740  0.00  0.00    +0.001 A 
ATOM      7  C   UNL     1       1.645  -8.948   3.480  0.00  0.00    +0.015 A 
ATOM      8  C   UNL     1       1.864  -7.582   3.649  0.00  0.00    +0.065 A 
ATOM      9  C   UNL     1       2.995  -7.069   4.433  0.00  0.00    +0.267 A 
ATOM     10  O   UNL     1       3.788  -7.823   4.966  0.00  0.00    -0.267 OA
ATOM     11  N   UNL     1       3.123  -5.726   4.541  0.00  0.00    -0.253 N 
ENDROOT
BRANCH  11  12
ATOM     12  C   UNL     1       4.186  -5.184   5.277  0.00  0.00    +0.087 A 
ATOM     13  C   UNL     1       4.032  -4.924   6.632  0.00  0.00    +0.032 A 
ATOM     14  C   UNL     1       5.082  -4.395   7.358  0.00  0.00    +0.040 A 
ATOM     15  C   UNL     1       6.285  -4.114   6.733  0.00  0.00    +0.126 A 
ATOM     16  C   UNL     1       6.441  -4.366   5.380  0.00  0.00    +0.078 A 
ATOM     17  C   UNL     1       5.395  -4.900   4.651  0.00  0.00    +0.150 A 
ATOM     18  F   UNL     1       5.546  -5.146   3.331  0.00  0.00    -0.203 F 
ATOM     19  F   UNL     1       7.309  -3.592   7.444  0.00  0.00    -0.205 F 
ENDBRANCH  11  12
BRANCH   1  20
ATOM     20  S   UNL     1       2.438  -3.153   4.109  0.00  0.00    -0.078 S 
BRANCH  20  21
ATOM     21  C   UNL     1       1.023  -2.564   3.147  0.00  0.00    +0.173 C 
BRANCH  21  23
ATOM     22  N   UNL     1       0.031  -0.392   2.498  0.00  0.00    -0.312 N 
ATOM     23  C   UNL     1       1.002  -1.057   3.155  0.00  0.00    +0.224 C 
ATOM     24  O   UNL     1       1.860  -0.442   3.752  0.00  0.00    -0.275 OA
ATOM     25  H   UNL     1      -0.655  -0.884   2.020  0.00  0.00    +0.149 HD
BRANCH  22  32
ATOM     26  C   UNL     1      -0.013   1.086   0.008  0.00  0.00    +0.009 C 
ATOM     27  C   UNL     1      -0.729   1.579   1.267  0.00  0.00    +0.006 C 
ATOM     28  C   UNL     1      -2.164   1.050   1.278  0.00  0.00    +0.005 C 
ATOM     29  C   UNL     1      -2.880   1.543   2.537  0.00  0.00    +0.000 C 
ATOM     30  C   UNL     1      -2.140   1.036   3.776  0.00  0.00    +0.002 C 
ATOM     31  C   UNL     1      -0.705   1.566   3.765  0.00  0.00    +0.022 C 
ATOM     32  C   UNL     1       0.011   1.072   2.506  0.00  0.00    +0.076 C 
ENDBRANCH  22  32
ENDBRANCH  21  23
ENDBRANCH  20  21
ENDBRANCH   1  20
TORSDOF 5
