REMARK  Name = ZINC36565063
REMARK  17 active torsions:
REMARK  status: ('A' for Active; 'I' for Inactive)
REMARK    1  A    between atoms: C_1  and  C_2
REMARK    2  A    between atoms: C_2  and  C_3
REMARK    3  A    between atoms: C_3  and  C_4
REMARK    4  A    between atoms: C_4  and  C_5
REMARK    5  A    between atoms: C_5  and  C_7
REMARK    6  A    between atoms: C_5  and  C_9
REMARK    7  A    between atoms: C_7  and  C_8
REMARK    8  A    between atoms: N_11  and  C_12
REMARK    9  A    between atoms: N_11  and  C_15
REMARK   10  A    between atoms: C_12  and  C_13
REMARK   11  A    between atoms: C_13  and  C_14
REMARK   12  A    between atoms: C_15  and  C_17
REMARK   13  A    between atoms: C_15  and  C_26
REMARK   14  A    between atoms: N_28  and  C_29
REMARK   15  A    between atoms: C_29  and  S_30
REMARK   16  A    between atoms: S_30  and  C_33
REMARK   17  A    between atoms: C_36  and  C_39
REMARK                            x       y       z     vdW  Elec       q    Type
REMARK                         _______ _______ _______ _____ _____    ______ ____
ROOT
ATOM      1  C   UNL     1       2.727  -6.139   3.860  0.00  0.00    +0.192 C 
ENDROOT
BRANCH   1   2
ATOM      2  C   UNL     1       4.173  -6.550   3.759  0.00  0.00    -0.015 A 
ATOM      3  C   UNL     1       5.124  -5.926   4.546  0.00  0.00    +0.010 A 
ATOM      4  C   UNL     1       6.452  -6.300   4.457  0.00  0.00    +0.050 A 
ATOM      5  C   UNL     1       6.833  -7.301   3.577  0.00  0.00    +0.166 A 
ATOM      6  C   UNL     1       5.875  -7.928   2.785  0.00  0.00    +0.167 A 
ATOM      7  C   UNL     1       4.546  -7.553   2.884  0.00  0.00    +0.055 A 
ATOM      8  O   UNL     1       6.496  -8.867   2.012  0.00  0.00    -0.453 OA
ATOM      9  C   UNL     1       7.895  -8.527   2.043  0.00  0.00    +0.466 C 
ATOM     10  O   UNL     1       8.054  -7.846   3.302  0.00  0.00    -0.453 OA
ENDBRANCH   1   2
BRANCH   1  11
ATOM     11  C   UNL     1       2.133  -6.698   5.128  0.00  0.00    +0.239 C 
ATOM     12  O   UNL     1       1.571  -5.962   5.910  0.00  0.00    -0.273 OA
ATOM     13  N   UNL     1       2.228  -8.017   5.392  0.00  0.00    -0.294 N 
ATOM     14  H   UNL     1       2.678  -8.605   4.766  0.00  0.00    +0.150 HD
BRANCH  13  15
ATOM     15  C   UNL     1       1.651  -8.560   6.624  0.00  0.00    +0.278 C 
BRANCH  15  16
ATOM     16  S   UNL     1      -0.016  -9.189   6.285  0.00  0.00    +0.013 S 
ATOM     17  O   UNL     1      -0.565  -9.777   7.457  0.00  0.00    -0.168 OA
ATOM     18  O   UNL     1      -0.757  -8.233   5.539  0.00  0.00    -0.168 OA
BRANCH  16  19
ATOM     19  C   UNL     1       0.225 -10.537   5.176  0.00  0.00    +0.090 A 
ATOM     20  C   UNL     1       0.232 -10.316   3.812  0.00  0.00    +0.027 A 
ATOM     21  C   UNL     1       0.421 -11.374   2.942  0.00  0.00    +0.005 A 
ATOM     22  C   UNL     1       0.603 -12.652   3.436  0.00  0.00    -0.050 A 
ATOM     23  C   UNL     1       0.597 -12.872   4.801  0.00  0.00    +0.005 A 
ATOM     24  C   UNL     1       0.412 -11.814   5.671  0.00  0.00    +0.027 A 
ATOM     25  C   UNL     1       0.808 -13.804   2.488  0.00  0.00    +0.044 C 
ENDBRANCH  16  19
ENDBRANCH  15  16
ENDBRANCH  13  15
ENDBRANCH   1  11
BRANCH   1  28
ATOM     26  C   UNL     1       3.049  -3.961   2.818  0.00  0.00    +0.220 C 
ATOM     27  O   UNL     1       3.461  -4.527   1.828  0.00  0.00    -0.275 OA
ATOM     28  N   UNL     1       2.634  -4.677   3.881  0.00  0.00    -0.286 N 
BRANCH  26  29
ATOM     29  C   UNL     1       3.002  -2.455   2.859  0.00  0.00    +0.075 C 
BRANCH  29  30
ATOM     30  C   UNL     1       4.018  -1.941   3.881  0.00  0.00    +0.009 C 
ATOM     31  C   UNL     1       5.432  -2.304   3.422  0.00  0.00    +0.004 C 
ENDBRANCH  29  30
BRANCH  29  32
ATOM     32  C   UNL     1       3.342  -1.896   1.476  0.00  0.00    +0.013 C 
BRANCH  32  33
ATOM     33  C   UNL     1       3.172  -0.375   1.485  0.00  0.00    +0.000 C 
BRANCH  33  35
ATOM     34  C   UNL     1       3.453   1.717   0.148  0.00  0.00    +0.004 C 
ATOM     35  C   UNL     1       3.623   0.196   0.139  0.00  0.00    -0.003 C 
ENDBRANCH  33  35
ENDBRANCH  32  33
ENDBRANCH  29  32
ENDBRANCH  26  29
BRANCH  28  36
ATOM     36  C   UNL     1       2.091  -3.994   5.058  0.00  0.00    +0.108 C 
BRANCH  36  37
ATOM     37  C   UNL     1       3.083  -4.108   6.217  0.00  0.00    +0.016 C 
ATOM     38  C   UNL     1       2.457  -3.521   7.484  0.00  0.00    +0.005 C 
ENDBRANCH  36  37
ENDBRANCH  28  36
ENDBRANCH   1  28
TORSDOF 13
