REMARK  Name = ZINC44649558
REMARK  13 active torsions:
REMARK  status: ('A' for Active; 'I' for Inactive)
REMARK    1  A    between atoms: C_1  and  C_2
REMARK    2  A    between atoms: C_4  and  C_34
REMARK    3  A    between atoms: C_5  and  C_33
REMARK    4  A    between atoms: C_6  and  C_8
REMARK    5  A    between atoms: C_8  and  C_10
REMARK    6  A    between atoms: C_10  and  C_12
REMARK    7  A    between atoms: C_10  and  S_13
REMARK    8  A    between atoms: S_13  and  C_14
REMARK    9  A    between atoms: C_17  and  C_26
REMARK   10  A    between atoms: N_18  and  C_19
REMARK   11  A    between atoms: C_26  and  N_27
REMARK   12  A    between atoms: C_34  and  O_36
REMARK   13  A    between atoms: O_36  and  C_37
REMARK                            x       y       z     vdW  Elec       q    Type
REMARK                         _______ _______ _______ _____ _____    ______ ____
ROOT
ATOM      1  C   UNL     1       3.792  -1.566   5.587  0.00  0.00    +0.197 A 
ATOM      2  N   UNL     1       2.692  -1.349   6.269  0.00  0.00    -0.122 NA
ATOM      3  N   UNL     1       2.953  -1.330   7.527  0.00  0.00    -0.135 NA
ATOM      4  C   UNL     1       4.225  -1.532   7.724  0.00  0.00    +0.122 A 
ATOM      5  N   UNL     1       4.807  -1.695   6.495  0.00  0.00    -0.276 N 
ENDROOT
BRANCH   5   6
ATOM      6  C   UNL     1       6.162  -1.940   6.225  0.00  0.00    +0.050 A 
ATOM      7  C   UNL     1       6.739  -3.145   6.602  0.00  0.00    +0.029 A 
ATOM      8  C   UNL     1       8.072  -3.385   6.334  0.00  0.00    +0.040 A 
ATOM      9  C   UNL     1       8.834  -2.424   5.690  0.00  0.00    +0.124 A 
ATOM     10  C   UNL     1       8.260  -1.222   5.313  0.00  0.00    +0.040 A 
ATOM     11  C   UNL     1       6.925  -0.981   5.574  0.00  0.00    +0.029 A 
ATOM     12  F   UNL     1      10.138  -2.660   5.429  0.00  0.00    -0.205 F 
ENDBRANCH   5   6
BRANCH   1  13
ATOM     13  S   UNL     1       3.935  -1.677   3.834  0.00  0.00    -0.074 S 
BRANCH  13  14
ATOM     14  C   UNL     1       2.242  -1.415   3.239  0.00  0.00    +0.124 C 
ATOM     15  C   UNL     1       1.352  -2.567   3.710  0.00  0.00    +0.028 C 
BRANCH  14  16
ATOM     16  C   UNL     1       2.241  -1.364   1.733  0.00  0.00    +0.194 C 
ATOM     17  O   UNL     1       3.118  -1.914   1.109  0.00  0.00    -0.289 OA
BRANCH  16  22
ATOM     18  C   UNL     1      -0.712   2.094   0.711  0.00  0.00    +0.038 C 
ATOM     19  C   UNL     1      -0.668   0.572   0.557  0.00  0.00    +0.140 C 
ATOM     20  C   UNL     1      -0.026   0.199  -0.761  0.00  0.00    +0.065 C 
ATOM     21  C   UNL     1       1.067  -0.524  -0.447  0.00  0.00    -0.010 C 
ATOM     22  C   UNL     1       1.165  -0.638   1.016  0.00  0.00    +0.106 C 
ATOM     23  N   UNL     1       0.182  -0.019   1.597  0.00  0.00    -0.272 NA
ATOM     24  C   UNL     1       2.035  -1.121  -1.436  0.00  0.00    +0.046 C 
BRANCH  20  25
ATOM     25  C   UNL     1      -0.498   0.551  -2.107  0.00  0.00    +0.337 C 
ATOM     26  O   UNL     1       0.122   0.180  -3.084  0.00  0.00    -0.245 OA
BRANCH  25  27
ATOM     27  O   UNL     1      -1.619   1.285  -2.257  0.00  0.00    -0.465 OA
ATOM     28  C   UNL     1      -2.019   1.591  -3.595  0.00  0.00    +0.280 C 
ENDBRANCH  25  27
ENDBRANCH  20  25
ENDBRANCH  16  22
ENDBRANCH  14  16
ENDBRANCH  13  14
ENDBRANCH   1  13
BRANCH   4  29
ATOM     29  C   UNL     1       4.925  -1.583   9.058  0.00  0.00    -0.001 C 
BRANCH  29  30
ATOM     30  N   UNL     1       5.493  -0.263   9.363  0.00  0.00    +0.384 N 
ATOM     31  C   UNL     1       4.406   0.707   9.540  0.00  0.00    -0.078 C 
ATOM     32  C   UNL     1       4.994   2.100   9.778  0.00  0.00    -0.019 C 
ATOM     33  C   UNL     1       5.865   2.072  11.037  0.00  0.00    -0.004 C 
ATOM     34  C   UNL     1       6.951   1.004  10.871  0.00  0.00    -0.019 C 
ATOM     35  C   UNL     1       6.290  -0.348  10.593  0.00  0.00    -0.078 C 
ATOM     36  H   UNL     1       6.084   0.032   8.600  0.00  0.00    -0.081 HD
ENDBRANCH  29  30
ENDBRANCH   4  29
TORSDOF 9
