REMARK  Name = ZINC40019537
REMARK  20 active torsions:
REMARK  status: ('A' for Active; 'I' for Inactive)
REMARK    1  A    between atoms: C_1  and  C_2
REMARK    2  A    between atoms: C_2  and  C_3
REMARK    3  A    between atoms: C_3  and  C_4
REMARK    4  A    between atoms: C_4  and  N_5
REMARK    5  A    between atoms: N_5  and  C_6
REMARK    6  A    between atoms: N_5  and  C_10
REMARK    7  A    between atoms: C_6  and  C_7
REMARK    8  A    between atoms: C_7  and  C_8
REMARK    9  A    between atoms: C_8  and  C_9
REMARK   10  A    between atoms: C_10  and  C_11
REMARK   11  A    between atoms: C_11  and  C_12
REMARK   12  A    between atoms: C_12  and  N_13
REMARK   13  A    between atoms: C_14  and  C_34
REMARK   14  A    between atoms: C_16  and  C_21
REMARK   15  A    between atoms: C_21  and  C_23
REMARK   16  A    between atoms: C_26  and  O_30
REMARK   17  A    between atoms: C_27  and  C_29
REMARK   18  A    between atoms: O_30  and  C_31
REMARK   19  A    between atoms: C_31  and  C_32
REMARK   20  A    between atoms: C_32  and  C_33
REMARK                            x       y       z     vdW  Elec       q    Type
REMARK                         _______ _______ _______ _____ _____    ______ ____
ROOT
ATOM      1  N   UNL     1       4.142  -6.137  -0.619  0.00  0.00    -0.283 N 
ATOM      2  C   UNL     1       3.628  -6.585  -1.918  0.00  0.00    +0.151 C 
ATOM      3  C   UNL     1       4.835  -6.769  -2.808  0.00  0.00    +0.077 C 
ATOM      4  C   UNL     1       5.920  -6.450  -2.065  0.00  0.00    +0.249 C 
ATOM      5  C   UNL     1       5.482  -6.054  -0.710  0.00  0.00    +0.288 C 
ATOM      6  O   UNL     1       6.222  -5.707   0.188  0.00  0.00    -0.266 OA
ATOM      7  O   UNL     1       7.203  -6.484  -2.495  0.00  0.00    -0.282 OA
ENDROOT
BRANCH   2   8
ATOM      8  C   UNL     1       2.894  -7.891  -1.762  0.00  0.00    +0.015 A 
ATOM      9  C   UNL     1       1.782  -8.328  -2.404  0.00  0.00    +0.013 A 
ATOM     10  C   UNL     1       1.278  -9.578  -2.097  0.00  0.00    +0.008 A 
ATOM     11  C   UNL     1       1.911 -10.330  -1.164  0.00  0.00    +0.045 A 
ATOM     12  S   UNL     1       3.267  -9.270  -0.691  0.00  0.00    -0.099 S 
ENDBRANCH   2   8
BRANCH   3  13
ATOM     13  C   UNL     1       4.831  -7.207  -4.207  0.00  0.00    +0.195 C 
ATOM     14  O   UNL     1       5.330  -8.275  -4.511  0.00  0.00    -0.287 OA
BRANCH  13  15
ATOM     15  C   UNL     1       4.223  -6.354  -5.247  0.00  0.00    +0.023 A 
ATOM     16  C   UNL     1       3.763  -5.074  -4.923  0.00  0.00    +0.015 A 
ATOM     17  C   UNL     1       3.196  -4.282  -5.895  0.00  0.00    +0.046 A 
ATOM     18  C   UNL     1       3.079  -4.753  -7.198  0.00  0.00    +0.123 A 
ATOM     19  C   UNL     1       3.536  -6.025  -7.525  0.00  0.00    -0.008 A 
ATOM     20  C   UNL     1       4.110  -6.822  -6.560  0.00  0.00    +0.018 A 
ATOM     21  C   UNL     1       3.407  -6.531  -8.939  0.00  0.00    +0.047 C 
BRANCH  18  22
ATOM     22  O   UNL     1       2.519  -3.969  -8.153  0.00  0.00    -0.492 OA
BRANCH  22  23
ATOM     23  C   UNL     1       2.071  -2.674  -7.749  0.00  0.00    +0.229 C 
BRANCH  23  24
ATOM     24  C   UNL     1       1.473  -1.943  -8.953  0.00  0.00    +0.038 C 
ATOM     25  C   UNL     1       0.994  -0.556  -8.520  0.00  0.00    +0.007 C 
ENDBRANCH  23  24
ENDBRANCH  22  23
ENDBRANCH  18  22
ENDBRANCH  13  15
ENDBRANCH   3  13
BRANCH   1  26
ATOM     26  C   UNL     1       3.338  -5.829   0.567  0.00  0.00    +0.107 C 
BRANCH  26  27
ATOM     27  C   UNL     1       2.945  -4.350   0.545  0.00  0.00    +0.000 C 
BRANCH  27  28
ATOM     28  C   UNL     1       2.105  -4.028   1.783  0.00  0.00    -0.077 C 
BRANCH  28  29
ATOM     29  N   UNL     1       1.727  -2.609   1.763  0.00  0.00    +0.380 N 
ATOM     30  H   UNL     1       2.557  -2.041   1.681  0.00  0.00    -0.082 HD
BRANCH  29  31
ATOM     31  C   UNL     1       1.024  -2.272   3.008  0.00  0.00    -0.079 C 
BRANCH  31  32
ATOM     32  C   UNL     1       1.988  -2.399   4.189  0.00  0.00    -0.019 C 
BRANCH  32  33
ATOM     33  C   UNL     1       1.298  -1.916   5.466  0.00  0.00    -0.005 C 
ATOM     34  C   UNL     1       2.262  -2.044   6.647  0.00  0.00    +0.004 C 
ENDBRANCH  32  33
ENDBRANCH  31  32
ENDBRANCH  29  31
BRANCH  29  35
ATOM     35  C   UNL     1       0.843  -2.354   0.617  0.00  0.00    -0.079 C 
BRANCH  35  36
ATOM     36  C   UNL     1       0.564  -0.854   0.513  0.00  0.00    -0.019 C 
BRANCH  36  38
ATOM     37  C   UNL     1      -0.520   0.929  -0.862  0.00  0.00    +0.004 C 
ATOM     38  C   UNL     1      -0.241  -0.572  -0.758  0.00  0.00    -0.005 C 
ENDBRANCH  36  38
ENDBRANCH  35  36
ENDBRANCH  29  35
ENDBRANCH  28  29
ENDBRANCH  27  28
ENDBRANCH  26  27
ENDBRANCH   1  26
TORSDOF 16
