REMARK  Name = ZINC09877527
REMARK  11 active torsions:
REMARK  status: ('A' for Active; 'I' for Inactive)
REMARK    1  A    between atoms: C_1  and  C_2
REMARK    2  A    between atoms: C_2  and  C_4
REMARK    3  A    between atoms: C_2  and  S_16
REMARK    4  A    between atoms: N_6  and  C_7
REMARK    5  A    between atoms: C_10  and  N_13
REMARK    6  A    between atoms: N_13  and  C_14
REMARK    7  A    between atoms: N_13  and  C_15
REMARK    8  A    between atoms: S_16  and  C_17
REMARK    9  A    between atoms: C_20  and  C_28
REMARK   10  A    between atoms: N_21  and  C_22
REMARK   11  A    between atoms: C_28  and  N_65
REMARK                            x       y       z     vdW  Elec       q    Type
REMARK                         _______ _______ _______ _____ _____    ______ ____
ROOT
ATOM      1  C   UNL     1       5.589   0.700   2.012  0.00  0.00    +0.197 A 
ATOM      2  N   UNL     1       5.783  -0.390   1.307  0.00  0.00    -0.122 NA
ATOM      3  N   UNL     1       4.721  -1.113   1.318  0.00  0.00    -0.135 NA
ATOM      4  C   UNL     1       3.789  -0.531   2.018  0.00  0.00    +0.122 A 
ATOM      5  N   UNL     1       4.309   0.645   2.489  0.00  0.00    -0.276 N 
ENDROOT
BRANCH   5   6
ATOM      6  C   UNL     1       3.663   1.595   3.294  0.00  0.00    +0.050 A 
ATOM      7  C   UNL     1       2.574   2.300   2.800  0.00  0.00    +0.026 A 
ATOM      8  C   UNL     1       1.936   3.231   3.597  0.00  0.00    +0.002 A 
ATOM      9  C   UNL     1       2.388   3.469   4.882  0.00  0.00    +0.000 A 
ATOM     10  C   UNL     1       3.476   2.771   5.375  0.00  0.00    +0.002 A 
ATOM     11  C   UNL     1       4.114   1.835   4.585  0.00  0.00    +0.026 A 
ENDBRANCH   5   6
BRANCH   1  12
ATOM     12  S   UNL     1       6.758   1.989   2.291  0.00  0.00    -0.073 S 
BRANCH  12  14
ATOM     13  C   UNL     1       7.813   1.287  -0.129  0.00  0.00    +0.029 C 
ATOM     14  C   UNL     1       8.168   1.343   1.359  0.00  0.00    +0.137 C 
BRANCH  14  15
ATOM     15  C   UNL     1       9.358   2.246   1.557  0.00  0.00    +0.230 C 
ATOM     16  O   UNL     1       9.197   3.387   1.938  0.00  0.00    -0.274 OA
ATOM     17  N   UNL     1      10.601   1.786   1.313  0.00  0.00    -0.285 N 
ATOM     18  H   UNL     1      10.736   0.856   1.074  0.00  0.00    +0.155 HD
BRANCH  17  19
ATOM     19  C   UNL     1      11.699   2.653   1.402  0.00  0.00    +0.034 A 
ATOM     20  C   UNL     1      12.773   2.504   0.536  0.00  0.00    +0.025 A 
ATOM     21  C   UNL     1      13.853   3.360   0.621  0.00  0.00    +0.025 A 
ATOM     22  C   UNL     1      13.868   4.365   1.579  0.00  0.00    +0.029 A 
ATOM     23  C   UNL     1      12.796   4.511   2.450  0.00  0.00    +0.025 A 
ATOM     24  C   UNL     1      11.714   3.657   2.361  0.00  0.00    +0.025 A 
BRANCH  22  25
ATOM     25  N   UNL     1      14.964   5.230   1.669  0.00  0.00    -0.336 N 
ATOM     26  C   UNL     1      15.039   6.207   2.757  0.00  0.00    +0.129 C 
ATOM     27  C   UNL     1      16.036   5.159   0.673  0.00  0.00    +0.129 C 
ENDBRANCH  22  25
ENDBRANCH  17  19
ENDBRANCH  14  15
ENDBRANCH  12  14
ENDBRANCH   1  12
BRANCH   4  28
ATOM     28  C   UNL     1       2.399  -1.057   2.268  0.00  0.00    -0.001 C 
BRANCH  28  34
ATOM     29  C   UNL     1       0.991  -1.980   4.007  0.00  0.00    -0.078 C 
ATOM     30  C   UNL     1       1.003  -2.600   5.406  0.00  0.00    -0.019 C 
ATOM     31  C   UNL     1       1.747  -3.938   5.359  0.00  0.00    -0.004 C 
ATOM     32  C   UNL     1       3.166  -3.706   4.832  0.00  0.00    -0.019 C 
ATOM     33  C   UNL     1       3.091  -3.054   3.450  0.00  0.00    -0.078 C 
ATOM     34  N   UNL     1       2.385  -1.760   3.567  0.00  0.00    +0.384 N 
ATOM     35  H   UNL     1       2.866  -1.180   4.265  0.00  0.00    -0.081 HD
ENDBRANCH  28  34
ENDBRANCH   4  28
TORSDOF 8
