REMARK  Name = ZINC06807756
REMARK  9 active torsions:
REMARK  status: ('A' for Active; 'I' for Inactive)
REMARK    1  A    between atoms: C_1  and  C_2
REMARK    2  A    between atoms: C_4  and  C_32
REMARK    3  A    between atoms: C_6  and  N_8
REMARK    4  A    between atoms: C_9  and  C_11
REMARK    5  A    between atoms: C_11  and  C_13
REMARK    6  A    between atoms: C_11  and  N_14
REMARK    7  A    between atoms: C_15  and  C_31
REMARK    8  A    between atoms: N_19  and  C_25
REMARK    9  A    between atoms: C_23  and  C_24
REMARK                            x       y       z     vdW  Elec       q    Type
REMARK                         _______ _______ _______ _____ _____    ______ ____
ROOT
ATOM      1  N   UNL     1       4.323   0.716   0.338  0.00  0.00    -0.335 N 
ATOM      2  C   UNL     1       3.577   1.854   0.379  0.00  0.00    +0.026 A 
ATOM      3  C   UNL     1       2.267   1.508   0.425  0.00  0.00    +0.028 A 
ATOM      4  C   UNL     1       0.988   2.218   0.482  0.00  0.00    +0.143 A 
ATOM      5  N   UNL     1      -0.122   1.546   0.517  0.00  0.00    -0.171 NA
ATOM      6  N   UNL     1      -0.181   0.154   0.504  0.00  0.00    -0.196 N 
ATOM      7  C   UNL     1       0.923  -0.620   0.454  0.00  0.00    +0.281 A 
ATOM      8  O   UNL     1       0.829  -1.835   0.445  0.00  0.00    -0.265 OA
ATOM      9  C   UNL     1       2.236   0.028   0.411  0.00  0.00    +0.071 A 
ATOM     10  C   UNL     1       3.530  -0.377   0.356  0.00  0.00    +0.030 A 
ATOM     11  C   UNL     1       4.003  -1.807   0.323  0.00  0.00    +0.064 C 
ATOM     12  C   UNL     1       4.117   3.261   0.373  0.00  0.00    +0.064 C 
ENDROOT
BRANCH   6  13
ATOM     13  C   UNL     1      -1.434  -0.465   0.545  0.00  0.00    +0.069 A 
ATOM     14  C   UNL     1      -1.750  -1.458  -0.373  0.00  0.00    +0.028 A 
ATOM     15  C   UNL     1      -2.986  -2.072  -0.326  0.00  0.00    +0.002 A 
ATOM     16  C   UNL     1      -3.914  -1.690   0.626  0.00  0.00    +0.000 A 
ATOM     17  C   UNL     1      -3.605  -0.698   1.538  0.00  0.00    +0.002 A 
ATOM     18  C   UNL     1      -2.368  -0.085   1.501  0.00  0.00    +0.028 A 
ENDBRANCH   6  13
BRANCH   1  19
ATOM     19  C   UNL     1       5.786   0.681   0.281  0.00  0.00    +0.170 C 
ATOM     20  C   UNL     1       6.259   1.263  -1.052  0.00  0.00    +0.041 C 
BRANCH  19  22
ATOM     21  N   UNL     1       7.687   1.610   1.563  0.00  0.00    -0.284 N 
ATOM     22  C   UNL     1       6.352   1.497   1.415  0.00  0.00    +0.240 C 
ATOM     23  O   UNL     1       5.606   2.054   2.193  0.00  0.00    -0.273 OA
ATOM     24  H   UNL     1       8.283   1.231   0.898  0.00  0.00    +0.155 HD
BRANCH  21  30
ATOM     25  C   UNL     1      11.223   4.381   3.559  0.00  0.00    +0.044 C 
ATOM     26  C   UNL     1       9.926   3.623   3.673  0.00  0.00    -0.048 A 
ATOM     27  C   UNL     1       9.254   3.583   4.881  0.00  0.00    +0.006 A 
ATOM     28  C   UNL     1       8.063   2.889   4.990  0.00  0.00    -0.048 A 
ATOM     29  C   UNL     1       7.540   2.234   3.892  0.00  0.00    +0.026 A 
ATOM     30  C   UNL     1       8.213   2.272   2.678  0.00  0.00    +0.034 A 
ATOM     31  C   UNL     1       9.412   2.965   2.573  0.00  0.00    +0.026 A 
ATOM     32  C   UNL     1       7.333   2.849   6.308  0.00  0.00    +0.044 C 
ENDBRANCH  21  30
ENDBRANCH  19  22
ENDBRANCH   1  19
TORSDOF 4
