REMARK  Name = ZINC64202207
REMARK  8 active torsions:
REMARK  status: ('A' for Active; 'I' for Inactive)
REMARK    1  A    between atoms: C_1  and  C_2
REMARK    2  A    between atoms: N_4  and  C_5
REMARK    3  A    between atoms: C_5  and  C_7
REMARK    4  A    between atoms: C_5  and  C_17
REMARK    5  A    between atoms: C_7  and  C_8
REMARK    6  A    between atoms: N_19  and  C_20
REMARK    7  A    between atoms: C_23  and  N_26
REMARK    8  A    between atoms: N_29  and  C_30
REMARK                            x       y       z     vdW  Elec       q    Type
REMARK                         _______ _______ _______ _____ _____    ______ ____
ROOT
ATOM      1  C   UNL     1      -1.190  -2.665  -0.449  0.00  0.00    +0.238 C 
ATOM      2  O   UNL     1      -1.783  -1.956   0.336  0.00  0.00    -0.273 OA
ATOM      3  N   UNL     1      -1.615  -3.924  -0.674  0.00  0.00    -0.284 N 
ATOM      4  H   UNL     1      -1.183  -4.468  -1.350  0.00  0.00    +0.155 HD
ENDROOT
BRANCH   3   5
ATOM      5  C   UNL     1      -2.682  -4.446   0.070  0.00  0.00    +0.034 A 
ATOM      6  C   UNL     1      -2.688  -5.788   0.426  0.00  0.00    +0.025 A 
ATOM      7  C   UNL     1      -3.739  -6.303   1.159  0.00  0.00    +0.025 A 
ATOM      8  C   UNL     1      -4.789  -5.479   1.539  0.00  0.00    +0.035 A 
ATOM      9  C   UNL     1      -4.783  -4.137   1.183  0.00  0.00    +0.025 A 
ATOM     10  C   UNL     1      -3.730  -3.621   0.455  0.00  0.00    +0.025 A 
BRANCH   8  11
ATOM     11  N   UNL     1      -5.856  -6.001   2.283  0.00  0.00    -0.269 N 
ATOM     12  C   UNL     1      -7.107  -5.542   2.081  0.00  0.00    +0.308 C 
ATOM     13  O   UNL     1      -7.298  -4.616   1.315  0.00  0.00    -0.252 OA
ATOM     14  N   UNL     1      -8.145  -6.107   2.728  0.00  0.00    -0.269 N 
ATOM     15  H   UNL     1      -5.694  -6.694   2.942  0.00  0.00    +0.156 HD
ATOM     16  H   UNL     1      -7.985  -6.792   3.396  0.00  0.00    +0.156 HD
BRANCH  14  17
ATOM     17  C   UNL     1      -9.454  -5.707   2.435  0.00  0.00    +0.035 A 
ATOM     18  C   UNL     1      -9.799  -5.354   1.137  0.00  0.00    +0.023 A 
ATOM     19  C   UNL     1     -11.092  -4.959   0.852  0.00  0.00    +0.002 A 
ATOM     20  C   UNL     1     -12.041  -4.915   1.857  0.00  0.00    +0.000 A 
ATOM     21  C   UNL     1     -11.700  -5.266   3.150  0.00  0.00    +0.002 A 
ATOM     22  C   UNL     1     -10.411  -5.668   3.441  0.00  0.00    +0.023 A 
ENDBRANCH  14  17
ENDBRANCH   8  11
ENDBRANCH   3   5
BRANCH   1  23
ATOM     23  C   UNL     1       0.022  -2.138  -1.173  0.00  0.00    +0.163 C 
BRANCH  23  27
ATOM     24  C   UNL     1       0.009   1.487   0.057  0.00  0.00    +0.109 C 
ATOM     25  C   UNL     1       0.023  -0.020   0.031  0.00  0.00    +0.211 C 
ATOM     26  O   UNL     1       0.049  -0.644   1.070  0.00  0.00    -0.276 OA
ATOM     27  N   UNL     1       0.008  -0.673  -1.148  0.00  0.00    -0.304 N 
ATOM     28  H   UNL     1      -0.013  -0.174  -1.979  0.00  0.00    +0.149 HD
ENDBRANCH  23  27
BRANCH  23  29
ATOM     29  C   UNL     1       1.289  -2.648  -0.485  0.00  0.00    +0.065 C 
BRANCH  29  30
ATOM     30  C   UNL     1       2.498  -2.224  -1.279  0.00  0.00    -0.039 C 
ATOM     31  C   UNL     1       3.265  -1.130  -1.070  0.00  0.00    -0.001 A 
ATOM     32  C   UNL     1       3.206  -0.048  -0.080  0.00  0.00    +0.010 A 
ATOM     33  C   UNL     1       4.135   0.934  -0.124  0.00  0.00    +0.001 A 
ATOM     34  C   UNL     1       5.150   0.945  -1.090  0.00  0.00    +0.002 A 
ATOM     35  C   UNL     1       5.270  -0.014  -2.033  0.00  0.00    +0.026 A 
ATOM     36  C   UNL     1       4.347  -1.096  -2.079  0.00  0.00    +0.043 A 
ATOM     37  N   UNL     1       4.253  -2.128  -2.881  0.00  0.00    -0.380 N 
ATOM     38  C   UNL     1       3.102  -2.939  -2.467  0.00  0.00    +0.144 C 
ATOM     39  H   UNL     1       4.847  -2.326  -3.622  0.00  0.00    +0.160 HD
ENDBRANCH  29  30
ENDBRANCH  23  29
ENDBRANCH   1  23
TORSDOF 7
