REMARK  Name = ZINC09085940
REMARK  12 active torsions:
REMARK  status: ('A' for Active; 'I' for Inactive)
REMARK    1  A    between atoms: C_1  and  C_2
REMARK    2  A    between atoms: C_2  and  N_56
REMARK    3  A    between atoms: C_3  and  C_4
REMARK    4  A    between atoms: C_3  and  N_56
REMARK    5  A    between atoms: C_5  and  C_6
REMARK    6  A    between atoms: C_5  and  N_56
REMARK    7  A    between atoms: C_6  and  N_7
REMARK    8  A    between atoms: C_8  and  C_26
REMARK    9  A    between atoms: C_10  and  C_15
REMARK   10  A    between atoms: C_11  and  O_14
REMARK   11  A    between atoms: C_15  and  C_17
REMARK   12  A    between atoms: C_20  and  N_23
REMARK                            x       y       z     vdW  Elec       q    Type
REMARK                         _______ _______ _______ _____ _____    ______ ____
ROOT
ATOM      1  N   UNL     1      -4.679   2.165   1.102  0.00  0.00    -0.285 N 
ATOM      2  C   UNL     1      -4.226   1.395  -0.062  0.00  0.00    +0.144 C 
ATOM      3  C   UNL     1      -5.144   1.774  -1.201  0.00  0.00    +0.071 C 
ATOM      4  C   UNL     1      -6.027   2.675  -0.708  0.00  0.00    +0.188 C 
ATOM      5  C   UNL     1      -5.731   2.912   0.721  0.00  0.00    +0.282 C 
ATOM      6  O   UNL     1      -6.347   3.669   1.444  0.00  0.00    -0.267 OA
ENDROOT
BRANCH   2   7
ATOM      7  C   UNL     1      -2.803   1.757  -0.402  0.00  0.00    -0.022 A 
ATOM      8  C   UNL     1      -1.870   0.760  -0.618  0.00  0.00    +0.007 A 
ATOM      9  C   UNL     1      -0.566   1.091  -0.935  0.00  0.00    +0.020 A 
ATOM     10  C   UNL     1      -0.194   2.420  -1.031  0.00  0.00    +0.041 A 
ATOM     11  C   UNL     1      -1.127   3.417  -0.809  0.00  0.00    +0.020 A 
ATOM     12  C   UNL     1      -2.431   3.085  -0.491  0.00  0.00    +0.007 A 
ATOM     13 CL   UNL     1       1.444   2.837  -1.430  0.00  0.00    -0.084 Cl
ENDBRANCH   2   7
BRANCH   4  14
ATOM     14  O   UNL     1      -7.020   3.265  -1.411  0.00  0.00    -0.502 OA
ATOM     15  H   UNL     1      -7.526   3.888  -0.815  0.00  0.00    +0.292 HD
ENDBRANCH   4  14
BRANCH   3  16
ATOM     16  C   UNL     1      -5.090   1.266  -2.575  0.00  0.00    +0.195 C 
ATOM     17  O   UNL     1      -4.808   2.015  -3.490  0.00  0.00    -0.287 OA
BRANCH  16  18
ATOM     18  C   UNL     1      -5.378  -0.159  -2.847  0.00  0.00    +0.022 A 
ATOM     19  C   UNL     1      -5.788  -1.002  -1.812  0.00  0.00    +0.014 A 
ATOM     20  C   UNL     1      -6.062  -2.328  -2.075  0.00  0.00    +0.033 A 
ATOM     21  C   UNL     1      -5.918  -2.826  -3.358  0.00  0.00    +0.126 A 
ATOM     22  C   UNL     1      -5.507  -1.998  -4.387  0.00  0.00    +0.033 A 
ATOM     23  C   UNL     1      -5.236  -0.668  -4.140  0.00  0.00    +0.014 A 
BRANCH  21  24
ATOM     24  N   UNL     1      -6.207  -4.252  -3.631  0.00  0.00    +0.056 N 
ATOM     25  O   UNL     1      -6.082  -4.694  -4.760  0.00  0.00    -0.126 OA
ATOM     26  O   UNL     1      -6.569  -4.984  -2.728  0.00  0.00    -0.126 OA
ENDBRANCH  21  24
ENDBRANCH  16  18
ENDBRANCH   3  16
BRANCH   1  27
ATOM     27  C   UNL     1      -4.090   2.126   2.443  0.00  0.00    +0.090 C 
BRANCH  27  28
ATOM     28  C   UNL     1      -2.990   3.186   2.548  0.00  0.00    -0.060 C 
BRANCH  28  29
ATOM     29  N   UNL     1      -2.421   3.149   3.911  0.00  0.00    +0.380 N 
ATOM     30  H   UNL     1      -3.186   3.207   4.594  0.00  0.00    -0.082 HD
BRANCH  29  32
ATOM     31  C   UNL     1      -0.532   1.762   3.124  0.00  0.00    -0.017 C 
ATOM     32  C   UNL     1      -1.688   1.882   4.118  0.00  0.00    -0.082 C 
ENDBRANCH  29  32
BRANCH  29  33
ATOM     33  C   UNL     1      -1.511   4.297   4.110  0.00  0.00    -0.082 C 
ATOM     34  C   UNL     1      -1.134   4.376   5.591  0.00  0.00    -0.017 C 
ENDBRANCH  29  33
ENDBRANCH  28  29
ENDBRANCH  27  28
ENDBRANCH   1  27
TORSDOF 10
