REMARK  Name = ZINC39533776
REMARK  7 active torsions:
REMARK  status: ('A' for Active; 'I' for Inactive)
REMARK    1  A    between atoms: C_4  and  C_7
REMARK    2  A    between atoms: C_10  and  C_13
REMARK    3  A    between atoms: C_13  and  C_15
REMARK    4  A    between atoms: C_13  and  N_24
REMARK    5  A    between atoms: C_15  and  N_16
REMARK    6  A    between atoms: N_16  and  C_17
REMARK    7  A    between atoms: C_22  and  O_23
REMARK                            x       y       z     vdW  Elec       q    Type
REMARK                         _______ _______ _______ _____ _____    ______ ____
ROOT
ATOM      1  C   UNL     1       7.434  -2.768  -0.085  0.00  0.00    +0.104 C 
ENDROOT
BRANCH   1   2
ATOM      2  N   UNL     1       7.393  -3.871   0.884  0.00  0.00    -0.290 NA
ATOM      3  C   UNL     1       6.381  -4.867   0.506  0.00  0.00    +0.100 C 
ATOM      4  C   UNL     1       6.425  -6.035   1.494  0.00  0.00    +0.097 C 
ATOM      5  N   UNL     1       6.183  -5.533   2.853  0.00  0.00    -0.299 NA
ATOM      6  C   UNL     1       7.194  -4.537   3.232  0.00  0.00    +0.161 C 
ATOM      7  C   UNL     1       7.151  -3.369   2.244  0.00  0.00    +0.120 C 
ATOM      8 CL   UNL     1       6.851  -3.932   4.895  0.00  0.00    -0.104 Cl
ATOM      9  H   UNL     1       5.252  -5.153   2.938  0.00  0.00    +0.123 HD
ENDBRANCH   1   2
BRANCH   1  13
ATOM     10  C   UNL     1       3.580  -0.931  -0.317  0.00  0.00    -0.018 A 
ATOM     11  C   UNL     1       3.780  -2.206  -0.843  0.00  0.00    +0.009 A 
ATOM     12  C   UNL     1       5.026  -2.794  -0.765  0.00  0.00    +0.006 A 
ATOM     13  C   UNL     1       6.076  -2.120  -0.167  0.00  0.00    -0.029 A 
ATOM     14  C   UNL     1       5.883  -0.855   0.357  0.00  0.00    +0.006 A 
ATOM     15  C   UNL     1       4.643  -0.255   0.279  0.00  0.00    +0.009 A 
BRANCH  10  19
ATOM     16  C   UNL     1      -0.253   0.896  -0.547  0.00  0.00    +0.000 A 
ATOM     17  C   UNL     1      -0.061  -0.372  -1.066  0.00  0.00    +0.001 A 
ATOM     18  C   UNL     1       1.181  -0.970  -0.994  0.00  0.00    +0.008 A 
ATOM     19  C   UNL     1       2.243  -0.294  -0.398  0.00  0.00    -0.018 A 
ATOM     20  C   UNL     1       2.045   0.984   0.123  0.00  0.00    +0.008 A 
ATOM     21  C   UNL     1       0.798   1.571   0.046  0.00  0.00    +0.001 A 
ENDBRANCH  10  19
ENDBRANCH   1  13
BRANCH   1  22
ATOM     22  C   UNL     1       7.824  -3.312  -1.461  0.00  0.00    +0.125 C 
BRANCH  22  23
ATOM     23  N   UNL     1       9.088  -4.045  -1.356  0.00  0.00    -0.339 N 
ATOM     24  H   UNL     1       9.536  -4.120  -0.499  0.00  0.00    +0.146 HD
BRANCH  23  25
ATOM     25  C   UNL     1       9.649  -4.638  -2.493  0.00  0.00    +0.069 A 
ATOM     26  C   UNL     1       9.013  -4.528  -3.721  0.00  0.00    +0.026 A 
ATOM     27  C   UNL     1       9.569  -5.114  -4.842  0.00  0.00    +0.002 A 
ATOM     28  C   UNL     1      10.760  -5.811  -4.744  0.00  0.00    +0.004 A 
ATOM     29  C   UNL     1      11.399  -5.925  -3.523  0.00  0.00    +0.047 A 
ATOM     30  C   UNL     1      10.851  -5.336  -2.396  0.00  0.00    +0.138 A 
BRANCH  30  31
ATOM     31  O   UNL     1      11.482  -5.442  -1.195  0.00  0.00    -0.505 OA
ATOM     32  H   UNL     1      11.219  -6.218  -0.680  0.00  0.00    +0.292 HD
ENDBRANCH  30  31
ENDBRANCH  23  25
ENDBRANCH  22  23
ENDBRANCH   1  22
TORSDOF 7
