REMARK  Name = ZINC12577244
REMARK  5 active torsions:
REMARK  status: ('A' for Active; 'I' for Inactive)
REMARK    1  A    between atoms: C_1  and  C_2
REMARK    2  A    between atoms: C_3  and  C_18
REMARK    3  A    between atoms: C_8  and  C_10
REMARK    4  A    between atoms: C_14  and  C_16
REMARK    5  A    between atoms: N_26  and  C_27
REMARK                            x       y       z     vdW  Elec       q    Type
REMARK                         _______ _______ _______ _____ _____    ______ ____
ROOT
ATOM      1  C   UNL     1      -0.918  10.395  -0.182  0.00  0.00    +0.067 C 
ATOM      2  C   UNL     1       0.275   9.489  -0.022  0.00  0.00    +0.058 A 
ATOM      3  C   UNL     1       1.546  10.004   0.078  0.00  0.00    +0.079 A 
ATOM      4  S   UNL     1       2.498   8.502   0.244  0.00  0.00    -0.049 S 
ATOM      5  C   UNL     1       1.172   7.383   0.169  0.00  0.00    +0.165 A 
ATOM      6  N   UNL     1       0.132   8.187   0.022  0.00  0.00    -0.229 NA
ATOM      7  N   UNL     1       1.198   6.000   0.238  0.00  0.00    -0.261 N 
ATOM      8  C   UNL     1       0.049   5.300   0.159  0.00  0.00    +0.250 C 
ATOM      9  O   UNL     1      -1.010   5.882   0.028  0.00  0.00    -0.270 OA
ATOM     10  H   UNL     1       2.042   5.535   0.343  0.00  0.00    +0.157 HD
ENDROOT
BRANCH   3  11
ATOM     11  C   UNL     1       1.995  11.402   0.054  0.00  0.00    +0.154 A 
ATOM     12  N   UNL     1       1.459  12.382   0.747  0.00  0.00    -0.227 NA
ATOM     13  C   UNL     1       2.119  13.538   0.487  0.00  0.00    +0.090 A 
ATOM     14  C   UNL     1       1.968  14.851   0.943  0.00  0.00    +0.030 A 
ATOM     15  C   UNL     1       2.813  15.835   0.485  0.00  0.00    +0.002 A 
ATOM     16  C   UNL     1       3.816  15.535  -0.426  0.00  0.00    +0.002 A 
ATOM     17  C   UNL     1       3.979  14.245  -0.886  0.00  0.00    +0.028 A 
ATOM     18  C   UNL     1       3.136  13.239  -0.436  0.00  0.00    +0.074 A 
ATOM     19  N   UNL     1       3.043  11.883  -0.690  0.00  0.00    -0.266 N 
BRANCH  19  20
ATOM     20  C   UNL     1       3.900  11.105  -1.589  0.00  0.00    +0.450 C 
ATOM     21  F   UNL     1       3.134  10.127  -2.233  0.00  0.00    -0.185 F 
ATOM     22  F   UNL     1       4.468  11.956  -2.544  0.00  0.00    -0.185 F 
ENDBRANCH  19  20
ENDBRANCH   3  11
BRANCH   8  23
ATOM     23  C   UNL     1       0.076   3.824   0.233  0.00  0.00    +0.038 A 
ATOM     24  C   UNL     1       1.292   3.153   0.384  0.00  0.00    +0.013 A 
ATOM     25  C   UNL     1       1.320   1.774   0.452  0.00  0.00    +0.002 A 
ATOM     26  C   UNL     1       0.147   1.049   0.372  0.00  0.00    +0.019 A 
ATOM     27  C   UNL     1      -1.075   1.707   0.215  0.00  0.00    +0.052 A 
ATOM     28  C   UNL     1      -1.111   3.099   0.151  0.00  0.00    +0.032 A 
BRANCH  27  29
ATOM     29  C   UNL     1      -2.290   0.953   0.126  0.00  0.00    +0.099 C 
ATOM     30  N   UNL     1      -3.253   0.355   0.055  0.00  0.00    -0.191 NA
ENDBRANCH  27  29
ENDBRANCH   8  23
TORSDOF 4
