REMARK  Name = ZINC36506428
REMARK  16 active torsions:
REMARK  status: ('A' for Active; 'I' for Inactive)
REMARK    1  A    between atoms: C_1  and  C_2
REMARK    2  A    between atoms: C_2  and  C_3
REMARK    3  A    between atoms: C_2  and  C_4
REMARK    4  A    between atoms: C_2  and  C_5
REMARK    5  A    between atoms: C_5  and  C_6
REMARK    6  A    between atoms: C_6  and  C_7
REMARK    7  A    between atoms: C_6  and  C_8
REMARK    8  A    between atoms: C_6  and  N_9
REMARK    9  A    between atoms: C_10  and  C_12
REMARK   10  A    between atoms: C_12  and  C_14
REMARK   11  A    between atoms: C_12  and  N_21
REMARK   12  A    between atoms: C_18  and  O_20
REMARK   13  A    between atoms: N_21  and  C_22
REMARK   14  A    between atoms: C_22  and  C_23
REMARK   15  A    between atoms: C_28  and  C_30
REMARK   16  A    between atoms: C_33  and  N_36
REMARK                            x       y       z     vdW  Elec       q    Type
REMARK                         _______ _______ _______ _____ _____    ______ ____
ROOT
ATOM      1  C   UNL     1       5.079   0.075  -5.672  0.00  0.00    +0.193 C 
ENDROOT
BRANCH   1   2
ATOM      2  C   UNL     1       4.434  -1.272  -5.474  0.00  0.00    -0.015 A 
ATOM      3  C   UNL     1       5.085  -2.248  -4.741  0.00  0.00    +0.006 A 
ATOM      4  C   UNL     1       4.497  -3.486  -4.557  0.00  0.00    +0.004 A 
ATOM      5  C   UNL     1       3.256  -3.751  -5.106  0.00  0.00    +0.045 A 
ATOM      6  C   UNL     1       2.602  -2.773  -5.841  0.00  0.00    +0.117 A 
ATOM      7  C   UNL     1       3.192  -1.530  -6.019  0.00  0.00    +0.051 A 
BRANCH   6   8
ATOM      8  O   UNL     1       1.382  -3.032  -6.381  0.00  0.00    -0.507 OA
ATOM      9  H   UNL     1       0.640  -2.812  -5.801  0.00  0.00    +0.292 HD
ENDBRANCH   6   8
ENDBRANCH   1   2
BRANCH   1  11
ATOM     10  N   UNL     1       3.376   1.176  -4.254  0.00  0.00    -0.308 N 
ATOM     11  C   UNL     1       4.679   0.994  -4.546  0.00  0.00    +0.239 C 
ATOM     12  O   UNL     1       5.531   1.569  -3.902  0.00  0.00    -0.273 OA
ATOM     13  H   UNL     1       2.699   0.661  -4.720  0.00  0.00    +0.149 HD
BRANCH  10  14
ATOM     14  C   UNL     1       2.983   2.151  -3.234  0.00  0.00    +0.030 C 
ATOM     15  C   UNL     1       3.819   3.422  -3.395  0.00  0.00    +0.031 C 
ATOM     16  C   UNL     1       3.219   1.557  -1.844  0.00  0.00    +0.031 C 
BRANCH  14  17
ATOM     17  C   UNL     1       1.501   2.491  -3.398  0.00  0.00    +0.031 C 
BRANCH  17  19
ATOM     18  C   UNL     1       0.923   1.244  -5.485  0.00  0.00    +0.010 C 
ATOM     19  C   UNL     1       1.171   2.630  -4.886  0.00  0.00    -0.036 C 
ATOM     20  C   UNL     1       2.344   3.296  -5.608  0.00  0.00    +0.010 C 
ATOM     21  C   UNL     1      -0.084   3.489  -5.052  0.00  0.00    +0.010 C 
ENDBRANCH  17  19
ENDBRANCH  14  17
ENDBRANCH  10  14
ENDBRANCH   1  11
BRANCH   1  22
ATOM     22  N   UNL     1       6.535  -0.077  -5.685  0.00  0.00    -0.275 N 
ATOM     23  C   UNL     1       7.151  -0.582  -6.773  0.00  0.00    +0.248 C 
ATOM     24  O   UNL     1       8.329  -0.875  -6.723  0.00  0.00    -0.270 OA
BRANCH  23  25
ATOM     25  C   UNL     1       6.392  -0.778  -8.027  0.00  0.00    +0.037 A 
ATOM     26  C   UNL     1       4.997  -0.815  -8.003  0.00  0.00    +0.015 A 
ATOM     27  C   UNL     1       4.295  -0.998  -9.177  0.00  0.00    +0.033 A 
ATOM     28  C   UNL     1       4.971  -1.146 -10.375  0.00  0.00    +0.126 A 
ATOM     29  C   UNL     1       6.354  -1.111 -10.405  0.00  0.00    +0.033 A 
ATOM     30  C   UNL     1       7.068  -0.922  -9.239  0.00  0.00    +0.015 A 
BRANCH  28  31
ATOM     31  N   UNL     1       4.212  -1.342 -11.630  0.00  0.00    +0.056 N 
ATOM     32  O   UNL     1       3.003  -1.374 -11.607  0.00  0.00    -0.126 OA
ATOM     33  O   UNL     1       4.800  -1.472 -12.678  0.00  0.00    -0.126 OA
ENDBRANCH  28  31
ENDBRANCH  23  25
BRANCH  22  34
ATOM     34  C   UNL     1       7.324   0.319  -4.516  0.00  0.00    +0.183 C 
BRANCH  34  35
ATOM     35  C   UNL     1       7.963   1.659  -4.771  0.00  0.00    +0.122 A 
ATOM     36  C   UNL     1       7.387   2.857  -4.565  0.00  0.00    +0.046 A 
ATOM     37  C   UNL     1       8.336   3.837  -4.934  0.00  0.00    +0.041 A 
ATOM     38  C   UNL     1       9.436   3.180  -5.344  0.00  0.00    +0.195 A 
ATOM     39  O   UNL     1       9.206   1.861  -5.237  0.00  0.00    -0.466 OA
ENDBRANCH  34  35
ENDBRANCH  22  34
ENDBRANCH   1  22
TORSDOF 11
