REMARK  Name = ZINC34747613
REMARK  6 active torsions:
REMARK  status: ('A' for Active; 'I' for Inactive)
REMARK    1  A    between atoms: C_1  and  C_2
REMARK    2  A    between atoms: C_2  and  C_3
REMARK    3  A    between atoms: C_3  and  N_4
REMARK    4  A    between atoms: N_17  and  C_20
REMARK    5  A    between atoms: C_20  and  C_21
REMARK    6  A    between atoms: N_23  and  C_24
REMARK                            x       y       z     vdW  Elec       q    Type
REMARK                         _______ _______ _______ _____ _____    ______ ____
ROOT
ATOM      1  N   UNL     1      -0.311  -2.885  -0.521  0.00  0.00    -0.280 N 
ATOM      2  C   UNL     1       0.724  -3.481   0.100  0.00  0.00    +0.264 A 
ATOM      3  O   UNL     1       0.724  -3.615   1.311  0.00  0.00    -0.267 OA
ATOM      4  C   UNL     1       1.824  -3.957  -0.683  0.00  0.00    +0.076 A 
ATOM      5  C   UNL     1       3.042  -4.627  -0.224  0.00  0.00    -0.023 A 
ATOM      6  C   UNL     1       3.938  -4.981  -1.167  0.00  0.00    -0.004 A 
ATOM      7  S   UNL     1       3.225  -4.452  -2.702  0.00  0.00    -0.073 S 
ATOM      8  C   UNL     1       1.721  -3.753  -2.069  0.00  0.00    +0.117 A 
ATOM      9  N   UNL     1       0.669  -3.156  -2.619  0.00  0.00    -0.208 NA
ATOM     10  C   UNL     1      -0.332  -2.733  -1.876  0.00  0.00    +0.202 A 
ATOM     11  N   UNL     1      -1.408  -2.125  -2.472  0.00  0.00    -0.304 N 
ATOM     12  C   UNL     1      -1.441  -0.667  -2.668  0.00  0.00    +0.089 C 
ATOM     13  C   UNL     1      -1.800  -0.381  -4.129  0.00  0.00    -0.059 C 
ATOM     14  N   UNL     1      -3.054  -1.066  -4.467  0.00  0.00    +0.387 N 
ATOM     15  C   UNL     1      -2.868  -2.521  -4.383  0.00  0.00    -0.059 C 
ATOM     16  C   UNL     1      -2.559  -2.913  -2.939  0.00  0.00    +0.089 C 
ATOM     17  C   UNL     1       5.251  -5.671  -0.959  0.00  0.00    +0.043 C 
ATOM     18  C   UNL     1       5.609  -5.590   0.532  0.00  0.00    +0.005 C 
ATOM     19  C   UNL     1       4.383  -5.999   1.354  0.00  0.00    +0.005 C 
ATOM     20  C   UNL     1       3.305  -4.920   1.250  0.00  0.00    +0.037 C 
ATOM     21  H   UNL     1      -3.776  -0.783  -3.821  0.00  0.00    -0.081 HD
ENDROOT
BRANCH   1  22
ATOM     22  C   UNL     1      -1.440  -2.397   0.274  0.00  0.00    +0.128 C 
BRANCH  22  24
ATOM     23  C   UNL     1      -3.600  -3.033   1.358  0.00  0.00    +0.005 C 
ATOM     24  C   UNL     1      -2.420  -3.544   0.527  0.00  0.00    +0.018 C 
ENDBRANCH  22  24
ENDBRANCH   1  22
BRANCH  14  25
ATOM     25  C   UNL     1      -3.456  -0.704  -5.833  0.00  0.00    +0.019 C 
BRANCH  25  26
ATOM     26  C   UNL     1      -4.803  -1.307  -6.138  0.00  0.00    +0.197 C 
ATOM     27  O   UNL     1      -5.372  -1.974  -5.299  0.00  0.00    -0.278 OA
ATOM     28  N   UNL     1      -5.375  -1.106  -7.341  0.00  0.00    -0.314 N 
ATOM     29  H   UNL     1      -4.919  -0.573  -8.012  0.00  0.00    +0.149 HD
BRANCH  28  30
ATOM     30  C   UNL     1      -6.684  -1.693  -7.638  0.00  0.00    +0.073 C 
ATOM     31  C   UNL     1      -6.500  -3.130  -8.129  0.00  0.00    +0.022 C 
ATOM     32  C   UNL     1      -7.867  -3.743  -8.438  0.00  0.00    +0.002 C 
ATOM     33  C   UNL     1      -8.562  -2.918  -9.523  0.00  0.00    +0.000 C 
ATOM     34  C   UNL     1      -8.746  -1.481  -9.032  0.00  0.00    +0.002 C 
ATOM     35  C   UNL     1      -7.378  -0.868  -8.723  0.00  0.00    +0.022 C 
ENDBRANCH  28  30
ENDBRANCH  25  26
ENDBRANCH  14  25
TORSDOF 5
