REMARK  Name = ZINC63625269
REMARK  7 active torsions:
REMARK  status: ('A' for Active; 'I' for Inactive)
REMARK    1  A    between atoms: C_1  and  C_2
REMARK    2  A    between atoms: C_7  and  N_8
REMARK    3  A    between atoms: N_8  and  S_9
REMARK    4  A    between atoms: S_9  and  C_12
REMARK    5  A    between atoms: C_14  and  C_19
REMARK    6  A    between atoms: C_17  and  C_18
REMARK    7  A    between atoms: C_22  and  C_25
REMARK                            x       y       z     vdW  Elec       q    Type
REMARK                         _______ _______ _______ _____ _____    ______ ____
ROOT
ATOM      1  C   UNL     1       2.447  -0.433   3.251  0.00  0.00    +0.112 A 
ATOM      2  C   UNL     1       3.344   0.302   4.004  0.00  0.00    +0.035 A 
ATOM      3  C   UNL     1       4.663   0.401   3.604  0.00  0.00    -0.018 A 
ATOM      4  C   UNL     1       5.086  -0.236   2.453  0.00  0.00    +0.006 A 
ATOM      5  C   UNL     1       4.189  -0.972   1.701  0.00  0.00    +0.005 A 
ATOM      6  C   UNL     1       2.871  -1.074   2.103  0.00  0.00    -0.024 A 
ATOM      7  C   UNL     1       1.894  -1.880   1.286  0.00  0.00    +0.046 C 
ENDROOT
BRANCH   3   8
ATOM      8  C   UNL     1       5.641   1.203   4.424  0.00  0.00    +0.153 C 
ATOM      9  C   UNL     1       5.903   2.552   3.779  0.00  0.00    +0.028 C 
ATOM     10  C   UNL     1       7.210   2.530   3.509  0.00  0.00    +0.056 C 
ATOM     11  N   UNL     1       7.762   1.361   3.902  0.00  0.00    -0.183 NA
ATOM     12  N   UNL     1       6.969   0.566   4.421  0.00  0.00    -0.297 N 
ATOM     13  C   UNL     1       7.967   3.657   2.855  0.00  0.00    +0.067 C 
ATOM     14  H   UNL     1       7.181  -0.316   4.764  0.00  0.00    +0.183 HD
ENDBRANCH   3   8
BRANCH   1  15
ATOM     15  S   UNL     1       0.765  -0.559   3.761  0.00  0.00    +0.073 S 
ATOM     16  O   UNL     1      -0.029  -0.252   2.622  0.00  0.00    -0.150 OA
ATOM     17  O   UNL     1       0.655   0.160   4.982  0.00  0.00    -0.150 OA
BRANCH  15  18
ATOM     18  N   UNL     1       0.480  -2.150   4.121  0.00  0.00    -0.216 N 
ATOM     19  H   UNL     1      -0.200  -2.643   3.636  0.00  0.00    +0.174 HD
BRANCH  18  26
ATOM     20  C   UNL     1       1.145  -4.893   3.770  0.00  0.00    +0.046 C 
ATOM     21  C   UNL     1       1.566  -4.120   4.994  0.00  0.00    -0.028 A 
ATOM     22  C   UNL     1       2.301  -4.741   5.984  0.00  0.00    +0.005 A 
ATOM     23  C   UNL     1       2.687  -4.033   7.107  0.00  0.00    +0.000 A 
ATOM     24  C   UNL     1       2.338  -2.701   7.243  0.00  0.00    +0.002 A 
ATOM     25  C   UNL     1       1.603  -2.075   6.256  0.00  0.00    +0.025 A 
ATOM     26  C   UNL     1       1.219  -2.782   5.124  0.00  0.00    +0.051 A 
ENDBRANCH  18  26
ENDBRANCH  15  18
ENDBRANCH   1  15
TORSDOF 4
