REMARK  Name = ZINC39430044
REMARK  15 active torsions:
REMARK  status: ('A' for Active; 'I' for Inactive)
REMARK    1  A    between atoms: C_1  and  C_2
REMARK    2  A    between atoms: C_4  and  C_10
REMARK    3  A    between atoms: C_5  and  C_9
REMARK    4  A    between atoms: N_7  and  C_8
REMARK    5  A    between atoms: C_10  and  N_11
REMARK    6  A    between atoms: N_11  and  C_12
REMARK    7  A    between atoms: N_11  and  C_29
REMARK    8  A    between atoms: C_12  and  C_13
REMARK    9  A    between atoms: C_18  and  C_19
REMARK   10  A    between atoms: C_22  and  O_27
REMARK   11  A    between atoms: C_24  and  O_25
REMARK   12  A    between atoms: O_25  and  C_26
REMARK   13  A    between atoms: O_27  and  C_28
REMARK   14  A    between atoms: C_29  and  C_30
REMARK   15  A    between atoms: C_29  and  C_31
REMARK                            x       y       z     vdW  Elec       q    Type
REMARK                         _______ _______ _______ _____ _____    ______ ____
ROOT
ATOM      1  C   UNL     1      -4.769   0.663  -1.819  0.00  0.00    +0.100 C 
ENDROOT
BRANCH   1   2
ATOM      2  C   UNL     1      -5.609   1.823  -1.280  0.00  0.00    +0.097 C 
ATOM      3  C   UNL     1      -5.799   1.694   0.218  0.00  0.00    +0.118 C 
ATOM      4  N   UNL     1      -7.073   1.581   0.411  0.00  0.00    -0.161 NA
ATOM      5  N   UNL     1      -7.796   1.615  -0.777  0.00  0.00    -0.153 NA
ATOM      6  C   UNL     1      -7.022   1.757  -1.824  0.00  0.00    +0.084 C 
BRANCH   6   7
ATOM      7  C   UNL     1      -7.434   1.836  -3.231  0.00  0.00    +0.041 A 
ATOM      8  C   UNL     1      -6.473   1.983  -4.238  0.00  0.00    +0.017 A 
ATOM      9  C   UNL     1      -6.864   2.057  -5.555  0.00  0.00    +0.046 A 
ATOM     10  C   UNL     1      -8.212   1.985  -5.891  0.00  0.00    +0.124 A 
ATOM     11  C   UNL     1      -9.174   1.839  -4.901  0.00  0.00    +0.091 A 
ATOM     12  C   UNL     1      -8.794   1.758  -3.573  0.00  0.00    +0.132 A 
BRANCH  12  13
ATOM     13  O   UNL     1      -9.733   1.609  -2.604  0.00  0.00    -0.494 OA
ATOM     14  C   UNL     1     -11.096   1.538  -3.028  0.00  0.00    +0.277 C 
ENDBRANCH  12  13
BRANCH  10  15
ATOM     15  O   UNL     1      -8.589   2.059  -7.193  0.00  0.00    -0.495 OA
ATOM     16  C   UNL     1      -7.549   2.210  -8.162  0.00  0.00    +0.277 C 
ENDBRANCH  10  15
ENDBRANCH   6   7
ENDBRANCH   1   2
BRANCH   1  17
ATOM     17  N   UNL     1      -3.388   0.792  -1.334  0.00  0.00    -0.295 NA
BRANCH  17  18
ATOM     18  C   UNL     1      -2.699   1.907  -1.999  0.00  0.00    +0.051 C 
ATOM     19  C   UNL     1      -1.411   2.234  -1.242  0.00  0.00    +0.024 C 
ATOM     20  C   UNL     1      -2.359   1.511  -3.437  0.00  0.00    +0.024 C 
ENDBRANCH  17  18
BRANCH  17  21
ATOM     21  C   UNL     1      -2.648  -0.464  -1.511  0.00  0.00    +0.118 C 
BRANCH  21  24
ATOM     22  C   UNL     1      -3.249  -0.419   1.816  0.00  0.00    +0.030 C 
ATOM     23  C   UNL     1      -2.579  -1.504   0.971  0.00  0.00    +0.099 C 
ATOM     24  C   UNL     1      -3.079  -1.453  -0.459  0.00  0.00    -0.021 C 
ATOM     25  C   UNL     1      -3.951  -2.416  -0.622  0.00  0.00    -0.001 C 
ATOM     26  N   UNL     1      -4.131  -3.150   0.554  0.00  0.00    -0.354 NA
ATOM     27  N   UNL     1      -2.989  -2.855   1.431  0.00  0.00    -0.242 NA
ATOM     28  C   UNL     1      -3.398  -2.829   2.842  0.00  0.00    +0.126 C 
ATOM     29  C   UNL     1      -4.671  -2.698  -1.915  0.00  0.00    +0.060 C 
ATOM     30  H   UNL     1      -4.990  -2.872   1.004  0.00  0.00    +0.141 HD
ATOM     31  H   UNL     1      -4.155  -4.136   0.343  0.00  0.00    +0.141 HD
ENDBRANCH  21  24
ENDBRANCH  17  21
ENDBRANCH   1  17
TORSDOF 8
