REMARK  Name = ZINC45727203
REMARK  6 active torsions:
REMARK  status: ('A' for Active; 'I' for Inactive)
REMARK    1  A    between atoms: C_4  and  C_7
REMARK    2  A    between atoms: C_7  and  C_9
REMARK    3  A    between atoms: C_7  and  S_12
REMARK    4  A    between atoms: S_12  and  C_13
REMARK    5  A    between atoms: C_17  and  C_20
REMARK    6  A    between atoms: N_27  and  C_28
REMARK                            x       y       z     vdW  Elec       q    Type
REMARK                         _______ _______ _______ _____ _____    ______ ____
ROOT
ATOM      1  C   UNL     1       5.631  -2.372   1.737  0.00  0.00    +0.178 A 
ATOM      2  N   UNL     1       6.457  -2.117   0.742  0.00  0.00    -0.215 NA
ATOM      3  C   UNL     1       7.523  -2.879   0.528  0.00  0.00    +0.117 A 
ATOM      4  C   UNL     1       7.824  -3.985   1.342  0.00  0.00    +0.081 A 
ATOM      5  C   UNL     1       9.033  -4.715   0.968  0.00  0.00    +0.010 A 
ATOM      6  C   UNL     1       9.749  -4.286  -0.099  0.00  0.00    +0.057 A 
ATOM      7  S   UNL     1       8.834  -2.866  -0.668  0.00  0.00    -0.076 S 
ATOM      8  C   UNL     1       6.913  -4.239   2.412  0.00  0.00    +0.268 A 
ATOM      9  O   UNL     1       7.096  -5.177   3.168  0.00  0.00    -0.267 OA
ATOM     10  N   UNL     1       5.854  -3.426   2.578  0.00  0.00    -0.255 N 
ENDROOT
BRANCH  10  11
ATOM     11  C   UNL     1       4.960  -3.667   3.630  0.00  0.00    +0.052 A 
ATOM     12  C   UNL     1       5.349  -3.428   4.942  0.00  0.00    +0.026 A 
ATOM     13  C   UNL     1       4.466  -3.666   5.976  0.00  0.00    +0.002 A 
ATOM     14  C   UNL     1       3.196  -4.142   5.708  0.00  0.00    +0.000 A 
ATOM     15  C   UNL     1       2.805  -4.380   4.403  0.00  0.00    +0.002 A 
ATOM     16  C   UNL     1       3.682  -4.139   3.363  0.00  0.00    +0.026 A 
ENDBRANCH  10  11
BRANCH   5  17
ATOM     17  C   UNL     1       9.467  -5.899   1.739  0.00  0.00    +0.021 A 
ATOM     18  C   UNL     1       9.823  -7.141   1.286  0.00  0.00    +0.016 A 
ATOM     19  C   UNL     1      10.197  -8.099   2.205  0.00  0.00    +0.008 A 
ATOM     20  C   UNL     1      10.201  -7.784   3.524  0.00  0.00    +0.046 A 
ATOM     21  S   UNL     1       9.670  -6.079   3.504  0.00  0.00    -0.097 S 
ENDBRANCH   5  17
BRANCH   1  22
ATOM     22  S   UNL     1       4.227  -1.338   1.989  0.00  0.00    -0.070 S 
BRANCH  22  23
ATOM     23  C   UNL     1       4.344  -0.107   0.662  0.00  0.00    +0.169 C 
BRANCH  23  27
ATOM     24  C   UNL     1       1.267   2.815   1.157  0.00  0.00    +0.000 A 
ATOM     25  C   UNL     1       0.960   1.469   1.228  0.00  0.00    +0.000 A 
ATOM     26  C   UNL     1       1.956   0.523   1.068  0.00  0.00    +0.005 A 
ATOM     27  C   UNL     1       3.259   0.924   0.836  0.00  0.00    -0.025 A 
ATOM     28  C   UNL     1       3.565   2.270   0.764  0.00  0.00    +0.005 A 
ATOM     29  C   UNL     1       2.570   3.215   0.926  0.00  0.00    +0.000 A 
ENDBRANCH  23  27
BRANCH  23  30
ATOM     30  C   UNL     1       4.181  -0.789  -0.672  0.00  0.00    +0.228 C 
ATOM     31  O   UNL     1       5.128  -0.889  -1.422  0.00  0.00    -0.274 OA
ATOM     32  N   UNL     1       2.981  -1.288  -1.031  0.00  0.00    -0.328 N 
ATOM     33  H   UNL     1       2.205  -1.139  -0.467  0.00  0.00    +0.145 HD
ATOM     34  H   UNL     1       2.893  -1.796  -1.852  0.00  0.00    +0.145 HD
ENDBRANCH  23  30
ENDBRANCH  22  23
ENDBRANCH   1  22
TORSDOF 6
