REMARK  Name = ZINC34726802
REMARK  8 active torsions:
REMARK  status: ('A' for Active; 'I' for Inactive)
REMARK    1  A    between atoms: C_1  and  C_2
REMARK    2  A    between atoms: C_2  and  C_3
REMARK    3  A    between atoms: C_3  and  C_4
REMARK    4  A    between atoms: C_4  and  N_5
REMARK    5  A    between atoms: N_13  and  C_16
REMARK    6  A    between atoms: C_18  and  C_22
REMARK    7  A    between atoms: C_19  and  C_20
REMARK    8  A    between atoms: C_20  and  C_21
REMARK                            x       y       z     vdW  Elec       q    Type
REMARK                         _______ _______ _______ _____ _____    ______ ____
ROOT
ATOM      1  N   UNL     1       1.425  -2.500  -2.470  0.00  0.00    -0.260 N 
ATOM      2  C   UNL     1       0.707  -2.716  -3.588  0.00  0.00    +0.265 A 
ATOM      3  O   UNL     1      -0.494  -2.521  -3.597  0.00  0.00    -0.267 OA
ATOM      4  C   UNL     1       1.397  -3.192  -4.804  0.00  0.00    +0.078 A 
ATOM      5  C   UNL     1       0.811  -3.492  -6.129  0.00  0.00    +0.003 A 
ATOM      6  C   UNL     1       1.678  -3.920  -7.085  0.00  0.00    +0.004 A 
ATOM      7  S   UNL     1       3.263  -3.943  -6.293  0.00  0.00    -0.074 S 
ATOM      8  C   UNL     1       2.770  -3.382  -4.685  0.00  0.00    +0.097 A 
ATOM      9  N   UNL     1       3.427  -3.139  -3.510  0.00  0.00    -0.290 N 
ATOM     10  C   UNL     1       2.752  -2.700  -2.430  0.00  0.00    +0.333 A 
ATOM     11  O   UNL     1       3.356  -2.484  -1.397  0.00  0.00    -0.246 OA
ATOM     12  C   UNL     1       4.875  -3.352  -3.428  0.00  0.00    +0.154 C 
ATOM     13  C   UNL     1       0.911  -4.173  -8.347  0.00  0.00    +0.073 C 
ATOM     14  C   UNL     1      -0.522  -3.836  -8.005  0.00  0.00    -0.064 C 
ATOM     15  C   UNL     1      -0.547  -3.453  -6.741  0.00  0.00    -0.040 C 
ATOM     16  C   UNL     1      -1.705  -3.920  -8.934  0.00  0.00    +0.039 C 
ENDROOT
BRANCH  15  17
ATOM     17  C   UNL     1      -1.794  -3.030  -6.009  0.00  0.00    +0.032 C 
ATOM     18  C   UNL     1      -2.372  -4.226  -5.251  0.00  0.00    +0.009 C 
ENDBRANCH  15  17
BRANCH   1  19
ATOM     19  C   UNL     1       0.739  -2.027  -1.265  0.00  0.00    +0.130 C 
BRANCH  19  20
ATOM     20  C   UNL     1       0.718  -0.497  -1.257  0.00  0.00    +0.022 C 
BRANCH  20  22
ATOM     21  C   UNL     1      -0.019   1.526   0.010  0.00  0.00    +0.004 C 
ATOM     22  C   UNL     1       0.002  -0.004   0.002  0.00  0.00    -0.002 C 
ENDBRANCH  20  22
ENDBRANCH  19  20
ENDBRANCH   1  19
TORSDOF 4
