REMARK  Name = ZINC64507197
REMARK  10 active torsions:
REMARK  status: ('A' for Active; 'I' for Inactive)
REMARK    1  A    between atoms: C_1  and  N_2
REMARK    2  A    between atoms: N_2  and  C_3
REMARK    3  A    between atoms: N_2  and  S_4
REMARK    4  A    between atoms: S_4  and  C_7
REMARK    5  A    between atoms: C_14  and  C_20
REMARK    6  A    between atoms: N_16  and  C_17
REMARK    7  A    between atoms: C_17  and  C_18
REMARK    8  A    between atoms: N_22  and  C_23
REMARK    9  A    between atoms: C_23  and  C_24
REMARK   10  A    between atoms: C_24  and  C_25
REMARK                            x       y       z     vdW  Elec       q    Type
REMARK                         _______ _______ _______ _____ _____    ______ ____
ROOT
ATOM      1  C   UNL     1       1.682  -1.059  -1.905  0.00  0.00    +0.106 A 
ATOM      2  C   UNL     1       2.326  -0.110  -2.677  0.00  0.00    +0.030 A 
ATOM      3  C   UNL     1       3.641  -0.291  -3.046  0.00  0.00    +0.025 A 
ATOM      4  C   UNL     1       4.335  -1.434  -2.643  0.00  0.00    +0.034 A 
ATOM      5  C   UNL     1       3.681  -2.379  -1.868  0.00  0.00    -0.022 A 
ATOM      6  C   UNL     1       2.363  -2.191  -1.497  0.00  0.00    +0.034 A 
ATOM      7  C   UNL     1       4.644  -3.506  -1.570  0.00  0.00    +0.069 C 
ATOM      8  C   UNL     1       5.948  -3.095  -2.272  0.00  0.00    +0.164 C 
ATOM      9  N   UNL     1       5.655  -1.806  -2.903  0.00  0.00    -0.314 N 
ENDROOT
BRANCH   8  10
ATOM     10  C   UNL     1       7.059  -2.946  -1.265  0.00  0.00    +0.234 C 
ATOM     11  O   UNL     1       7.603  -1.872  -1.117  0.00  0.00    -0.274 OA
ATOM     12  N   UNL     1       7.448  -4.006  -0.528  0.00  0.00    -0.313 N 
ATOM     13  H   UNL     1       7.013  -4.864  -0.647  0.00  0.00    +0.149 HD
BRANCH  12  14
ATOM     14  C   UNL     1       8.528  -3.860   0.451  0.00  0.00    +0.108 C 
BRANCH  14  15
ATOM     15  C   UNL     1       8.771  -5.202   1.145  0.00  0.00    +0.052 C 
BRANCH  15  16
ATOM     16  C   UNL     1       9.882  -5.053   2.152  0.00  0.00    -0.040 C 
ATOM     17  C   UNL     1       9.752  -4.808   3.476  0.00  0.00    -0.001 A 
ATOM     18  C   UNL     1       8.582  -4.613   4.341  0.00  0.00    +0.010 A 
ATOM     19  C   UNL     1       8.773  -4.378   5.659  0.00  0.00    +0.001 A 
ATOM     20  C   UNL     1      10.057  -4.316   6.218  0.00  0.00    +0.002 A 
ATOM     21  C   UNL     1      11.180  -4.484   5.488  0.00  0.00    +0.026 A 
ATOM     22  C   UNL     1      11.097  -4.737   4.091  0.00  0.00    +0.043 A 
ATOM     23  N   UNL     1      12.022  -4.931   3.183  0.00  0.00    -0.380 N 
ATOM     24  C   UNL     1      11.368  -5.153   1.889  0.00  0.00    +0.144 C 
ATOM     25  H   UNL     1      12.979  -4.932   3.341  0.00  0.00    +0.160 HD
ENDBRANCH  15  16
ENDBRANCH  14  15
ENDBRANCH  12  14
ENDBRANCH   8  10
BRANCH   1  26
ATOM     26  S   UNL     1      -0.000  -0.824  -1.437  0.00  0.00    +0.060 S 
ATOM     27  O   UNL     1      -0.531  -2.115  -1.167  0.00  0.00    -0.153 OA
ATOM     28  O   UNL     1      -0.572   0.049  -2.401  0.00  0.00    -0.153 OA
BRANCH  26  30
ATOM     29  C   UNL     1      -0.018   1.461   0.010  0.00  0.00    +0.131 C 
ATOM     30  N   UNL     1       0.002  -0.004   0.002  0.00  0.00    -0.183 NA
ATOM     31  C   UNL     1       0.024  -0.743   1.267  0.00  0.00    +0.131 C 
ENDBRANCH  26  30
ENDBRANCH   1  26
BRANCH   9  32
ATOM     32  C   UNL     1       6.607  -1.022  -3.693  0.00  0.00    +0.132 C 
BRANCH  32  33
ATOM     33  C   UNL     1       7.356  -0.080  -2.786  0.00  0.00    -0.016 C 
ATOM     34  C   UNL     1       8.666  -0.095  -2.764  0.00  0.00    +0.005 C 
ENDBRANCH  32  33
ENDBRANCH   9  32
TORSDOF 8
