REMARK  Name = ZINC15971971
REMARK  6 active torsions:
REMARK  status: ('A' for Active; 'I' for Inactive)
REMARK    1  A    between atoms: C_1  and  C_2
REMARK    2  A    between atoms: C_2  and  C_3
REMARK    3  A    between atoms: C_2  and  C_4
REMARK    4  A    between atoms: C_4  and  C_5
REMARK    5  A    between atoms: N_13  and  C_16
REMARK    6  A    between atoms: C_16  and  C_17
REMARK                            x       y       z     vdW  Elec       q    Type
REMARK                         _______ _______ _______ _____ _____    ______ ____
ROOT
ATOM      1  C   UNL     1      -1.416  -2.058  -0.121  0.00  0.00    -0.057 C 
ATOM      2  C   UNL     1      -2.849  -2.622  -0.025  0.00  0.00    +0.073 C 
ATOM      3  C   UNL     1      -2.888  -3.790  -1.049  0.00  0.00    +0.088 C 
ATOM      4  C   UNL     1      -3.887  -3.314  -2.080  0.00  0.00    +0.225 C 
ATOM      5  O   UNL     1      -4.226  -3.935  -3.065  0.00  0.00    -0.275 OA
ATOM      6  N   UNL     1      -4.338  -2.103  -1.737  0.00  0.00    -0.238 N 
ATOM      7  C   UNL     1      -3.823  -1.611  -0.587  0.00  0.00    +0.224 C 
ATOM      8  O   UNL     1      -4.089  -0.540  -0.085  0.00  0.00    -0.275 OA
ATOM      9  C   UNL     1      -1.479  -3.820  -1.654  0.00  0.00    +0.050 C 
ATOM     10  N   UNL     1      -0.937  -2.453  -1.473  0.00  0.00    +0.394 N 
ATOM     11  C   UNL     1      -1.510  -4.200  -3.107  0.00  0.00    -0.027 A 
ATOM     12  C   UNL     1      -2.113  -3.653  -4.217  0.00  0.00    +0.019 A 
ATOM     13  C   UNL     1      -1.956  -4.250  -5.456  0.00  0.00    +0.018 A 
ATOM     14  C   UNL     1      -1.191  -5.397  -5.575  0.00  0.00    +0.017 A 
ATOM     15  C   UNL     1      -0.584  -5.947  -4.465  0.00  0.00    +0.024 A 
ATOM     16  C   UNL     1      -0.738  -5.353  -3.215  0.00  0.00    +0.036 A 
ATOM     17  N   UNL     1      -0.232  -5.714  -1.964  0.00  0.00    -0.286 N 
ATOM     18  C   UNL     1      -0.621  -4.864  -0.994  0.00  0.00    +0.211 C 
ATOM     19  O   UNL     1      -0.335  -4.929   0.183  0.00  0.00    -0.277 OA
ATOM     20 BR   UNL     1      -2.784  -3.501  -6.982  0.00  0.00    -0.050 Br
ATOM     21  H   UNL     1      -1.300  -1.824  -2.174  0.00  0.00    -0.083 HD
ATOM     22  H   UNL     1       0.334  -6.487  -1.812  0.00  0.00    +0.155 HD
ATOM     23  H   UNL     1       0.071  -2.469  -1.499  0.00  0.00    -0.083 HD
ENDROOT
BRANCH   1  24
ATOM     24  C   UNL     1      -1.433  -0.534   0.013  0.00  0.00    -0.012 C 
BRANCH  24  26
ATOM     25  C   UNL     1      -0.019   1.526   0.010  0.00  0.00    +0.007 C 
ATOM     26  C   UNL     1       0.002  -0.004   0.002  0.00  0.00    -0.019 C 
ATOM     27  C   UNL     1       0.742  -0.511   1.242  0.00  0.00    +0.007 C 
ENDBRANCH  24  26
ENDBRANCH   1  24
BRANCH   6  28
ATOM     28  C   UNL     1      -5.319  -1.366  -2.538  0.00  0.00    +0.143 C 
BRANCH  28  29
ATOM     29  C   UNL     1      -6.710  -1.715  -2.076  0.00  0.00    -0.015 C 
ATOM     30  C   UNL     1      -7.537  -0.766  -1.713  0.00  0.00    +0.005 C 
ENDBRANCH  28  29
ENDBRANCH   6  28
TORSDOF 4
