REMARK  Name = ZINC39491009
REMARK  13 active torsions:
REMARK  status: ('A' for Active; 'I' for Inactive)
REMARK    1  A    between atoms: C_1  and  C_2
REMARK    2  A    between atoms: C_2  and  O_3
REMARK    3  A    between atoms: O_3  and  N_4
REMARK    4  A    between atoms: C_7  and  C_10
REMARK    5  A    between atoms: C_7  and  C_31
REMARK    6  A    between atoms: C_10  and  N_11
REMARK    7  A    between atoms: N_14  and  C_24
REMARK    8  A    between atoms: C_16  and  C_17
REMARK    9  A    between atoms: C_16  and  S_18
REMARK   10  A    between atoms: S_18  and  C_21
REMARK   11  A    between atoms: C_21  and  C_22
REMARK   12  A    between atoms: C_21  and  C_23
REMARK   13  A    between atoms: C_29  and  O_30
REMARK                            x       y       z     vdW  Elec       q    Type
REMARK                         _______ _______ _______ _____ _____    ______ ____
ROOT
ATOM      1  N   UNL     1       2.352  -2.384   3.369  0.00  0.00    -0.259 N 
ATOM      2  C   UNL     1       3.216  -1.709   2.600  0.00  0.00    +0.311 C 
ATOM      3  O   UNL     1       4.179  -2.229   2.070  0.00  0.00    -0.252 OA
ATOM      4  N   UNL     1       2.924  -0.408   2.468  0.00  0.00    -0.248 N 
ATOM      5  C   UNL     1       1.704  -0.107   3.232  0.00  0.00    +0.164 C 
ATOM      6  C   UNL     1       1.308  -1.464   3.845  0.00  0.00    +0.169 C 
ATOM      7  C   UNL     1      -0.067  -1.905   3.338  0.00  0.00    +0.059 C 
ENDROOT
BRANCH   4   8
ATOM      8  C   UNL     1       3.664   0.518   1.721  0.00  0.00    +0.079 A 
ATOM      9  C   UNL     1       3.361   0.735   0.385  0.00  0.00    +0.027 A 
ATOM     10  C   UNL     1       4.092   1.649  -0.351  0.00  0.00    +0.002 A 
ATOM     11  C   UNL     1       5.126   2.349   0.243  0.00  0.00    +0.004 A 
ATOM     12  C   UNL     1       5.434   2.139   1.574  0.00  0.00    +0.047 A 
ATOM     13  C   UNL     1       4.702   1.229   2.319  0.00  0.00    +0.138 A 
BRANCH  13  14
ATOM     14  O   UNL     1       5.000   1.025   3.630  0.00  0.00    -0.505 OA
ATOM     15  H   UNL     1       5.654   0.329   3.781  0.00  0.00    +0.292 HD
ENDBRANCH  13  14
ENDBRANCH   4   8
BRANCH   6  16
ATOM     16  S   UNL     1       1.321  -1.369   5.656  0.00  0.00    -0.006 S 
ATOM     17  O   UNL     1       1.173  -2.683   6.177  0.00  0.00    -0.172 OA
ATOM     18  O   UNL     1       2.438  -0.588   6.058  0.00  0.00    -0.172 OA
BRANCH  16  19
ATOM     19  C   UNL     1      -0.192  -0.435   6.019  0.00  0.00    +0.127 C 
ATOM     20  C   UNL     1      -0.286  -0.182   7.525  0.00  0.00    +0.031 C 
ATOM     21  C   UNL     1      -0.155   0.903   5.279  0.00  0.00    +0.031 C 
ENDBRANCH  16  19
ENDBRANCH   6  16
BRANCH   1  22
ATOM     22  C   UNL     1       2.431  -3.813   3.682  0.00  0.00    +0.118 C 
BRANCH  22  26
ATOM     23  N   UNL     1       4.520  -6.025   1.908  0.00  0.00    -0.188 NA
ATOM     24  C   UNL     1       4.412  -4.587   1.633  0.00  0.00    +0.115 C 
ATOM     25  C   UNL     1       2.964  -4.242   1.277  0.00  0.00    +0.026 C 
ATOM     26  C   UNL     1       2.050  -4.628   2.443  0.00  0.00    -0.008 C 
ATOM     27  C   UNL     1       2.218  -6.120   2.741  0.00  0.00    +0.026 C 
ATOM     28  C   UNL     1       3.688  -6.410   3.055  0.00  0.00    +0.115 C 
BRANCH  26  29
ATOM     29  C   UNL     1       0.595  -4.342   2.069  0.00  0.00    -0.003 C 
ATOM     30  C   UNL     1      -0.330  -4.901   3.152  0.00  0.00    +0.004 C 
ATOM     31  C   UNL     1      -1.786  -4.615   2.778  0.00  0.00    +0.000 C 
ATOM     32  C   UNL     1      -2.108  -5.281   1.439  0.00  0.00    +0.000 C 
ATOM     33  C   UNL     1      -1.184  -4.721   0.356  0.00  0.00    +0.000 C 
ATOM     34  C   UNL     1       0.272  -5.007   0.730  0.00  0.00    +0.004 C 
ENDBRANCH  26  29
BRANCH  23  35
ATOM     35  O   UNL     1       5.915  -6.415   2.118  0.00  0.00    -0.297 OA
BRANCH  35  37
ATOM     36  C   UNL     1       7.878  -7.656   1.451  0.00  0.00    +0.036 C 
ATOM     37  C   UNL     1       6.420  -7.319   1.133  0.00  0.00    +0.182 C 
ENDBRANCH  35  37
ENDBRANCH  23  35
ENDBRANCH  22  26
ENDBRANCH   1  22
TORSDOF 9
