REMARK  Name = ZINC40172715
REMARK  9 active torsions:
REMARK  status: ('A' for Active; 'I' for Inactive)
REMARK    1  A    between atoms: C_1  and  C_2
REMARK    2  A    between atoms: C_2  and  C_4
REMARK    3  A    between atoms: C_2  and  N_19
REMARK    4  A    between atoms: N_6  and  C_7
REMARK    5  A    between atoms: C_8  and  C_16
REMARK    6  A    between atoms: C_23  and  S_24
REMARK    7  A    between atoms: S_24  and  C_25
REMARK    8  A    between atoms: C_25  and  C_26
REMARK    9  A    between atoms: C_26  and  C_27
REMARK                            x       y       z     vdW  Elec       q    Type
REMARK                         _______ _______ _______ _____ _____    ______ ____
ROOT
ATOM      1  C   UNL     1      -0.019   1.526   0.010  0.00  0.00    +0.041 C 
ATOM      2  C   UNL     1       0.002  -0.004   0.002  0.00  0.00    +0.175 C 
ENDROOT
BRANCH   2   3
ATOM      3  N   UNL     1      -1.372  -0.511   0.012  0.00  0.00    -0.279 N 
ATOM      4  C   UNL     1      -2.324  -0.270  -0.937  0.00  0.00    +0.216 A 
ATOM      5  N   UNL     1      -3.421  -0.892  -0.579  0.00  0.00    -0.113 NA
ATOM      6  N   UNL     1      -3.169  -1.550   0.632  0.00  0.00    -0.121 NA
ATOM      7  C   UNL     1      -1.925  -1.313   0.971  0.00  0.00    +0.194 A 
ATOM      8  N   UNL     1      -2.159   0.499  -2.082  0.00  0.00    -0.328 N 
ATOM      9  H   UNL     1      -1.305   0.923  -2.262  0.00  0.00    +0.145 HD
ATOM     10  H   UNL     1      -2.897   0.613  -2.701  0.00  0.00    +0.145 HD
BRANCH   7  11
ATOM     11  S   UNL     1      -1.111  -1.918   2.412  0.00  0.00    -0.086 S 
BRANCH  11  12
ATOM     12  C   UNL     1      -2.380  -2.906   3.251  0.00  0.00    +0.082 C 
BRANCH  12  13
ATOM     13  C   UNL     1      -1.798  -3.499   4.536  0.00  0.00    +0.046 C 
BRANCH  13  14
ATOM     14  C   UNL     1      -2.853  -4.319   5.233  0.00  0.00    -0.047 A 
ATOM     15  C   UNL     1      -3.693  -3.725   6.155  0.00  0.00    +0.003 A 
ATOM     16  C   UNL     1      -4.660  -4.478   6.795  0.00  0.00    +0.000 A 
ATOM     17  C   UNL     1      -4.787  -5.825   6.511  0.00  0.00    +0.000 A 
ATOM     18  C   UNL     1      -3.947  -6.419   5.588  0.00  0.00    +0.000 A 
ATOM     19  C   UNL     1      -2.983  -5.665   4.945  0.00  0.00    +0.003 A 
ENDBRANCH  13  14
ENDBRANCH  12  13
ENDBRANCH  11  12
ENDBRANCH   7  11
ENDBRANCH   2   3
BRANCH   2  20
ATOM     20  C   UNL     1       0.707  -0.490  -1.238  0.00  0.00    +0.240 C 
ATOM     21  O   UNL     1       0.120  -1.191  -2.034  0.00  0.00    -0.273 OA
ATOM     22  N   UNL     1       1.991  -0.146  -1.462  0.00  0.00    -0.278 N 
ATOM     23  H   UNL     1       2.461   0.415  -0.825  0.00  0.00    +0.155 HD
BRANCH  22  24
ATOM     24  C   UNL     1       2.640  -0.593  -2.602  0.00  0.00    +0.084 A 
ATOM     25  C   UNL     1       3.947  -0.346  -2.991  0.00  0.00    +0.068 A 
ATOM     26  C   UNL     1       4.391  -0.935  -4.242  0.00  0.00    -0.023 A 
ATOM     27  C   UNL     1       3.445  -1.663  -4.876  0.00  0.00    -0.004 A 
ATOM     28  S   UNL     1       2.025  -1.564  -3.827  0.00  0.00    -0.077 S 
ATOM     29  C   UNL     1       3.591  -2.389  -6.178  0.00  0.00    +0.043 C 
ATOM     30  C   UNL     1       4.859  -1.876  -6.876  0.00  0.00    +0.005 C 
ATOM     31  C   UNL     1       6.012  -1.870  -5.869  0.00  0.00    +0.005 C 
ATOM     32  C   UNL     1       5.787  -0.774  -4.825  0.00  0.00    +0.037 C 
BRANCH  25  33
ATOM     33  C   UNL     1       4.846   0.475  -2.173  0.00  0.00    +0.244 C 
ATOM     34  O   UNL     1       5.535  -0.046  -1.316  0.00  0.00    -0.270 OA
ATOM     35  N   UNL     1       4.907   1.807  -2.371  0.00  0.00    -0.325 N 
ATOM     36  H   UNL     1       4.358   2.222  -3.054  0.00  0.00    +0.145 HD
ATOM     37  H   UNL     1       5.501   2.350  -1.829  0.00  0.00    +0.145 HD
ENDBRANCH  25  33
ENDBRANCH  22  24
ENDBRANCH   2  20
TORSDOF 8
