REMARK  Name = ZINC32944631
REMARK  13 active torsions:
REMARK  status: ('A' for Active; 'I' for Inactive)
REMARK    1  A    between atoms: C_1  and  C_2
REMARK    2  A    between atoms: C_2  and  C_3
REMARK    3  A    between atoms: C_2  and  C_4
REMARK    4  A    between atoms: C_4  and  C_5
REMARK    5  A    between atoms: C_5  and  N_6
REMARK    6  A    between atoms: C_12  and  C_29
REMARK    7  A    between atoms: C_16  and  S_17
REMARK    8  A    between atoms: S_17  and  C_18
REMARK    9  A    between atoms: C_18  and  C_19
REMARK   10  A    between atoms: C_19  and  C_21
REMARK   11  A    between atoms: C_24  and  O_27
REMARK   12  A    between atoms: O_27  and  C_28
REMARK   13  A    between atoms: N_31  and  C_32
REMARK                            x       y       z     vdW  Elec       q    Type
REMARK                         _______ _______ _______ _____ _____    ______ ____
ROOT
ATOM      1  N   UNL     1       2.332   1.482  -0.012  0.00  0.00    -0.287 N 
ATOM      2  C   UNL     1       2.472   0.136  -0.021  0.00  0.00    +0.262 A 
ATOM      3  O   UNL     1       3.572  -0.383  -0.035  0.00  0.00    -0.267 OA
ATOM      4  C   UNL     1       1.245  -0.676  -0.013  0.00  0.00    +0.065 A 
ATOM      5  C   UNL     1       1.290  -2.070  -0.022  0.00  0.00    +0.016 A 
ATOM      6  C   UNL     1       0.128  -2.787  -0.015  0.00  0.00    +0.014 A 
ATOM      7  C   UNL     1      -1.112  -2.137   0.000  0.00  0.00    +0.039 A 
ATOM      8  C   UNL     1      -1.180  -0.750   0.009  0.00  0.00    +0.041 A 
ATOM      9  C   UNL     1       0.002  -0.004   0.002  0.00  0.00    +0.080 A 
ATOM     10  N   UNL     1      -0.016   1.350   0.009  0.00  0.00    -0.223 NA
ATOM     11  C   UNL     1       1.091   2.051   0.003  0.00  0.00    +0.173 A 
ENDROOT
BRANCH   7  12
ATOM     12  C   UNL     1      -2.360  -2.934   0.007  0.00  0.00    +0.244 C 
ATOM     13  O   UNL     1      -3.438  -2.374   0.020  0.00  0.00    -0.270 OA
ATOM     14  N   UNL     1      -2.300  -4.280  -0.001  0.00  0.00    -0.308 N 
ATOM     15  H   UNL     1      -1.324  -4.787  -0.013  0.00  0.00    +0.149 HD
BRANCH  14  16
ATOM     16  C   UNL     1      -3.534  -5.069   0.005  0.00  0.00    +0.073 C 
ATOM     17  C   UNL     1      -4.019  -5.245   1.446  0.00  0.00    +0.022 C 
ATOM     18  C   UNL     1      -5.309  -6.069   1.452  0.00  0.00    +0.002 C 
ATOM     19  C   UNL     1      -5.040  -7.442   0.833  0.00  0.00    +0.000 C 
ATOM     20  C   UNL     1      -4.556  -7.265  -0.608  0.00  0.00    +0.002 C 
ATOM     21  C   UNL     1      -3.266  -6.441  -0.615  0.00  0.00    +0.022 C 
ENDBRANCH  14  16
ENDBRANCH   7  12
BRANCH   1  22
ATOM     22  C   UNL     1       3.522   2.336  -0.019  0.00  0.00    +0.127 C 
BRANCH  22  23
ATOM     23  C   UNL     1       3.923   2.641  -1.464  0.00  0.00    +0.025 C 
BRANCH  23  25
ATOM     24  C   UNL     1       6.348   2.765  -0.877  0.00  0.00    +0.007 C 
ATOM     25  C   UNL     1       5.166   3.533  -1.471  0.00  0.00    -0.016 C 
ATOM     26  C   UNL     1       5.493   3.941  -2.909  0.00  0.00    +0.007 C 
ENDBRANCH  23  25
ENDBRANCH  22  23
ENDBRANCH   1  22
BRANCH  11  27
ATOM     27  S   UNL     1       0.972   3.808   0.013  0.00  0.00    -0.080 S 
BRANCH  27  28
ATOM     28  C   UNL     1      -0.828   4.002   0.032  0.00  0.00    +0.157 C 
BRANCH  28  29
ATOM     29  C   UNL     1      -1.175   5.468   0.043  0.00  0.00    +0.173 C 
ATOM     30  O   UNL     1      -0.293   6.301   0.039  0.00  0.00    -0.291 OA
BRANCH  29  31
ATOM     31  C   UNL     1      -2.582   5.889   0.058  0.00  0.00    +0.018 A 
ATOM     32  C   UNL     1      -3.603   4.930   0.057  0.00  0.00    +0.015 A 
ATOM     33  C   UNL     1      -4.915   5.328   0.077  0.00  0.00    +0.046 A 
ATOM     34  C   UNL     1      -5.233   6.682   0.087  0.00  0.00    +0.120 A 
ATOM     35  C   UNL     1      -4.223   7.639   0.083  0.00  0.00    +0.046 A 
ATOM     36  C   UNL     1      -2.908   7.251   0.069  0.00  0.00    +0.015 A 
BRANCH  34  37
ATOM     37  O   UNL     1      -6.532   7.071   0.101  0.00  0.00    -0.495 OA
ATOM     38  C   UNL     1      -7.519   6.037   0.105  0.00  0.00    +0.277 C 
ENDBRANCH  34  37
ENDBRANCH  29  31
ENDBRANCH  28  29
ENDBRANCH  27  28
ENDBRANCH  11  27
TORSDOF 10
