REMARK  Name = ZINC39016449
REMARK  4 active torsions:
REMARK  status: ('A' for Active; 'I' for Inactive)
REMARK    1  A    between atoms: C_3  and  C_6
REMARK    2  A    between atoms: N_7  and  N_8
REMARK    3  A    between atoms: C_9  and  C_11
REMARK    4  A    between atoms: C_14  and  C_17
REMARK                            x       y       z     vdW  Elec       q    Type
REMARK                         _______ _______ _______ _____ _____    ______ ____
ROOT
ATOM      1  C   UNL     1       8.490   1.047  -0.073  0.00  0.00    +0.240 C 
ATOM      2  C   UNL     1       8.919   1.411  -1.484  0.00  0.00    +0.041 C 
ATOM      3  C   UNL     1       9.948   0.578  -1.733  0.00  0.00    +0.092 C 
ATOM      4  N   UNL     1      10.180  -0.224  -0.660  0.00  0.00    -0.153 NA
ATOM      5  N   UNL     1       9.422  -0.030   0.298  0.00  0.00    -0.170 NA
ENDROOT
BRANCH   3   6
ATOM      6  C   UNL     1      10.720   0.542  -2.999  0.00  0.00    +0.003 A 
ATOM      7  C   UNL     1      10.402   1.416  -4.037  0.00  0.00    +0.011 A 
ATOM      8  C   UNL     1      11.123   1.379  -5.213  0.00  0.00    +0.022 A 
ATOM      9  C   UNL     1      12.161   0.476  -5.364  0.00  0.00    +0.059 A 
ATOM     10  C   UNL     1      12.482  -0.395  -4.335  0.00  0.00    +0.060 A 
ATOM     11  C   UNL     1      11.769  -0.362  -3.152  0.00  0.00    +0.031 A 
ATOM     12 CL   UNL     1      13.785  -1.526  -4.531  0.00  0.00    -0.082 Cl
ATOM     13 CL   UNL     1      13.063   0.434  -6.846  0.00  0.00    -0.082 Cl
ENDBRANCH   3   6
BRANCH   1  15
ATOM     14  N   UNL     1       6.045   1.424  -0.048  0.00  0.00    -0.205 N 
ATOM     15  C   UNL     1       7.068   0.547  -0.062  0.00  0.00    +0.263 C 
ATOM     16  O   UNL     1       6.844  -0.646  -0.067  0.00  0.00    -0.271 OA
ATOM     17  H   UNL     1       6.224   2.378  -0.045  0.00  0.00    +0.177 HD
BRANCH  14  19
ATOM     18  C   UNL     1       3.737   1.806  -0.024  0.00  0.00    +0.145 C 
ATOM     19  N   UNL     1       4.724   0.960  -0.038  0.00  0.00    -0.187 NA
BRANCH  18  22
ATOM     20  C   UNL     1      -0.016   1.354   0.009  0.00  0.00    +0.008 A 
ATOM     21  C   UNL     1       1.174   2.044   0.002  0.00  0.00    +0.017 A 
ATOM     22  C   UNL     1       2.353   1.320  -0.013  0.00  0.00    +0.032 A 
ATOM     23  S   UNL     1       1.751  -0.361  -0.017  0.00  0.00    -0.096 S 
ATOM     24  C   UNL     1       0.002  -0.004   0.002  0.00  0.00    +0.046 A 
ENDBRANCH  18  22
ENDBRANCH  14  19
ENDBRANCH   1  15
TORSDOF 4
