REMARK  Name = ZINC35590218
REMARK  11 active torsions:
REMARK  status: ('A' for Active; 'I' for Inactive)
REMARK    1  A    between atoms: C_1  and  C_2
REMARK    2  A    between atoms: C_5  and  C_8
REMARK    3  A    between atoms: C_11  and  S_21
REMARK    4  A    between atoms: N_12  and  C_13
REMARK    5  A    between atoms: C_16  and  O_19
REMARK    6  A    between atoms: O_19  and  C_20
REMARK    7  A    between atoms: S_21  and  C_22
REMARK    8  A    between atoms: C_22  and  C_23
REMARK    9  A    between atoms: C_26  and  C_29
REMARK   10  A    between atoms: N_31  and  C_32
REMARK   11  A    between atoms: C_32  and  C_33
REMARK                            x       y       z     vdW  Elec       q    Type
REMARK                         _______ _______ _______ _____ _____    ______ ____
ROOT
ATOM      1  C   UNL     1       0.059  -4.251  -0.021  0.00  0.00    +0.169 A 
ATOM      2  N   UNL     1      -0.203  -5.029  -1.046  0.00  0.00    -0.128 NA
ATOM      3  N   UNL     1      -0.093  -6.262  -0.701  0.00  0.00    -0.122 NA
ATOM      4  C   UNL     1       0.247  -6.349   0.566  0.00  0.00    +0.197 A 
ATOM      5  N   UNL     1       0.362  -5.072   1.043  0.00  0.00    -0.270 N 
ENDROOT
BRANCH   1  10
ATOM      6  C   UNL     1      -0.018   1.503   0.010  0.00  0.00    +0.044 C 
ATOM      7  C   UNL     1       0.002  -0.004   0.002  0.00  0.00    -0.050 A 
ATOM      8  C   UNL     1       0.006  -0.686  -1.202  0.00  0.00    +0.004 A 
ATOM      9  C   UNL     1       0.024  -2.066  -1.216  0.00  0.00    +0.012 A 
ATOM     10  C   UNL     1       0.040  -2.773  -0.013  0.00  0.00    +0.020 A 
ATOM     11  C   UNL     1       0.036  -2.079   1.198  0.00  0.00    +0.012 A 
ATOM     12  C   UNL     1       0.023  -0.699   1.198  0.00  0.00    +0.004 A 
ENDBRANCH   1  10
BRANCH   5  13
ATOM     13  C   UNL     1       0.712  -4.680   2.344  0.00  0.00    +0.051 A 
ATOM     14  C   UNL     1       1.889  -3.978   2.565  0.00  0.00    +0.030 A 
ATOM     15  C   UNL     1       2.233  -3.592   3.845  0.00  0.00    +0.047 A 
ATOM     16  C   UNL     1       1.402  -3.907   4.911  0.00  0.00    +0.120 A 
ATOM     17  C   UNL     1       0.226  -4.609   4.691  0.00  0.00    +0.047 A 
ATOM     18  C   UNL     1      -0.122  -4.989   3.410  0.00  0.00    +0.030 A 
BRANCH  16  19
ATOM     19  O   UNL     1       1.741  -3.528   6.172  0.00  0.00    -0.495 OA
ATOM     20  C   UNL     1       0.840  -3.885   7.221  0.00  0.00    +0.277 C 
ENDBRANCH  16  19
ENDBRANCH   5  13
BRANCH   4  21
ATOM     21  S   UNL     1       0.513  -7.833   1.478  0.00  0.00    -0.081 S 
BRANCH  21  22
ATOM     22  C   UNL     1       0.210  -9.151   0.270  0.00  0.00    +0.112 C 
BRANCH  22  23
ATOM     23  C   UNL     1       0.406 -10.492   0.929  0.00  0.00    -0.037 A 
ATOM     24  C   UNL     1       1.656 -11.085   0.926  0.00  0.00    +0.005 A 
ATOM     25  C   UNL     1       1.843 -12.312   1.528  0.00  0.00    +0.013 A 
ATOM     26  C   UNL     1       0.766 -12.956   2.141  0.00  0.00    +0.037 A 
ATOM     27  C   UNL     1      -0.492 -12.352   2.141  0.00  0.00    +0.013 A 
ATOM     28  C   UNL     1      -0.664 -11.122   1.540  0.00  0.00    +0.005 A 
BRANCH  26  29
ATOM     29  C   UNL     1       0.959 -14.271   2.788  0.00  0.00    +0.244 C 
ATOM     30  O   UNL     1       2.056 -14.795   2.786  0.00  0.00    -0.270 OA
ATOM     31  N   UNL     1      -0.082 -14.890   3.379  0.00  0.00    -0.304 N 
ATOM     32  H   UNL     1      -0.958 -14.473   3.380  0.00  0.00    +0.149 HD
BRANCH  31  33
ATOM     33  C   UNL     1       0.108 -16.194   4.019  0.00  0.00    +0.179 C 
BRANCH  33  34
ATOM     34  C   UNL     1      -1.200 -16.664   4.600  0.00  0.00    +0.122 A 
ATOM     35  C   UNL     1      -2.120 -17.412   3.963  0.00  0.00    +0.046 A 
ATOM     36  C   UNL     1      -3.182 -17.618   4.874  0.00  0.00    +0.041 A 
ATOM     37  C   UNL     1      -2.848 -16.984   6.012  0.00  0.00    +0.195 A 
ATOM     38  O   UNL     1      -1.644 -16.413   5.843  0.00  0.00    -0.466 OA
ENDBRANCH  33  34
ENDBRANCH  31  33
ENDBRANCH  26  29
ENDBRANCH  22  23
ENDBRANCH  21  22
ENDBRANCH   4  21
TORSDOF 9
