REMARK  Name = ZINC05522875
REMARK  7 active torsions:
REMARK  status: ('A' for Active; 'I' for Inactive)
REMARK    1  A    between atoms: C_4  and  N_7
REMARK    2  A    between atoms: N_7  and  C_8
REMARK    3  A    between atoms: C_14  and  C_16
REMARK    4  A    between atoms: C_16  and  S_17
REMARK    5  A    between atoms: S_17  and  C_18
REMARK    6  A    between atoms: C_22  and  C_24
REMARK    7  A    between atoms: C_29  and  O_30
REMARK                            x       y       z     vdW  Elec       q    Type
REMARK                         _______ _______ _______ _____ _____    ______ ____
ROOT
ATOM      1  C   UNL     1       6.058  -0.614  -0.324  0.00  0.00    +0.174 C 
ENDROOT
BRANCH   1   3
ATOM      2  N   UNL     1       3.601  -0.652  -0.040  0.00  0.00    -0.240 N 
ATOM      3  C   UNL     1       4.728   0.077  -0.169  0.00  0.00    +0.234 C 
ATOM      4  O   UNL     1       4.671   1.288  -0.160  0.00  0.00    -0.274 OA
BRANCH   2   8
ATOM      5  C   UNL     1      -0.109   1.244   0.032  0.00  0.00    +0.000 A 
ATOM      6  C   UNL     1       0.268   0.425   1.080  0.00  0.00    +0.002 A 
ATOM      7  C   UNL     1       1.496  -0.205   1.059  0.00  0.00    +0.024 A 
ATOM      8  C   UNL     1       2.354  -0.015  -0.016  0.00  0.00    +0.041 A 
ATOM      9  C   UNL     1       1.973   0.808  -1.067  0.00  0.00    +0.024 A 
ATOM     10  C   UNL     1       0.743   1.435  -1.041  0.00  0.00    +0.002 A 
ENDBRANCH   2   8
BRANCH   2  11
ATOM     11  C   UNL     1       3.678  -2.046   0.070  0.00  0.00    +0.041 A 
ATOM     12  C   UNL     1       4.265  -2.624   1.188  0.00  0.00    +0.024 A 
ATOM     13  C   UNL     1       4.338  -3.999   1.294  0.00  0.00    +0.002 A 
ATOM     14  C   UNL     1       3.829  -4.800   0.288  0.00  0.00    +0.000 A 
ATOM     15  C   UNL     1       3.244  -4.227  -0.826  0.00  0.00    +0.002 A 
ATOM     16  C   UNL     1       3.162  -2.853  -0.935  0.00  0.00    +0.024 A 
ENDBRANCH   2  11
ENDBRANCH   1   3
BRANCH   1  17
ATOM     17  S   UNL     1       7.350   0.624  -0.628  0.00  0.00    -0.077 S 
BRANCH  17  18
ATOM     18  C   UNL     1       8.824  -0.329  -0.785  0.00  0.00    +0.185 A 
ATOM     19  N   UNL     1      10.063   0.159  -1.015  0.00  0.00    -0.253 N 
ATOM     20  H   UNL     1      10.309   1.091  -1.123  0.00  0.00    +0.191 HD
ATOM     21  N   UNL     1      10.925  -0.949  -1.065  0.00  0.00    -0.151 NA
ATOM     22  C   UNL     1      10.185  -2.018  -0.869  0.00  0.00    +0.186 A 
ATOM     23  N   UNL     1       8.911  -1.638  -0.693  0.00  0.00    -0.201 NA
BRANCH  22  24
ATOM     24  C   UNL     1      10.680  -3.416  -0.840  0.00  0.00    +0.062 A 
ATOM     25  C   UNL     1       9.793  -4.468  -0.629  0.00  0.00    +0.015 A 
ATOM     26  C   UNL     1      10.258  -5.767  -0.604  0.00  0.00    +0.001 A 
ATOM     27  C   UNL     1      11.604  -6.029  -0.787  0.00  0.00    +0.004 A 
ATOM     28  C   UNL     1      12.494  -4.992  -0.998  0.00  0.00    +0.046 A 
ATOM     29  C   UNL     1      12.039  -3.683  -1.031  0.00  0.00    +0.128 A 
BRANCH  29  30
ATOM     30  O   UNL     1      12.912  -2.664  -1.243  0.00  0.00    -0.506 OA
ATOM     31  H   UNL     1      13.299  -2.304  -0.434  0.00  0.00    +0.292 HD
ENDBRANCH  29  30
ENDBRANCH  22  24
ENDBRANCH  17  18
ENDBRANCH   1  17
TORSDOF 7
