REMARK  Name = ZINC36600611
REMARK  16 active torsions:
REMARK  status: ('A' for Active; 'I' for Inactive)
REMARK    1  A    between atoms: C_1  and  C_2
REMARK    2  A    between atoms: C_2  and  C_3
REMARK    3  A    between atoms: C_3  and  C_4
REMARK    4  A    between atoms: C_4  and  C_5
REMARK    5  A    between atoms: C_5  and  C_6
REMARK    6  A    between atoms: N_8  and  C_9
REMARK    7  A    between atoms: N_8  and  C_16
REMARK    8  A    between atoms: C_9  and  C_10
REMARK    9  A    between atoms: C_13  and  C_15
REMARK   10  A    between atoms: C_16  and  C_18
REMARK   11  A    between atoms: C_16  and  C_25
REMARK   12  A    between atoms: C_21  and  O_24
REMARK   13  A    between atoms: N_27  and  C_28
REMARK   14  A    between atoms: C_28  and  S_29
REMARK   15  A    between atoms: S_29  and  C_32
REMARK   16  A    between atoms: C_35  and  C_38
REMARK                            x       y       z     vdW  Elec       q    Type
REMARK                         _______ _______ _______ _____ _____    ______ ____
ROOT
ATOM      1  C   UNL     1       1.432  -5.547   3.245  0.00  0.00    +0.193 C 
ENDROOT
BRANCH   1   2
ATOM      2  C   UNL     1       1.139  -4.830   4.537  0.00  0.00    -0.018 A 
ATOM      3  C   UNL     1       2.046  -3.915   5.040  0.00  0.00    +0.009 A 
ATOM      4  C   UNL     1       1.779  -3.257   6.225  0.00  0.00    +0.046 A 
ATOM      5  C   UNL     1       0.600  -3.513   6.910  0.00  0.00    +0.117 A 
ATOM      6  C   UNL     1      -0.308  -4.431   6.403  0.00  0.00    +0.046 A 
ATOM      7  C   UNL     1      -0.040  -5.082   5.215  0.00  0.00    +0.009 A 
BRANCH   5   8
ATOM      8  O   UNL     1       0.336  -2.867   8.076  0.00  0.00    -0.507 OA
ATOM      9  H   UNL     1      -0.142  -2.034   7.964  0.00  0.00    +0.292 HD
ENDBRANCH   5   8
ENDBRANCH   1   2
BRANCH   1  10
ATOM     10  C   UNL     1       2.512  -6.572   3.473  0.00  0.00    +0.239 C 
ATOM     11  O   UNL     1       3.655  -6.216   3.668  0.00  0.00    -0.273 OA
ATOM     12  N   UNL     1       2.208  -7.885   3.462  0.00  0.00    -0.294 N 
ATOM     13  H   UNL     1       1.294  -8.170   3.306  0.00  0.00    +0.150 HD
BRANCH  12  14
ATOM     14  C   UNL     1       3.258  -8.883   3.684  0.00  0.00    +0.278 C 
BRANCH  14  15
ATOM     15  S   UNL     1       3.288  -9.348   5.437  0.00  0.00    +0.013 S 
ATOM     16  O   UNL     1       4.260 -10.362   5.657  0.00  0.00    -0.168 OA
ATOM     17  O   UNL     1       3.256  -8.185   6.253  0.00  0.00    -0.168 OA
BRANCH  15  18
ATOM     18  C   UNL     1       1.740 -10.140   5.722  0.00  0.00    +0.090 A 
ATOM     19  C   UNL     1       0.645  -9.395   6.117  0.00  0.00    +0.027 A 
ATOM     20  C   UNL     1      -0.570 -10.015   6.340  0.00  0.00    +0.005 A 
ATOM     21  C   UNL     1      -0.689 -11.382   6.168  0.00  0.00    -0.050 A 
ATOM     22  C   UNL     1       0.405 -12.127   5.772  0.00  0.00    +0.005 A 
ATOM     23  C   UNL     1       1.619 -11.506   5.545  0.00  0.00    +0.027 A 
ATOM     24  C   UNL     1      -2.013 -12.059   6.413  0.00  0.00    +0.044 C 
ENDBRANCH  15  18
ENDBRANCH  14  15
ENDBRANCH  12  14
ENDBRANCH   1  10
BRANCH   1  27
ATOM     25  C   UNL     1       1.020  -3.666   1.751  0.00  0.00    +0.217 C 
ATOM     26  O   UNL     1      -0.128  -3.646   2.141  0.00  0.00    -0.276 OA
ATOM     27  N   UNL     1       1.882  -4.579   2.241  0.00  0.00    -0.279 N 
BRANCH  25  28
ATOM     28  C   UNL     1       1.483  -2.671   0.718  0.00  0.00    +0.096 C 
BRANCH  28  29
ATOM     29  C   UNL     1       0.319  -1.756   0.334  0.00  0.00    +0.009 C 
BRANCH  29  30
ATOM     30  C   UNL     1       0.789  -0.746  -0.715  0.00  0.00    +0.000 C 
BRANCH  30  32
ATOM     31  C   UNL     1       0.094   1.180  -2.148  0.00  0.00    +0.004 C 
ATOM     32  C   UNL     1      -0.376   0.169  -1.099  0.00  0.00    -0.003 C 
ENDBRANCH  30  32
ENDBRANCH  29  30
ENDBRANCH  28  29
ENDBRANCH  25  28
BRANCH  27  33
ATOM     33  C   UNL     1       3.269  -4.605   1.769  0.00  0.00    +0.183 C 
BRANCH  33  34
ATOM     34  C   UNL     1       4.074  -3.577   2.522  0.00  0.00    +0.122 A 
ATOM     35  C   UNL     1       5.121  -3.833   3.327  0.00  0.00    +0.046 A 
ATOM     36  C   UNL     1       5.572  -2.588   3.821  0.00  0.00    +0.045 A 
ATOM     37  C   UNL     1       4.774  -1.645   3.289  0.00  0.00    +0.102 A 
ATOM     38  O   UNL     1       3.872  -2.249   2.498  0.00  0.00    -0.463 OA
ATOM     39  C   UNL     1       4.877  -0.162   3.534  0.00  0.00    +0.086 C 
ENDBRANCH  33  34
ENDBRANCH  27  33
ENDBRANCH   1  27
TORSDOF 13
