REMARK  Name = ZINC43462156
REMARK  7 active torsions:
REMARK  status: ('A' for Active; 'I' for Inactive)
REMARK    1  A    between atoms: C_1  and  C_2
REMARK    2  A    between atoms: C_7  and  N_8
REMARK    3  A    between atoms: C_12  and  S_13
REMARK    4  A    between atoms: S_13  and  C_14
REMARK    5  A    between atoms: C_14  and  C_15
REMARK    6  A    between atoms: C_15  and  O_16
REMARK    7  A    between atoms: O_16  and  C_17
REMARK                            x       y       z     vdW  Elec       q    Type
REMARK                         _______ _______ _______ _____ _____    ______ ____
ROOT
ATOM      1  N   UNL     1       0.025  -0.013   2.419  0.00  0.00    -0.277 N 
ATOM      2  C   UNL     1       1.026   0.013   3.355  0.00  0.00    +0.230 A 
ATOM      3  N   UNL     1       0.622   0.774   4.333  0.00  0.00    -0.137 NA
ATOM      4  N   UNL     1      -0.555   1.228   4.084  0.00  0.00    -0.122 NA
ATOM      5  C   UNL     1      -0.969   0.783   2.920  0.00  0.00    +0.196 A 
ENDROOT
BRANCH   1  12
ATOM      6  C   UNL     1      -0.018   1.503   0.010  0.00  0.00    +0.046 C 
ATOM      7  C   UNL     1       0.002  -0.004   0.002  0.00  0.00    -0.027 A 
ATOM      8  C   UNL     1       0.006  -0.689  -1.198  0.00  0.00    +0.005 A 
ATOM      9  C   UNL     1       0.024  -2.071  -1.206  0.00  0.00    +0.000 A 
ATOM     10  C   UNL     1       0.039  -2.773  -0.014  0.00  0.00    +0.002 A 
ATOM     11  C   UNL     1       0.035  -2.093   1.188  0.00  0.00    +0.026 A 
ATOM     12  C   UNL     1       0.023  -0.705   1.200  0.00  0.00    +0.053 A 
ENDBRANCH   1  12
BRANCH   5  13
ATOM     13  S   UNL     1      -2.513   1.140   2.151  0.00  0.00    -0.082 S 
BRANCH  13  14
ATOM     14  C   UNL     1      -3.347   2.238   3.329  0.00  0.00    +0.118 C 
BRANCH  14  15
ATOM     15  C   UNL     1      -4.720   2.630   2.778  0.00  0.00    +0.240 C 
BRANCH  15  16
ATOM     16  O   UNL     1      -5.377   3.495   3.707  0.00  0.00    -0.491 OA
BRANCH  16  17
ATOM     17  C   UNL     1      -6.615   3.938   3.366  0.00  0.00    +0.121 A 
ATOM     18  C   UNL     1      -7.189   3.544   2.166  0.00  0.00    +0.045 A 
ATOM     19  C   UNL     1      -8.449   3.996   1.823  0.00  0.00    +0.004 A 
ATOM     20  C   UNL     1      -9.137   4.841   2.674  0.00  0.00    +0.000 A 
ATOM     21  C   UNL     1      -8.567   5.235   3.871  0.00  0.00    +0.004 A 
ATOM     22  C   UNL     1      -7.311   4.781   4.221  0.00  0.00    +0.045 A 
ENDBRANCH  16  17
ENDBRANCH  15  16
ENDBRANCH  14  15
ENDBRANCH  13  14
ENDBRANCH   5  13
TORSDOF 6
