REMARK  Name = ZINC54197075
REMARK  10 active torsions:
REMARK  status: ('A' for Active; 'I' for Inactive)
REMARK    1  A    between atoms: C_1  and  C_2
REMARK    2  A    between atoms: C_2  and  C_3
REMARK    3  A    between atoms: C_3  and  C_5
REMARK    4  A    between atoms: C_3  and  C_6
REMARK    5  A    between atoms: C_6  and  C_8
REMARK    6  A    between atoms: C_6  and  N_23
REMARK    7  A    between atoms: N_10  and  C_11
REMARK    8  A    between atoms: C_11  and  C_12
REMARK    9  A    between atoms: C_12  and  C_13
REMARK   10  A    between atoms: C_18  and  C_19
REMARK                            x       y       z     vdW  Elec       q    Type
REMARK                         _______ _______ _______ _____ _____    ______ ____
ROOT
ATOM      1  C   UNL     1       1.212  -2.504   2.760  0.00  0.00    +0.234 C 
ATOM      2  O   UNL     1       2.328  -2.780   3.145  0.00  0.00    -0.274 OA
ATOM      3  N   UNL     1       0.165  -2.601   3.603  0.00  0.00    -0.313 N 
ATOM      4  H   UNL     1      -0.728  -2.381   3.295  0.00  0.00    +0.149 HD
ENDROOT
BRANCH   1   5
ATOM      5  C   UNL     1       0.995  -2.054   1.338  0.00  0.00    +0.163 C 
BRANCH   5   6
ATOM      6  N   UNL     1       2.131  -2.473   0.514  0.00  0.00    -0.288 N 
ATOM      7  C   UNL     1       2.156  -3.710  -0.021  0.00  0.00    +0.298 C 
ATOM      8  O   UNL     1       1.282  -4.509   0.255  0.00  0.00    -0.253 OA
ATOM      9  N   UNL     1       3.149  -4.061  -0.861  0.00  0.00    -0.313 N 
ATOM     10  H   UNL     1       2.866  -1.861   0.353  0.00  0.00    +0.151 HD
ATOM     11  H   UNL     1       3.846  -3.424  -1.081  0.00  0.00    +0.146 HD
ATOM     12  H   UNL     1       3.167  -4.952  -1.246  0.00  0.00    +0.146 HD
ENDBRANCH   5   6
BRANCH   5  13
ATOM     13  C   UNL     1       0.871  -0.530   1.299  0.00  0.00    +0.015 C 
ATOM     14  C   UNL     1       2.163   0.100   1.822  0.00  0.00    +0.010 C 
BRANCH  13  16
ATOM     15  C   UNL     1       0.382   1.435  -0.165  0.00  0.00    +0.004 C 
ATOM     16  C   UNL     1       0.629  -0.074  -0.142  0.00  0.00    +0.002 C 
ENDBRANCH  13  16
ENDBRANCH   5  13
ENDBRANCH   1   5
BRANCH   3  17
ATOM     17  C   UNL     1       0.376  -3.038   4.985  0.00  0.00    +0.109 C 
BRANCH  17  18
ATOM     18  C   UNL     1      -0.964  -3.062   5.723  0.00  0.00    +0.054 C 
BRANCH  18  19
ATOM     19  C   UNL     1      -0.747  -3.512   7.145  0.00  0.00    -0.034 A 
ATOM     20  C   UNL     1      -0.909  -4.843   7.481  0.00  0.00    +0.004 A 
ATOM     21  C   UNL     1      -0.710  -5.256   8.785  0.00  0.00    +0.000 A 
ATOM     22  C   UNL     1      -0.349  -4.338   9.753  0.00  0.00    +0.001 A 
ATOM     23  C   UNL     1      -0.186  -3.007   9.417  0.00  0.00    +0.012 A 
ATOM     24  C   UNL     1      -0.381  -2.595   8.112  0.00  0.00    +0.058 A 
BRANCH  24  25
ATOM     25  C   UNL     1      -0.199  -1.144   7.745  0.00  0.00    +0.418 C 
ATOM     26  F   UNL     1       0.168  -0.418   8.882  0.00  0.00    -0.166 F 
ATOM     27  F   UNL     1       0.803  -1.031   6.775  0.00  0.00    -0.166 F 
ATOM     28  F   UNL     1      -1.400  -0.638   7.236  0.00  0.00    -0.166 F 
ENDBRANCH  24  25
ENDBRANCH  18  19
ENDBRANCH  17  18
ENDBRANCH   3  17
TORSDOF 8
