REMARK  Name = ZINC62811450
REMARK  10 active torsions:
REMARK  status: ('A' for Active; 'I' for Inactive)
REMARK    1  A    between atoms: C_1  and  C_2
REMARK    2  A    between atoms: C_2  and  C_3
REMARK    3  A    between atoms: C_3  and  C_4
REMARK    4  A    between atoms: C_4  and  C_5
REMARK    5  A    between atoms: C_5  and  N_6
REMARK    6  A    between atoms: N_6  and  C_7
REMARK    7  A    between atoms: C_7  and  C_8
REMARK    8  A    between atoms: C_7  and  C_9
REMARK    9  A    between atoms: C_10  and  C_12
REMARK   10  A    between atoms: C_13  and  N_18
REMARK                            x       y       z     vdW  Elec       q    Type
REMARK                         _______ _______ _______ _____ _____    ______ ____
ROOT
ATOM      1  N   UNL     1       1.431  -3.882  -2.583  0.00  0.00    -0.294 N 
ATOM      2  C   UNL     1       2.420  -4.669  -2.115  0.00  0.00    +0.269 C 
ATOM      3  O   UNL     1       2.329  -5.878  -2.205  0.00  0.00    -0.268 OA
ENDROOT
BRANCH   2   4
ATOM      4  C   UNL     1       3.612  -4.064  -1.494  0.00  0.00    +0.167 A 
ATOM      5  C   UNL     1       4.775  -4.749  -1.056  0.00  0.00    +0.075 A 
ATOM      6  C   UNL     1       5.596  -3.787  -0.557  0.00  0.00    +0.128 A 
ATOM      7  N   UNL     1       4.949  -2.600  -0.696  0.00  0.00    -0.282 N 
ATOM      8  H   UNL     1       5.303  -1.739  -0.423  0.00  0.00    +0.188 HD
ATOM      9  N   UNL     1       3.803  -2.781  -1.247  0.00  0.00    -0.167 NA
BRANCH   5  10
ATOM     10  N   UNL     1       5.024  -6.128  -1.122  0.00  0.00    -0.355 N 
ATOM     11  H   UNL     1       4.359  -6.723  -1.502  0.00  0.00    +0.142 HD
ATOM     12  H   UNL     1       5.862  -6.486  -0.789  0.00  0.00    +0.142 HD
ENDBRANCH   5  10
ENDBRANCH   2   4
BRANCH   1  13
ATOM     13  C   UNL     1       0.198  -4.483  -3.098  0.00  0.00    +0.070 C 
ATOM     14  C   UNL     1       0.525  -5.358  -4.310  0.00  0.00    +0.028 C 
ATOM     15  C   UNL     1      -0.444  -5.343  -2.007  0.00  0.00    +0.028 C 
ENDBRANCH   1  13
BRANCH   1  16
ATOM     16  C   UNL     1       1.589  -2.426  -2.577  0.00  0.00    +0.108 C 
BRANCH  16  17
ATOM     17  C   UNL     1       1.153  -1.871  -1.219  0.00  0.00    +0.019 C 
BRANCH  17  18
ATOM     18  C   UNL     1       1.317  -0.350  -1.212  0.00  0.00    +0.001 C 
BRANCH  18  20
ATOM     19  C   UNL     1       1.046   1.725   0.152  0.00  0.00    +0.004 C 
ATOM     20  C   UNL     1       0.881   0.204   0.145  0.00  0.00    -0.003 C 
ENDBRANCH  18  20
ENDBRANCH  17  18
ENDBRANCH  16  17
ENDBRANCH   1  16
TORSDOF 7
