REMARK  Name = ZINC63739478
REMARK  7 active torsions:
REMARK  status: ('A' for Active; 'I' for Inactive)
REMARK    1  A    between atoms: C_1  and  C_2
REMARK    2  A    between atoms: C_5  and  C_8
REMARK    3  A    between atoms: C_8  and  N_9
REMARK    4  A    between atoms: C_10  and  C_12
REMARK    5  A    between atoms: C_12  and  C_14
REMARK    6  A    between atoms: C_12  and  C_15
REMARK    7  A    between atoms: C_21  and  C_23
REMARK                            x       y       z     vdW  Elec       q    Type
REMARK                         _______ _______ _______ _____ _____    ______ ____
ROOT
ATOM      1  C   UNL     1       3.157  -8.081  -0.059  0.00  0.00    +0.004 C 
ATOM      2  C   UNL     1       2.448  -8.607   1.191  0.00  0.00    +0.023 C 
ATOM      3  C   UNL     1       2.439 -10.139   1.161  0.00  0.00    +0.108 C 
ATOM      4  N   UNL     1       3.820 -10.617   1.005  0.00  0.00    -0.300 N 
ATOM      5  C   UNL     1       4.622 -10.104  -0.113  0.00  0.00    +0.108 C 
ATOM      6  C   UNL     1       4.606  -8.572  -0.070  0.00  0.00    +0.023 C 
ATOM      7  C   UNL     1       4.340 -11.508   1.871  0.00  0.00    +0.242 C 
ATOM      8  O   UNL     1       3.667 -11.924   2.791  0.00  0.00    -0.273 OA
ENDROOT
BRANCH   7   9
ATOM      9  C   UNL     1       5.758 -11.989   1.698  0.00  0.00    +0.190 C 
ATOM     10  C   UNL     1       6.721 -10.831   1.831  0.00  0.00    +0.016 C 
ATOM     11  C   UNL     1       7.518 -11.126   2.883  0.00  0.00    -0.002 A 
ATOM     12  C   UNL     1       8.636 -10.414   3.514  0.00  0.00    +0.029 A 
ATOM     13  C   UNL     1       9.254 -10.975   4.579  0.00  0.00    +0.042 A 
ATOM     14  C   UNL     1       8.854 -12.216   5.094  0.00  0.00    +0.022 A 
ATOM     15  C   UNL     1       7.835 -12.929   4.568  0.00  0.00    +0.027 A 
ATOM     16  C   UNL     1       7.115 -12.434   3.446  0.00  0.00    +0.043 A 
ATOM     17  N   UNL     1       6.107 -12.930   2.767  0.00  0.00    -0.370 N 
ATOM     18 CL   UNL     1      10.577 -10.136   5.327  0.00  0.00    -0.084 Cl
ATOM     19  H   UNL     1       5.667 -13.777   2.943  0.00  0.00    +0.161 HD
ENDBRANCH   7   9
BRANCH   1  20
ATOM     20  C   UNL     1       3.137  -6.551  -0.051  0.00  0.00    +0.075 C 
ATOM     21  C   UNL     1       3.845  -6.025  -1.301  0.00  0.00    +0.017 C 
BRANCH  20  23
ATOM     22  N   UNL     1       1.447  -4.746  -0.032  0.00  0.00    -0.311 N 
ATOM     23  C   UNL     1       1.710  -6.067  -0.040  0.00  0.00    +0.216 C 
ATOM     24  O   UNL     1       0.799  -6.867  -0.040  0.00  0.00    -0.276 OA
ATOM     25  H   UNL     1       2.176  -4.106  -0.032  0.00  0.00    +0.149 HD
BRANCH  22  26
ATOM     26  C   UNL     1       0.059  -4.275  -0.021  0.00  0.00    +0.139 C 
BRANCH  26  31
ATOM     27  C   UNL     1      -0.018   1.503   0.010  0.00  0.00    +0.044 C 
ATOM     28  C   UNL     1       0.002  -0.004   0.002  0.00  0.00    -0.050 A 
ATOM     29  C   UNL     1       0.006  -0.689  -1.199  0.00  0.00    +0.003 A 
ATOM     30  C   UNL     1       0.025  -2.071  -1.206  0.00  0.00    +0.005 A 
ATOM     31  C   UNL     1       0.040  -2.768  -0.013  0.00  0.00    -0.030 A 
ATOM     32  C   UNL     1       0.037  -2.084   1.188  0.00  0.00    +0.005 A 
ATOM     33  C   UNL     1       0.023  -0.702   1.195  0.00  0.00    +0.003 A 
ENDBRANCH  26  31
ENDBRANCH  22  26
ENDBRANCH  20  23
ENDBRANCH   1  20
TORSDOF 5
