REMARK  Name = ZINC67272401
REMARK  11 active torsions:
REMARK  status: ('A' for Active; 'I' for Inactive)
REMARK    1  A    between atoms: C_1  and  C_2
REMARK    2  A    between atoms: N_5  and  C_8
REMARK    3  A    between atoms: C_8  and  C_10
REMARK    4  A    between atoms: C_8  and  C_11
REMARK    5  A    between atoms: C_11  and  N_12
REMARK    6  A    between atoms: C_13  and  C_15
REMARK    7  A    between atoms: C_15  and  C_16
REMARK    8  A    between atoms: C_16  and  C_18
REMARK    9  A    between atoms: C_16  and  N_19
REMARK   10  A    between atoms: N_19  and  S_20
REMARK   11  A    between atoms: S_20  and  C_23
REMARK                            x       y       z     vdW  Elec       q    Type
REMARK                         _______ _______ _______ _____ _____    ______ ____
ROOT
ATOM      1  N   UNL     1       1.955  -3.921   2.403  0.00  0.00    -0.317 N 
ATOM      2  C   UNL     1       2.600  -4.105   3.572  0.00  0.00    +0.215 C 
ATOM      3  O   UNL     1       3.700  -4.617   3.584  0.00  0.00    -0.276 OA
ATOM      4  H   UNL     1       1.076  -3.512   2.393  0.00  0.00    +0.149 HD
ENDROOT
BRANCH   1   5
ATOM      5  C   UNL     1       2.582  -4.341   1.147  0.00  0.00    +0.088 C 
BRANCH   5   6
ATOM      6  C   UNL     1       1.710  -3.900  -0.030  0.00  0.00    -0.054 C 
ATOM      7  C   UNL     1       2.420  -4.233  -1.344  0.00  0.00    -0.012 C 
BRANCH   6  12
ATOM      8  C   UNL     1       1.235   1.728  -0.822  0.00  0.00    +0.007 C 
ATOM      9  C   UNL     1       1.521   0.239  -1.027  0.00  0.00    -0.018 C 
ATOM     10  C   UNL     1       2.531  -0.238   0.020  0.00  0.00    -0.016 C 
ATOM     11  C   UNL     1       2.752  -1.744  -0.140  0.00  0.00    -0.078 C 
ATOM     12  N   UNL     1       1.479  -2.451   0.048  0.00  0.00    +0.382 N 
ATOM     13  C   UNL     1       0.528  -2.052  -0.997  0.00  0.00    -0.078 C 
ATOM     14  C   UNL     1       0.223  -0.558  -0.869  0.00  0.00    -0.016 C 
ATOM     15  H   UNL     1       1.099  -2.221   0.953  0.00  0.00    -0.081 HD
ENDBRANCH   6  12
ENDBRANCH   5   6
ENDBRANCH   1   5
BRANCH   2  16
ATOM     16  C   UNL     1       1.956  -3.673   4.864  0.00  0.00    +0.115 C 
BRANCH  16  17
ATOM     17  C   UNL     1       2.892  -3.992   6.032  0.00  0.00    +0.082 C 
ATOM     18  C   UNL     1       2.188  -3.669   7.352  0.00  0.00    +0.026 C 
BRANCH  17  19
ATOM     19  N   UNL     1       4.109  -3.185   5.918  0.00  0.00    -0.187 NA
ATOM     20  H   UNL     1       4.061  -2.283   5.564  0.00  0.00    +0.148 HD
BRANCH  19  21
ATOM     21  S   UNL     1       5.566  -3.813   6.391  0.00  0.00    +0.059 S 
ATOM     22  O   UNL     1       6.542  -2.812   6.135  0.00  0.00    -0.153 OA
ATOM     23  O   UNL     1       5.368  -4.369   7.684  0.00  0.00    -0.153 OA
BRANCH  21  24
ATOM     24  C   UNL     1       5.929  -5.159   5.314  0.00  0.00    +0.105 A 
ATOM     25  C   UNL     1       5.502  -6.434   5.633  0.00  0.00    +0.031 A 
ATOM     26  C   UNL     1       5.785  -7.490   4.788  0.00  0.00    +0.040 A 
ATOM     27  C   UNL     1       6.498  -7.271   3.621  0.00  0.00    +0.124 A 
ATOM     28  C   UNL     1       6.925  -5.993   3.303  0.00  0.00    +0.040 A 
ATOM     29  C   UNL     1       6.636  -4.937   4.146  0.00  0.00    +0.031 A 
ATOM     30  F   UNL     1       6.776  -8.303   2.795  0.00  0.00    -0.205 F 
ENDBRANCH  21  24
ENDBRANCH  19  21
ENDBRANCH  17  19
ENDBRANCH  16  17
ENDBRANCH   2  16
TORSDOF 8
