REMARK  Name = ZINC63714182
REMARK  5 active torsions:
REMARK  status: ('A' for Active; 'I' for Inactive)
REMARK    1  A    between atoms: C_1  and  C_2
REMARK    2  A    between atoms: C_5  and  N_12
REMARK    3  A    between atoms: C_13  and  C_15
REMARK    4  A    between atoms: C_18  and  N_20
REMARK    5  A    between atoms: C_21  and  C_23
REMARK                            x       y       z     vdW  Elec       q    Type
REMARK                         _______ _______ _______ _____ _____    ______ ____
ROOT
ATOM      1  N   UNL     1       0.057  -4.190  -0.064  0.00  0.00    -0.279 N 
ATOM      2  C   UNL     1      -0.042  -4.838  -1.242  0.00  0.00    +0.255 C 
ATOM      3  O   UNL     1      -0.055  -4.207  -2.284  0.00  0.00    -0.269 OA
ATOM      4  H   UNL     1       0.133  -4.694   0.761  0.00  0.00    +0.155 HD
ENDROOT
BRANCH   1   9
ATOM      5  C   UNL     1       0.058   1.503   0.013  0.00  0.00    +0.044 C 
ATOM      6  C   UNL     1       0.052  -0.004   0.003  0.00  0.00    -0.040 A 
ATOM      7  C   UNL     1       0.634  -0.681  -1.028  0.00  0.00    +0.006 A 
ATOM      8  C   UNL     1       0.638  -2.070  -1.054  0.00  0.00    +0.026 A 
ATOM      9  C   UNL     1       0.050  -2.792  -0.032  0.00  0.00    +0.059 A 
ATOM     10  C   UNL     1      -0.551  -2.116   1.034  0.00  0.00    +0.087 A 
ATOM     11  C   UNL     1      -0.546  -0.710   1.056  0.00  0.00    +0.024 A 
ATOM     12  C   UNL     1      -1.211  -0.315   2.242  0.00  0.00    +0.143 A 
ATOM     13  N   UNL     1      -1.582  -1.382   2.887  0.00  0.00    -0.181 NA
ATOM     14  N   UNL     1      -1.202  -2.524   2.171  0.00  0.00    -0.275 N 
ATOM     15  H   UNL     1      -1.361  -3.443   2.437  0.00  0.00    +0.189 HD
ENDBRANCH   1   9
BRANCH   2  16
ATOM     16  C   UNL     1      -0.131  -6.253  -1.269  0.00  0.00    +0.076 A 
ATOM     17  C   UNL     1      -0.232  -7.101  -2.364  0.00  0.00    +0.022 A 
ATOM     18  C   UNL     1      -0.302  -8.440  -2.081  0.00  0.00    +0.032 A 
ATOM     19  C   UNL     1      -0.268  -8.838  -0.764  0.00  0.00    +0.073 A 
ATOM     20  S   UNL     1      -0.133  -7.401   0.095  0.00  0.00    -0.069 S 
BRANCH  19  21
ATOM     21  N   UNL     1      -0.325 -10.131  -0.261  0.00  0.00    -0.273 N 
ATOM     22  C   UNL     1      -0.279 -10.339   1.069  0.00  0.00    +0.284 C 
ATOM     23  O   UNL     1      -0.186  -9.394   1.830  0.00  0.00    -0.266 OA
ATOM     24  H   UNL     1      -0.399 -10.884  -0.868  0.00  0.00    +0.156 HD
BRANCH  22  25
ATOM     25  C   UNL     1      -0.339 -11.704   1.600  0.00  0.00    +0.189 A 
ATOM     26  C   UNL     1      -0.307 -12.054   2.920  0.00  0.00    +0.054 A 
ATOM     27  C   UNL     1      -0.390 -13.455   2.968  0.00  0.00    +0.042 A 
ATOM     28  C   UNL     1      -0.467 -13.893   1.692  0.00  0.00    +0.196 A 
ATOM     29  O   UNL     1      -0.442 -12.835   0.871  0.00  0.00    -0.458 OA
ENDBRANCH  22  25
ENDBRANCH  19  21
ENDBRANCH   2  16
TORSDOF 4
