REMARK  Name = ZINC39934446
REMARK  12 active torsions:
REMARK  status: ('A' for Active; 'I' for Inactive)
REMARK    1  A    between atoms: C_1  and  C_2
REMARK    2  A    between atoms: C_3  and  C_37
REMARK    3  A    between atoms: C_4  and  C_36
REMARK    4  A    between atoms: C_7  and  C_8
REMARK    5  A    between atoms: C_8  and  C_10
REMARK    6  A    between atoms: C_10  and  C_12
REMARK    7  A    between atoms: C_10  and  S_13
REMARK    8  A    between atoms: S_13  and  C_14
REMARK    9  A    between atoms: C_18  and  C_27
REMARK   10  A    between atoms: N_19  and  C_20
REMARK   11  A    between atoms: C_20  and  C_21
REMARK   12  A    between atoms: C_37  and  C_39
REMARK                            x       y       z     vdW  Elec       q    Type
REMARK                         _______ _______ _______ _____ _____    ______ ____
ROOT
ATOM      1  C   UNL     1      -1.295  -2.758   5.926  0.00  0.00    +0.237 C 
ATOM      2  N   UNL     1      -1.550  -3.913   5.048  0.00  0.00    -0.237 N 
ATOM      3  N   UNL     1      -0.417  -4.731   5.129  0.00  0.00    -0.169 NA
ATOM      4  C   UNL     1       0.479  -4.224   5.933  0.00  0.00    +0.147 C 
ATOM      5  N   UNL     1       0.045  -3.011   6.482  0.00  0.00    -0.283 N 
ATOM      6  H   UNL     1      -2.346  -4.075   4.519  0.00  0.00    +0.171 HD
ENDROOT
BRANCH   4   7
ATOM      7  C   UNL     1       1.718  -4.819   6.214  0.00  0.00    +0.022 C 
ATOM      8  C   UNL     1       2.164  -6.075   5.799  0.00  0.00    +0.006 A 
ATOM      9  C   UNL     1       1.567  -7.088   5.019  0.00  0.00    +0.010 A 
ATOM     10  C   UNL     1       2.250  -8.235   4.768  0.00  0.00    +0.001 A 
ATOM     11  C   UNL     1       3.539  -8.442   5.264  0.00  0.00    +0.002 A 
ATOM     12  C   UNL     1       4.173  -7.512   6.020  0.00  0.00    +0.026 A 
ATOM     13  C   UNL     1       3.522  -6.288   6.325  0.00  0.00    +0.043 A 
ATOM     14  N   UNL     1       3.915  -5.242   7.026  0.00  0.00    -0.380 N 
ATOM     15  C   UNL     1       2.853  -4.232   7.024  0.00  0.00    +0.152 C 
ATOM     16  H   UNL     1       4.774  -5.154   7.468  0.00  0.00    +0.160 HD
ENDBRANCH   4   7
BRANCH   1  17
ATOM     17  S   UNL     1      -1.304  -1.218   4.967  0.00  0.00    -0.107 S 
BRANCH  17  18
ATOM     18  C   UNL     1      -0.040  -1.487   3.694  0.00  0.00    +0.119 C 
ATOM     19  C   UNL     1       1.333  -1.617   4.358  0.00  0.00    +0.027 C 
BRANCH  18  20
ATOM     20  C   UNL     1      -0.029  -0.318   2.743  0.00  0.00    +0.192 C 
ATOM     21  O   UNL     1      -0.426   0.768   3.111  0.00  0.00    -0.289 OA
BRANCH  20  28
ATOM     22  C   UNL     1       0.091   1.932   0.603  0.00  0.00    +0.047 C 
ATOM     23  C   UNL     1       0.509   0.492   0.452  0.00  0.00    -0.012 A 
ATOM     24  C   UNL     1       1.047  -0.113  -0.707  0.00  0.00    +0.041 A 
ATOM     25  C   UNL     1       1.285  -1.445  -0.399  0.00  0.00    +0.024 A 
ATOM     26  N   UNL     1       0.919  -1.662   0.872  0.00  0.00    -0.355 N 
ATOM     27  H   UNL     1       0.982  -2.512   1.336  0.00  0.00    +0.166 HD
ATOM     28  C   UNL     1       0.445  -0.487   1.419  0.00  0.00    +0.087 A 
ATOM     29  C   UNL     1       1.859  -2.475  -1.337  0.00  0.00    +0.064 C 
BRANCH  24  30
ATOM     30  C   UNL     1       1.305   0.544  -1.992  0.00  0.00    +0.162 C 
ATOM     31  O   UNL     1       0.429   0.604  -2.829  0.00  0.00    -0.292 OA
ATOM     32  C   UNL     1       2.659   1.143  -2.274  0.00  0.00    +0.091 C 
ENDBRANCH  24  30
ENDBRANCH  20  28
ENDBRANCH  18  20
ENDBRANCH  17  18
ENDBRANCH   1  17
BRANCH   5  33
ATOM     33  C   UNL     1       0.777  -2.159   7.422  0.00  0.00    +0.140 C 
BRANCH  33  34
ATOM     34  C   UNL     1       0.324  -2.469   8.850  0.00  0.00    +0.136 C 
ATOM     35  C   UNL     1       1.056  -1.543   9.845  0.00  0.00    +0.035 C 
ATOM     36  C   UNL     1       1.343  -2.499  11.035  0.00  0.00    +0.031 C 
ATOM     37  C   UNL     1       1.584  -3.834  10.288  0.00  0.00    +0.160 C 
ATOM     38  O   UNL     1       0.661  -3.820   9.185  0.00  0.00    -0.375 OA
ENDBRANCH  33  34
ENDBRANCH   5  33
TORSDOF 8
