REMARK  Name = ZINC39659775
REMARK  3 active torsions:
REMARK  status: ('A' for Active; 'I' for Inactive)
REMARK    1  A    between atoms: C_6  and  C_7
REMARK    2  A    between atoms: C_11  and  C_20
REMARK    3  A    between atoms: N_22  and  C_23
REMARK                            x       y       z     vdW  Elec       q    Type
REMARK                         _______ _______ _______ _____ _____    ______ ____
ROOT
ATOM      1  C   UNL     1      -1.263  -0.762   0.011  0.00  0.00    +0.247 C 
ATOM      2  O   UNL     1      -2.321  -0.176   0.132  0.00  0.00    -0.270 OA
ATOM      3  N   UNL     1      -1.246  -2.106  -0.099  0.00  0.00    -0.296 N 
ATOM      4  C   UNL     1      -0.064  -2.999  -0.125  0.00  0.00    +0.121 C 
ATOM      5  C   UNL     1      -0.487  -4.230   0.708  0.00  0.00    +0.100 C 
ATOM      6  C   UNL     1      -2.023  -4.241   0.640  0.00  0.00    -0.004 C 
ATOM      7  C   UNL     1      -2.405  -3.023  -0.214  0.00  0.00    +0.115 C 
ATOM      8  C   UNL     1      -2.615  -4.103   2.039  0.00  0.00    -0.010 C 
ATOM      9  C   UNL     1      -4.142  -4.173   1.952  0.00  0.00    -0.082 C 
ATOM     10  N   UNL     1      -4.541  -5.453   1.355  0.00  0.00    +0.379 N 
ATOM     11  C   UNL     1      -4.046  -5.539  -0.024  0.00  0.00    -0.082 C 
ATOM     12  C   UNL     1      -2.514  -5.525  -0.021  0.00  0.00    -0.010 C 
ATOM     13  H   UNL     1      -4.154  -6.211   1.897  0.00  0.00    -0.086 HD
ATOM     14  H   UNL     1      -5.548  -5.524   1.354  0.00  0.00    -0.086 HD
ENDROOT
BRANCH   1  20
ATOM     15  C   UNL     1       1.130  -0.539  -0.643  0.00  0.00    +0.014 A 
ATOM     16  C   UNL     1       2.309   0.175  -0.666  0.00  0.00    +0.021 A 
ATOM     17  C   UNL     1       2.378   1.422  -0.068  0.00  0.00    +0.041 A 
ATOM     18  C   UNL     1       1.264   1.960   0.556  0.00  0.00    +0.021 A 
ATOM     19  C   UNL     1       0.080   1.256   0.585  0.00  0.00    +0.014 A 
ATOM     20  C   UNL     1       0.004  -0.002  -0.017  0.00  0.00    +0.037 A 
ATOM     21 CL   UNL     1       3.866   2.315  -0.100  0.00  0.00    -0.084 Cl
ENDBRANCH   1  20
BRANCH   5  22
ATOM     22  C   UNL     1       0.076  -5.491   0.104  0.00  0.00    +0.218 C 
ATOM     23  O   UNL     1       0.347  -5.529  -1.078  0.00  0.00    -0.275 OA
ATOM     24  N   UNL     1       0.279  -6.576   0.877  0.00  0.00    -0.312 N 
ATOM     25  H   UNL     1       0.063  -6.546   1.822  0.00  0.00    +0.149 HD
BRANCH  24  26
ATOM     26  C   UNL     1       0.826  -7.802   0.290  0.00  0.00    +0.073 C 
ATOM     27  C   UNL     1      -0.310  -8.628  -0.317  0.00  0.00    +0.022 C 
ATOM     28  C   UNL     1       0.274  -9.682  -1.260  0.00  0.00    +0.002 C 
ATOM     29  C   UNL     1       1.362  -9.045  -2.127  0.00  0.00    +0.000 C 
ATOM     30  C   UNL     1       2.722  -9.639  -1.756  0.00  0.00    +0.000 C 
ATOM     31  C   UNL     1       3.198  -9.036  -0.433  0.00  0.00    +0.000 C 
ATOM     32  C   UNL     1       2.425  -9.672   0.724  0.00  0.00    +0.002 C 
ATOM     33  C   UNL     1       1.527  -8.619   1.377  0.00  0.00    +0.022 C 
ENDBRANCH  24  26
ENDBRANCH   5  22
TORSDOF 3
