REMARK  Name = ZINC01532074
REMARK  10 active torsions:
REMARK  status: ('A' for Active; 'I' for Inactive)
REMARK    1  A    between atoms: C_1  and  C_2
REMARK    2  A    between atoms: C_2  and  C_3
REMARK    3  A    between atoms: C_7  and  C_20
REMARK    4  A    between atoms: C_8  and  N_9
REMARK    5  A    between atoms: N_9  and  C_10
REMARK    6  A    between atoms: C_10  and  C_12
REMARK    7  A    between atoms: C_10  and  C_13
REMARK    8  A    between atoms: C_13  and  O_14
REMARK    9  A    between atoms: O_14  and  C_15
REMARK   10  A    between atoms: C_16  and  C_18
REMARK                            x       y       z     vdW  Elec       q    Type
REMARK                         _______ _______ _______ _____ _____    ______ ____
ROOT
ATOM      1  N   UNL     1      -1.000  -0.358   2.326  0.00  0.00    -0.265 N 
ATOM      2  C   UNL     1      -1.144   0.791   3.015  0.00  0.00    +0.235 C 
ATOM      3  O   UNL     1      -2.240   1.125   3.415  0.00  0.00    -0.274 OA
ENDROOT
BRANCH   1   9
ATOM      4  C   UNL     1       1.031  -1.559   2.841  0.00  0.00    -0.026 A 
ATOM      5  C   UNL     1       2.288  -1.996   2.473  0.00  0.00    +0.005 A 
ATOM      6  C   UNL     1       2.799  -1.671   1.229  0.00  0.00    +0.001 A 
ATOM      7  C   UNL     1       2.052  -0.908   0.350  0.00  0.00    +0.005 A 
ATOM      8  C   UNL     1       0.794  -0.469   0.712  0.00  0.00    -0.029 A 
ATOM      9  C   UNL     1       0.277  -0.797   1.958  0.00  0.00    +0.043 A 
ATOM     10  C   UNL     1      -0.019   0.363  -0.246  0.00  0.00    +0.045 C 
BRANCH   4  12
ATOM     11  C   UNL     1      -0.302  -3.228   4.101  0.00  0.00    +0.009 C 
ATOM     12  C   UNL     1       0.476  -1.914   4.196  0.00  0.00    +0.033 C 
ENDBRANCH   4  12
ENDBRANCH   1   9
BRANCH   1  13
ATOM     13  C   UNL     1      -2.179  -1.147   1.962  0.00  0.00    +0.104 C 
ATOM     14  C   UNL     1      -3.011  -1.428   3.215  0.00  0.00    +0.031 C 
BRANCH  13  15
ATOM     15  C   UNL     1      -3.024  -0.365   0.954  0.00  0.00    +0.182 C 
BRANCH  15  16
ATOM     16  O   UNL     1      -3.564   0.798   1.584  0.00  0.00    -0.381 OA
ATOM     17  C   UNL     1      -4.374   1.602   0.725  0.00  0.00    +0.194 C 
ENDBRANCH  15  16
ENDBRANCH  13  15
ENDBRANCH   1  13
BRANCH   2  18
ATOM     18  C   UNL     1       0.055   1.662   3.289  0.00  0.00    +0.204 C 
ATOM     19 CL   UNL     1      -0.430   3.039   4.347  0.00  0.00    -0.116 Cl
ENDBRANCH   2  18
TORSDOF 6
