REMARK  Name = ZINC38597820
REMARK  11 active torsions:
REMARK  status: ('A' for Active; 'I' for Inactive)
REMARK    1  A    between atoms: C_1  and  C_2
REMARK    2  A    between atoms: C_4  and  S_11
REMARK    3  A    between atoms: C_6  and  C_10
REMARK    4  A    between atoms: C_7  and  O_8
REMARK    5  A    between atoms: O_8  and  C_9
REMARK    6  A    between atoms: S_11  and  N_14
REMARK    7  A    between atoms: N_14  and  C_15
REMARK    8  A    between atoms: C_15  and  C_16
REMARK    9  A    between atoms: C_16  and  C_18
REMARK   10  A    between atoms: C_16  and  N_23
REMARK   11  A    between atoms: N_26  and  C_29
REMARK                            x       y       z     vdW  Elec       q    Type
REMARK                         _______ _______ _______ _____ _____    ______ ____
ROOT
ATOM      1  C   UNL     1       3.687  -4.230  -3.210  0.00  0.00    +0.015 C 
ENDROOT
BRANCH   1   2
ATOM      2  N   UNL     1       4.310  -2.952  -3.579  0.00  0.00    +0.389 N 
ATOM      3  C   UNL     1       5.419  -3.201  -4.509  0.00  0.00    -0.059 C 
ATOM      4  C   UNL     1       6.142  -1.883  -4.804  0.00  0.00    +0.086 C 
ATOM      5  N   UNL     1       5.153  -0.906  -5.286  0.00  0.00    -0.333 N 
ATOM      6  C   UNL     1       3.928  -0.713  -4.495  0.00  0.00    +0.086 C 
ATOM      7  C   UNL     1       3.309  -2.086  -4.214  0.00  0.00    -0.059 C 
ATOM      8  H   UNL     1       4.665  -2.501  -2.749  0.00  0.00    -0.081 HD
BRANCH   5   9
ATOM      9  C   UNL     1       5.371  -0.183  -6.463  0.00  0.00    +0.030 A 
ATOM     10  C   UNL     1       4.373   0.642  -6.967  0.00  0.00    +0.026 A 
ATOM     11  C   UNL     1       4.591   1.356  -8.129  0.00  0.00    +0.040 A 
ATOM     12  C   UNL     1       5.802   1.250  -8.791  0.00  0.00    +0.124 A 
ATOM     13  C   UNL     1       6.798   0.429  -8.290  0.00  0.00    +0.040 A 
ATOM     14  C   UNL     1       6.587  -0.283  -7.125  0.00  0.00    +0.026 A 
ATOM     15  F   UNL     1       6.013   1.950  -9.928  0.00  0.00    -0.205 F 
ENDBRANCH   5   9
ENDBRANCH   1   2
BRANCH   1  16
ATOM     16  C   UNL     1       4.690  -5.087  -2.482  0.00  0.00    +0.093 A 
ATOM     17  C   UNL     1       4.851  -6.413  -2.636  0.00  0.00    +0.043 A 
ATOM     18  C   UNL     1       5.894  -6.804  -1.765  0.00  0.00    +0.041 A 
ATOM     19  C   UNL     1       6.308  -5.692  -1.130  0.00  0.00    +0.195 A 
ATOM     20  O   UNL     1       5.579  -4.654  -1.573  0.00  0.00    -0.469 OA
ENDBRANCH   1  16
BRANCH   1  21
ATOM     21  C   UNL     1       2.485  -3.967  -2.300  0.00  0.00    +0.098 C 
BRANCH  21  22
ATOM     22  N   UNL     1       2.907  -3.155  -1.156  0.00  0.00    -0.191 NA
ATOM     23  H   UNL     1       3.849  -3.077  -0.938  0.00  0.00    +0.148 HD
BRANCH  22  24
ATOM     24  S   UNL     1       1.775  -2.373  -0.234  0.00  0.00    +0.058 S 
ATOM     25  O   UNL     1       0.919  -1.687  -1.137  0.00  0.00    -0.153 OA
ATOM     26  O   UNL     1       2.486  -1.703   0.799  0.00  0.00    -0.153 OA
BRANCH  24  30
ATOM     27  C   UNL     1       0.801  -5.607   3.753  0.00  0.00    +0.047 C 
ATOM     28  C   UNL     1       0.398  -5.071   2.404  0.00  0.00    -0.007 A 
ATOM     29  C   UNL     1       1.165  -4.102   1.788  0.00  0.00    +0.035 A 
ATOM     30  C   UNL     1       0.795  -3.610   0.549  0.00  0.00    +0.106 A 
ATOM     31  C   UNL     1      -0.343  -4.086  -0.075  0.00  0.00    +0.035 A 
ATOM     32  C   UNL     1      -1.113  -5.056   0.537  0.00  0.00    -0.007 A 
ATOM     33  C   UNL     1      -0.742  -5.555   1.777  0.00  0.00    +0.126 A 
ATOM     34  C   UNL     1      -2.353  -5.575  -0.143  0.00  0.00    +0.047 C 
BRANCH  33  35
ATOM     35  O   UNL     1      -1.494  -6.513   2.379  0.00  0.00    -0.495 OA
ATOM     36  C   UNL     1      -2.550  -6.067   3.233  0.00  0.00    +0.277 C 
ENDBRANCH  33  35
ENDBRANCH  24  30
ENDBRANCH  22  24
ENDBRANCH  21  22
ENDBRANCH   1  21
TORSDOF 8
