REMARK  Name = ZINC34756447
REMARK  8 active torsions:
REMARK  status: ('A' for Active; 'I' for Inactive)
REMARK    1  A    between atoms: C_4  and  C_7
REMARK    2  A    between atoms: C_7  and  C_8
REMARK    3  A    between atoms: C_8  and  C_9
REMARK    4  A    between atoms: C_9  and  N_10
REMARK    5  A    between atoms: C_23  and  S_25
REMARK    6  A    between atoms: S_25  and  C_26
REMARK    7  A    between atoms: C_26  and  C_27
REMARK    8  A    between atoms: C_27  and  C_28
REMARK                            x       y       z     vdW  Elec       q    Type
REMARK                         _______ _______ _______ _____ _____    ______ ____
ROOT
ATOM      1  N   UNL     1       5.190  -1.511   3.768  0.00  0.00    +0.382 N 
ATOM      2  C   UNL     1       5.422  -1.472   5.217  0.00  0.00    -0.060 C 
ATOM      3  C   UNL     1       6.774  -2.118   5.535  0.00  0.00    +0.088 C 
ATOM      4  N   UNL     1       6.794  -3.469   4.953  0.00  0.00    -0.318 N 
ATOM      5  C   UNL     1       6.413  -3.621   3.540  0.00  0.00    +0.088 C 
ATOM      6  C   UNL     1       5.078  -2.904   3.317  0.00  0.00    -0.060 C 
ATOM      7  C   UNL     1       7.159  -4.565   5.713  0.00  0.00    +0.134 A 
ATOM      8  C   UNL     1       8.498  -5.048   5.682  0.00  0.00    +0.051 A 
ATOM      9  C   UNL     1       9.638  -4.537   4.917  0.00  0.00    -0.025 A 
ATOM     10  C   UNL     1      10.812  -5.180   5.066  0.00  0.00    -0.004 A 
ATOM     11  S   UNL     1      10.481  -6.488   6.216  0.00  0.00    -0.073 S 
ATOM     12  C   UNL     1       8.758  -6.168   6.495  0.00  0.00    +0.115 A 
ATOM     13  N   UNL     1       7.814  -6.724   7.231  0.00  0.00    -0.215 NA
ATOM     14  C   UNL     1       6.583  -6.231   7.220  0.00  0.00    +0.191 A 
ATOM     15  N   UNL     1       6.271  -5.173   6.480  0.00  0.00    -0.206 NA
ATOM     16  C   UNL     1      12.116  -4.858   4.401  0.00  0.00    +0.043 C 
ATOM     17  C   UNL     1      11.838  -3.905   3.228  0.00  0.00    +0.005 C 
ATOM     18  C   UNL     1      10.922  -2.780   3.717  0.00  0.00    +0.005 C 
ATOM     19  C   UNL     1       9.522  -3.331   3.989  0.00  0.00    +0.037 C 
ATOM     20  H   UNL     1       5.962  -1.066   3.294  0.00  0.00    -0.082 HD
ENDROOT
BRANCH   1  21
ATOM     21  C   UNL     1       3.947  -0.794   3.453  0.00  0.00    -0.078 C 
BRANCH  21  22
ATOM     22  C   UNL     1       4.107   0.685   3.808  0.00  0.00    -0.014 C 
BRANCH  22  23
ATOM     23  C   UNL     1       2.812   1.431   3.481  0.00  0.00    +0.033 C 
BRANCH  23  27
ATOM     24  C   UNL     1       3.257   5.562   4.472  0.00  0.00    +0.000 A 
ATOM     25  C   UNL     1       3.592   5.115   3.208  0.00  0.00    +0.000 A 
ATOM     26  C   UNL     1       3.449   3.778   2.887  0.00  0.00    +0.003 A 
ATOM     27  C   UNL     1       2.970   2.889   3.830  0.00  0.00    -0.047 A 
ATOM     28  C   UNL     1       2.635   3.336   5.095  0.00  0.00    +0.003 A 
ATOM     29  C   UNL     1       2.777   4.673   5.415  0.00  0.00    +0.000 A 
ENDBRANCH  23  27
ENDBRANCH  22  23
ENDBRANCH  21  22
ENDBRANCH   1  21
BRANCH  14  30
ATOM     30  S   UNL     1       5.340  -6.991   8.211  0.00  0.00    -0.086 S 
BRANCH  30  31
ATOM     31  C   UNL     1       6.206  -8.357   9.031  0.00  0.00    +0.082 C 
BRANCH  31  32
ATOM     32  C   UNL     1       5.229  -9.111   9.935  0.00  0.00    +0.046 C 
BRANCH  32  33
ATOM     33  C   UNL     1       5.949 -10.246  10.617  0.00  0.00    -0.047 A 
ATOM     34  C   UNL     1       6.002 -11.490  10.018  0.00  0.00    +0.003 A 
ATOM     35  C   UNL     1       6.662 -12.531  10.643  0.00  0.00    +0.000 A 
ATOM     36  C   UNL     1       7.270 -12.328  11.868  0.00  0.00    +0.000 A 
ATOM     37  C   UNL     1       7.217 -11.083  12.467  0.00  0.00    +0.000 A 
ATOM     38  C   UNL     1       6.561 -10.041  11.840  0.00  0.00    +0.003 A 
ENDBRANCH  32  33
ENDBRANCH  31  32
ENDBRANCH  30  31
ENDBRANCH  14  30
TORSDOF 8
