REMARK  Name = ZINC63520767
REMARK  13 active torsions:
REMARK  status: ('A' for Active; 'I' for Inactive)
REMARK    1  A    between atoms: C_1  and  C_2
REMARK    2  A    between atoms: N_4  and  C_5
REMARK    3  A    between atoms: C_5  and  C_7
REMARK    4  A    between atoms: C_5  and  C_17
REMARK    5  A    between atoms: C_7  and  C_8
REMARK    6  A    between atoms: N_19  and  C_20
REMARK    7  A    between atoms: C_20  and  C_21
REMARK    8  A    between atoms: C_21  and  O_22
REMARK    9  A    between atoms: O_22  and  C_23
REMARK   10  A    between atoms: C_26  and  C_29
REMARK   11  A    between atoms: C_29  and  C_30
REMARK   12  A    between atoms: C_29  and  C_31
REMARK   13  A    between atoms: C_29  and  C_32
REMARK                            x       y       z     vdW  Elec       q    Type
REMARK                         _______ _______ _______ _____ _____    ______ ____
ROOT
ATOM      1  C   UNL     1      -0.245  -2.600   2.537  0.00  0.00    +0.234 C 
ATOM      2  O   UNL     1       0.462  -1.963   3.288  0.00  0.00    -0.274 OA
ATOM      3  N   UNL     1      -0.480  -3.906   2.777  0.00  0.00    -0.311 N 
ATOM      4  H   UNL     1      -1.046  -4.415   2.176  0.00  0.00    +0.149 HD
ENDROOT
BRANCH   1   5
ATOM      5  C   UNL     1      -0.862  -1.933   1.335  0.00  0.00    +0.163 C 
BRANCH   5   9
ATOM      6  C   UNL     1       0.275   1.675   1.921  0.00  0.00    +0.109 C 
ATOM      7  C   UNL     1       0.286   0.182   1.716  0.00  0.00    +0.211 C 
ATOM      8  O   UNL     1       1.338  -0.422   1.715  0.00  0.00    -0.276 OA
ATOM      9  N   UNL     1      -0.872  -0.482   1.534  0.00  0.00    -0.304 N 
ATOM     10  H   UNL     1      -1.713   0.002   1.534  0.00  0.00    +0.149 HD
ENDBRANCH   5   9
BRANCH   5  11
ATOM     11  C   UNL     1      -0.042  -2.271   0.087  0.00  0.00    +0.065 C 
BRANCH  11  12
ATOM     12  C   UNL     1      -0.726  -1.706  -1.131  0.00  0.00    -0.039 C 
ATOM     13  C   UNL     1      -0.470  -0.521  -1.732  0.00  0.00    -0.001 A 
ATOM     14  C   UNL     1       0.484   0.555  -1.440  0.00  0.00    +0.010 A 
ATOM     15  C   UNL     1       0.506   1.646  -2.239  0.00  0.00    +0.001 A 
ATOM     16  C   UNL     1      -0.357   1.774  -3.336  0.00  0.00    +0.002 A 
ATOM     17  C   UNL     1      -1.261   0.827  -3.667  0.00  0.00    +0.026 A 
ATOM     18  C   UNL     1      -1.371  -0.362  -2.895  0.00  0.00    +0.043 A 
ATOM     19  N   UNL     1      -2.153  -1.408  -3.010  0.00  0.00    -0.380 N 
ATOM     20  C   UNL     1      -1.832  -2.352  -1.934  0.00  0.00    +0.144 C 
ATOM     21  H   UNL     1      -2.828  -1.537  -3.694  0.00  0.00    +0.160 HD
ENDBRANCH  11  12
ENDBRANCH   5  11
ENDBRANCH   1   5
BRANCH   3  22
ATOM     22  C   UNL     1       0.119  -4.555   3.946  0.00  0.00    +0.145 C 
BRANCH  22  23
ATOM     23  C   UNL     1      -0.303  -6.025   3.985  0.00  0.00    +0.247 C 
BRANCH  23  24
ATOM     24  O   UNL     1       0.241  -6.707   2.854  0.00  0.00    -0.490 OA
BRANCH  24  25
ATOM     25  C   UNL     1      -0.041  -8.031   2.737  0.00  0.00    +0.121 A 
ATOM     26  C   UNL     1      -0.830  -8.660   3.690  0.00  0.00    +0.046 A 
ATOM     27  C   UNL     1      -1.116 -10.006   3.569  0.00  0.00    +0.008 A 
ATOM     28  C   UNL     1      -0.616 -10.727   2.500  0.00  0.00    -0.037 A 
ATOM     29  C   UNL     1       0.171 -10.103   1.550  0.00  0.00    +0.008 A 
ATOM     30  C   UNL     1       0.455  -8.756   1.663  0.00  0.00    +0.046 A 
BRANCH  28  31
ATOM     31  C   UNL     1      -0.929 -12.195   2.371  0.00  0.00    +0.015 C 
ATOM     32  C   UNL     1      -1.697 -12.664   3.609  0.00  0.00    +0.021 C 
ATOM     33  C   UNL     1      -1.784 -12.427   1.123  0.00  0.00    +0.021 C 
BRANCH  31  34
ATOM     34  C   UNL     1       0.355 -12.974   2.252  0.00  0.00    -0.037 A 
ATOM     35  C   UNL     1       1.325 -12.861   3.230  0.00  0.00    +0.004 A 
ATOM     36  C   UNL     1       2.504 -13.576   3.120  0.00  0.00    +0.000 A 
ATOM     37  C   UNL     1       2.712 -14.404   2.033  0.00  0.00    +0.000 A 
ATOM     38  C   UNL     1       1.741 -14.517   1.055  0.00  0.00    +0.000 A 
ATOM     39  C   UNL     1       0.561 -13.806   1.167  0.00  0.00    +0.004 A 
ENDBRANCH  31  34
ENDBRANCH  28  31
ENDBRANCH  24  25
ENDBRANCH  23  24
ENDBRANCH  22  23
ENDBRANCH   3  22
TORSDOF 10
