REMARK  Name = ZINC43527585
REMARK  7 active torsions:
REMARK  status: ('A' for Active; 'I' for Inactive)
REMARK    1  A    between atoms: C_1  and  C_2
REMARK    2  A    between atoms: C_2  and  C_4
REMARK    3  A    between atoms: C_7  and  N_10
REMARK    4  A    between atoms: N_13  and  C_14
REMARK    5  A    between atoms: C_14  and  C_15
REMARK    6  A    between atoms: C_24  and  C_26
REMARK    7  A    between atoms: C_26  and  N_27
REMARK                            x       y       z     vdW  Elec       q    Type
REMARK                         _______ _______ _______ _____ _____    ______ ____
ROOT
ATOM      1  C   UNL     1      -7.392  -6.889  -0.368  0.00  0.00    -0.051 C 
ATOM      2  C   UNL     1      -7.378  -8.419  -0.365  0.00  0.00    -0.010 C 
ATOM      3  C   UNL     1      -8.182  -8.919   0.842  0.00  0.00    -0.011 C 
ATOM      4  C   UNL     1      -7.529  -8.372   2.118  0.00  0.00    -0.015 C 
ATOM      5  C   UNL     1      -7.517  -6.843   2.050  0.00  0.00    -0.078 C 
ATOM      6  N   UNL     1      -8.162  -6.395   0.776  0.00  0.00    +0.383 N 
ATOM      7  C   UNL     1      -9.553  -6.846   0.695  0.00  0.00    -0.073 C 
ATOM      8  C   UNL     1      -9.611  -8.373   0.732  0.00  0.00    -0.007 C 
ATOM      9  H   UNL     1      -8.159  -5.386   0.750  0.00  0.00    -0.081 HD
ENDROOT
BRANCH   1  10
ATOM     10  C   UNL     1      -5.956  -6.368  -0.277  0.00  0.00    +0.090 C 
BRANCH  10  14
ATOM     11  N   UNL     1      -4.829  -2.882   0.033  0.00  0.00    -0.269 N 
ATOM     12  C   UNL     1      -4.814  -4.226  -0.071  0.00  0.00    +0.304 C 
ATOM     13  O   UNL     1      -3.755  -4.823  -0.080  0.00  0.00    -0.253 OA
ATOM     14  N   UNL     1      -5.973  -4.907  -0.165  0.00  0.00    -0.301 N 
ATOM     15  H   UNL     1      -5.673  -2.412   0.117  0.00  0.00    +0.156 HD
ATOM     16  H   UNL     1      -6.818  -4.431  -0.158  0.00  0.00    +0.150 HD
BRANCH  11  20
ATOM     17  C   UNL     1      -1.261  -0.753  -0.013  0.00  0.00    +0.017 A 
ATOM     18  C   UNL     1      -1.389  -1.926  -0.768  0.00  0.00    +0.013 A 
ATOM     19  C   UNL     1      -2.564  -2.623  -0.749  0.00  0.00    +0.024 A 
ATOM     20  C   UNL     1      -3.633  -2.168   0.018  0.00  0.00    +0.035 A 
ATOM     21  C   UNL     1      -3.510  -1.003   0.770  0.00  0.00    +0.024 A 
ATOM     22  C   UNL     1      -2.337  -0.303   0.762  0.00  0.00    +0.013 A 
BRANCH  17  24
ATOM     23  C   UNL     1       1.157  -0.487  -0.863  0.00  0.00    +0.091 C 
ATOM     24  C   UNL     1       0.000  -0.001  -0.029  0.00  0.00    +0.160 C 
ATOM     25  O   UNL     1       0.111   1.012   0.630  0.00  0.00    -0.292 OA
ENDBRANCH  17  24
ENDBRANCH  11  20
ENDBRANCH  10  14
ENDBRANCH   1  10
BRANCH   8  26
ATOM     26  C   UNL     1     -10.428  -8.825   1.944  0.00  0.00    +0.107 C 
BRANCH  26  27
ATOM     27  N   UNL     1     -11.821  -8.404   1.779  0.00  0.00    -0.329 N 
ATOM     28  C   UNL     1     -12.371  -7.123   2.233  0.00  0.00    +0.110 C 
ATOM     29  C   UNL     1     -13.855  -7.157   1.832  0.00  0.00    +0.056 C 
ATOM     30  C   UNL     1     -14.036  -8.499   1.160  0.00  0.00    -0.025 A 
ATOM     31  C   UNL     1     -12.818  -9.161   1.161  0.00  0.00    +0.033 A 
ATOM     32  C   UNL     1     -12.735 -10.430   0.584  0.00  0.00    +0.023 A 
ATOM     33  C   UNL     1     -13.851 -11.010   0.018  0.00  0.00    +0.002 A 
ATOM     34  C   UNL     1     -15.060 -10.340   0.019  0.00  0.00    +0.000 A 
ATOM     35  C   UNL     1     -15.152  -9.087   0.597  0.00  0.00    +0.005 A 
ENDBRANCH  26  27
ENDBRANCH   8  26
TORSDOF 6
