REMARK  Name = ZINC15990899
REMARK  8 active torsions:
REMARK  status: ('A' for Active; 'I' for Inactive)
REMARK    1  A    between atoms: C_1  and  N_2
REMARK    2  A    between atoms: N_2  and  C_3
REMARK    3  A    between atoms: N_2  and  S_20
REMARK    4  A    between atoms: C_3  and  C_4
REMARK    5  A    between atoms: N_6  and  C_7
REMARK    6  A    between atoms: C_7  and  C_8
REMARK    7  A    between atoms: C_8  and  N_14
REMARK    8  A    between atoms: S_20  and  C_23
REMARK                            x       y       z     vdW  Elec       q    Type
REMARK                         _______ _______ _______ _____ _____    ______ ____
ROOT
ATOM      1  C   UNL     1      -4.219   0.414   2.849  0.00  0.00    +0.229 C 
ATOM      2  O   UNL     1      -4.059   0.108   1.686  0.00  0.00    -0.274 OA
ATOM      3  N   UNL     1      -3.783  -0.404   3.827  0.00  0.00    -0.312 N 
ATOM      4  H   UNL     1      -3.911  -0.160   4.757  0.00  0.00    +0.149 HD
ENDROOT
BRANCH   1   5
ATOM      5  C   UNL     1      -4.904   1.709   3.200  0.00  0.00    +0.204 C 
BRANCH   5   7
ATOM      6  C   UNL     1      -6.540   2.090   1.298  0.00  0.00    +0.132 C 
ATOM      7  N   UNL     1      -5.279   2.412   1.970  0.00  0.00    -0.171 NA
BRANCH   7   8
ATOM      8  S   UNL     1      -4.278   3.571   1.341  0.00  0.00    +0.061 S 
ATOM      9  O   UNL     1      -2.972   3.284   1.822  0.00  0.00    -0.153 OA
ATOM     10  O   UNL     1      -4.577   3.657  -0.045  0.00  0.00    -0.153 OA
BRANCH   8  11
ATOM     11  C   UNL     1      -4.750   5.111   2.055  0.00  0.00    +0.106 A 
ATOM     12  C   UNL     1      -5.711   5.892   1.440  0.00  0.00    +0.031 A 
ATOM     13  C   UNL     1      -6.083   7.100   1.999  0.00  0.00    +0.040 A 
ATOM     14  C   UNL     1      -5.492   7.528   3.176  0.00  0.00    +0.124 A 
ATOM     15  C   UNL     1      -4.529   6.745   3.791  0.00  0.00    +0.040 A 
ATOM     16  C   UNL     1      -4.163   5.535   3.232  0.00  0.00    +0.031 A 
ATOM     17  F   UNL     1      -5.854   8.709   3.724  0.00  0.00    -0.205 F 
ENDBRANCH   8  11
ENDBRANCH   7   8
ENDBRANCH   5   7
ENDBRANCH   1   5
BRANCH   3  18
ATOM     18  C   UNL     1      -3.116  -1.663   3.486  0.00  0.00    +0.126 C 
BRANCH  18  19
ATOM     19  C   UNL     1      -2.838  -2.456   4.764  0.00  0.00    +0.038 C 
ATOM     20  C   UNL     1      -2.025  -3.706   4.423  0.00  0.00    +0.024 C 
ATOM     21  C   UNL     1      -2.815  -4.577   3.445  0.00  0.00    +0.002 C 
ATOM     22  C   UNL     1      -4.141  -4.991   4.088  0.00  0.00    +0.000 C 
ATOM     23  C   UNL     1      -4.954  -3.741   4.429  0.00  0.00    +0.002 C 
ATOM     24  C   UNL     1      -4.163  -2.870   5.407  0.00  0.00    +0.024 C 
BRANCH  19  25
ATOM     25  N   UNL     1      -2.079  -1.619   5.703  0.00  0.00    -0.291 NA
ATOM     26  C   UNL     1      -0.820  -1.158   5.099  0.00  0.00    +0.113 C 
ATOM     27  C   UNL     1      -0.091  -0.243   6.087  0.00  0.00    +0.175 C 
ATOM     28  O   UNL     1       0.124  -0.949   7.312  0.00  0.00    -0.377 OA
ATOM     29  C   UNL     1      -1.081  -1.412   7.929  0.00  0.00    +0.175 C 
ATOM     30  C   UNL     1      -1.820  -2.338   6.959  0.00  0.00    +0.113 C 
ENDBRANCH  19  25
ENDBRANCH  18  19
ENDBRANCH   3  18
TORSDOF 7
