REMARK  Name = ZINC00888053
REMARK  11 active torsions:
REMARK  status: ('A' for Active; 'I' for Inactive)
REMARK    1  A    between atoms: C_1  and  C_2
REMARK    2  A    between atoms: C_5  and  C_7
REMARK    3  A    between atoms: C_7  and  C_9
REMARK    4  A    between atoms: C_7  and  N_20
REMARK    5  A    between atoms: N_11  and  C_12
REMARK    6  A    between atoms: C_12  and  C_13
REMARK    7  A    between atoms: N_20  and  C_21
REMARK    8  A    between atoms: C_21  and  C_22
REMARK    9  A    between atoms: C_28  and  C_30
REMARK   10  A    between atoms: C_30  and  N_31
REMARK   11  A    between atoms: C_33  and  C_36
REMARK                            x       y       z     vdW  Elec       q    Type
REMARK                         _______ _______ _______ _____ _____    ______ ____
ROOT
ATOM      1  N   UNL     1       2.689  -2.970   0.934  0.00  0.00    -0.278 N 
ATOM      2  C   UNL     1       2.970  -3.862   1.905  0.00  0.00    +0.240 C 
ATOM      3  O   UNL     1       2.373  -4.917   1.950  0.00  0.00    -0.273 OA
ENDROOT
BRANCH   1   4
ATOM      4  C   UNL     1       1.589  -3.225   0.001  0.00  0.00    +0.228 C 
BRANCH   4   9
ATOM      5  C   UNL     1       3.057  -7.884  -1.255  0.00  0.00    +0.086 C 
ATOM      6  C   UNL     1       2.540  -6.473  -1.369  0.00  0.00    +0.102 A 
ATOM      7  C   UNL     1       2.158  -5.865  -2.506  0.00  0.00    +0.045 A 
ATOM      8  C   UNL     1       1.746  -4.559  -2.154  0.00  0.00    +0.047 A 
ATOM      9  C   UNL     1       1.901  -4.447  -0.823  0.00  0.00    +0.135 A 
ATOM     10  O   UNL     1       2.376  -5.611  -0.352  0.00  0.00    -0.462 OA
ENDBRANCH   4   9
BRANCH   4  11
ATOM     11  C   UNL     1       0.316  -3.453   0.776  0.00  0.00    +0.241 C 
ATOM     12  O   UNL     1       0.328  -3.407   1.988  0.00  0.00    -0.273 OA
ATOM     13  N   UNL     1      -0.834  -3.707   0.122  0.00  0.00    -0.309 N 
ATOM     14  H   UNL     1      -0.844  -3.744  -0.847  0.00  0.00    +0.149 HD
BRANCH  13  15
ATOM     15  C   UNL     1      -2.071  -3.929   0.875  0.00  0.00    +0.139 C 
BRANCH  15  16
ATOM     16  C   UNL     1      -3.204  -4.191  -0.084  0.00  0.00    -0.030 A 
ATOM     17  C   UNL     1      -3.955  -3.137  -0.570  0.00  0.00    +0.008 A 
ATOM     18  C   UNL     1      -4.993  -3.376  -1.450  0.00  0.00    +0.038 A 
ATOM     19  C   UNL     1      -5.281  -4.671  -1.845  0.00  0.00    +0.123 A 
ATOM     20  C   UNL     1      -4.528  -5.726  -1.358  0.00  0.00    +0.038 A 
ATOM     21  C   UNL     1      -3.487  -5.484  -0.482  0.00  0.00    +0.008 A 
ATOM     22  F   UNL     1      -6.296  -4.906  -2.705  0.00  0.00    -0.205 F 
ENDBRANCH  15  16
ENDBRANCH  13  15
ENDBRANCH   4  11
ENDBRANCH   1   4
BRANCH   1  23
ATOM     23  C   UNL     1       3.485  -1.746   0.811  0.00  0.00    +0.144 C 
BRANCH  23  24
ATOM     24  C   UNL     1       2.788  -0.620   1.531  0.00  0.00    -0.030 A 
ATOM     25  C   UNL     1       1.793   0.096   0.893  0.00  0.00    +0.005 A 
ATOM     26  C   UNL     1       1.154   1.129   1.553  0.00  0.00    +0.000 A 
ATOM     27  C   UNL     1       1.510   1.446   2.851  0.00  0.00    +0.000 A 
ATOM     28  C   UNL     1       2.506   0.729   3.489  0.00  0.00    +0.000 A 
ATOM     29  C   UNL     1       3.142  -0.307   2.830  0.00  0.00    +0.005 A 
ENDBRANCH  23  24
ENDBRANCH   1  23
BRANCH   2  30
ATOM     30  C   UNL     1       4.025  -3.548   2.934  0.00  0.00    +0.264 C 
BRANCH  30  31
ATOM     31  N   UNL     1       4.230  -4.716   3.794  0.00  0.00    -0.154 N 
ATOM     32  N   UNL     1       3.588  -4.961   4.884  0.00  0.00    -0.130 NA
ATOM     33  C   UNL     1       4.046  -6.095   5.376  0.00  0.00    +0.205 A 
ATOM     34  N   UNL     1       4.996  -6.524   4.533  0.00  0.00    -0.108 NA
ATOM     35  N   UNL     1       5.077  -5.661   3.577  0.00  0.00    -0.045 NA
BRANCH  33  36
ATOM     36  C   UNL     1       3.599  -6.766   6.622  0.00  0.00    +0.023 A 
ATOM     37  C   UNL     1       2.590  -6.198   7.398  0.00  0.00    +0.014 A 
ATOM     38  C   UNL     1       2.177  -6.826   8.555  0.00  0.00    +0.039 A 
ATOM     39  C   UNL     1       2.763  -8.019   8.946  0.00  0.00    +0.123 A 
ATOM     40  C   UNL     1       3.766  -8.587   8.178  0.00  0.00    +0.039 A 
ATOM     41  C   UNL     1       4.181  -7.969   7.016  0.00  0.00    +0.014 A 
ATOM     42  F   UNL     1       2.356  -8.629  10.081  0.00  0.00    -0.205 F 
ENDBRANCH  33  36
ENDBRANCH  30  31
ENDBRANCH   2  30
TORSDOF 10
