REMARK  Name = ZINC20285960
REMARK  11 active torsions:
REMARK  status: ('A' for Active; 'I' for Inactive)
REMARK    1  A    between atoms: C_1  and  C_2
REMARK    2  A    between atoms: C_6  and  N_9
REMARK    3  A    between atoms: C_7  and  C_8
REMARK    4  A    between atoms: C_10  and  C_26
REMARK    5  A    between atoms: C_13  and  S_14
REMARK    6  A    between atoms: S_14  and  C_15
REMARK    7  A    between atoms: C_15  and  C_16
REMARK    8  A    between atoms: N_18  and  C_19
REMARK    9  A    between atoms: C_19  and  C_20
REMARK   10  A    between atoms: C_26  and  C_27
REMARK   11  A    between atoms: N_31  and  C_32
REMARK                            x       y       z     vdW  Elec       q    Type
REMARK                         _______ _______ _______ _____ _____    ______ ____
ROOT
ATOM      1  N   UNL     1       1.034  -2.636   2.814  0.00  0.00    -0.274 N 
ATOM      2  C   UNL     1      -0.059  -3.134   3.473  0.00  0.00    +0.144 A 
ATOM      3  N   UNL     1       0.345  -3.536   4.645  0.00  0.00    -0.133 NA
ATOM      4  N   UNL     1       1.607  -3.329   4.773  0.00  0.00    -0.122 NA
ATOM      5  C   UNL     1       2.084  -2.783   3.678  0.00  0.00    +0.197 A 
ENDROOT
BRANCH   1  11
ATOM      6  C   UNL     1       0.976   1.307  -0.126  0.00  0.00    +0.044 C 
ATOM      7  C   UNL     1       1.043  -0.186   0.069  0.00  0.00    -0.046 A 
ATOM      8  C   UNL     1       1.139  -1.022  -1.028  0.00  0.00    +0.004 A 
ATOM      9  C   UNL     1       1.201  -2.393  -0.854  0.00  0.00    +0.002 A 
ATOM     10  C   UNL     1       1.166  -2.930   0.419  0.00  0.00    +0.026 A 
ATOM     11  C   UNL     1       1.069  -2.093   1.522  0.00  0.00    +0.053 A 
ATOM     12  C   UNL     1       1.013  -0.717   1.343  0.00  0.00    -0.024 A 
ATOM     13  C   UNL     1       0.914   0.195   2.538  0.00  0.00    +0.046 C 
ENDBRANCH   1  11
BRANCH   5  14
ATOM     14  S   UNL     1       3.759  -2.325   3.380  0.00  0.00    -0.076 S 
BRANCH  14  15
ATOM     15  C   UNL     1       4.620  -2.786   4.909  0.00  0.00    +0.173 C 
BRANCH  15  16
ATOM     16  C   UNL     1       6.082  -2.443   4.785  0.00  0.00    +0.223 C 
ATOM     17  O   UNL     1       6.502  -1.938   3.766  0.00  0.00    -0.275 OA
ATOM     18  N   UNL     1       6.923  -2.698   5.807  0.00  0.00    -0.312 N 
ATOM     19  H   UNL     1       6.586  -3.103   6.622  0.00  0.00    +0.149 HD
BRANCH  18  20
ATOM     20  C   UNL     1       8.344  -2.365   5.687  0.00  0.00    +0.135 C 
BRANCH  20  21
ATOM     21  C   UNL     1       9.070  -2.753   6.977  0.00  0.00    +0.135 C 
ATOM     22  C   UNL     1      10.570  -2.377   6.884  0.00  0.00    +0.035 C 
ATOM     23  C   UNL     1      10.931  -2.233   8.388  0.00  0.00    +0.031 C 
ATOM     24  C   UNL     1       9.624  -1.669   8.986  0.00  0.00    +0.160 C 
ATOM     25  O   UNL     1       8.558  -1.995   8.085  0.00  0.00    -0.375 OA
ENDBRANCH  20  21
ENDBRANCH  18  20
ENDBRANCH  15  16
ENDBRANCH  14  15
ENDBRANCH   5  14
BRANCH   2  26
ATOM     26  C   UNL     1      -1.467  -3.204   2.942  0.00  0.00    +0.130 C 
BRANCH  26  27
ATOM     27  C   UNL     1      -2.248  -2.010   3.429  0.00  0.00    +0.026 A 
ATOM     28  C   UNL     1      -2.292  -0.800   2.837  0.00  0.00    +0.023 A 
ATOM     29  C   UNL     1      -3.134   0.020   3.615  0.00  0.00    +0.019 A 
ATOM     30  C   UNL     1      -3.571  -0.721   4.653  0.00  0.00    +0.085 A 
ATOM     31  N   UNL     1      -3.036  -1.970   4.541  0.00  0.00    -0.353 N 
ATOM     32  C   UNL     1      -3.266  -3.084   5.464  0.00  0.00    +0.148 C 
ENDBRANCH  26  27
ENDBRANCH   2  26
TORSDOF 8
