REMARK  Name = ZINC04952682
REMARK  3 active torsions:
REMARK  status: ('A' for Active; 'I' for Inactive)
REMARK    1  A    between atoms: C_6  and  C_7
REMARK    2  A    between atoms: C_7  and  O_9
REMARK    3  A    between atoms: O_9  and  C_10
REMARK                            x       y       z     vdW  Elec       q    Type
REMARK                         _______ _______ _______ _____ _____    ______ ____
ROOT
ATOM      1  C   UNL     1      -1.675  -1.703   0.040  0.00  0.00    +0.339 C 
ATOM      2  O   UNL     1      -0.963  -2.304   0.819  0.00  0.00    -0.245 OA
ENDROOT
BRANCH   1   8
ATOM      3  C   UNL     1      -3.794  -1.587  -1.263  0.00  0.00    +0.016 A 
ATOM      4  C   UNL     1      -5.001  -2.132  -1.647  0.00  0.00    +0.021 A 
ATOM      5  C   UNL     1      -5.401  -3.360  -1.145  0.00  0.00    +0.041 A 
ATOM      6  C   UNL     1      -4.591  -4.048  -0.257  0.00  0.00    +0.021 A 
ATOM      7  C   UNL     1      -3.380  -3.516   0.131  0.00  0.00    +0.016 A 
ATOM      8  C   UNL     1      -2.970  -2.279  -0.372  0.00  0.00    +0.059 A 
ATOM      9 CL   UNL     1      -6.924  -4.037  -1.629  0.00  0.00    -0.084 Cl
ENDBRANCH   1   8
BRANCH   1  10
ATOM     10  O   UNL     1      -1.283  -0.509  -0.447  0.00  0.00    -0.456 OA
BRANCH  10  11
ATOM     11  C   UNL     1       0.002  -0.004   0.002  0.00  0.00    +0.199 C 
ATOM     12  C   UNL     1       1.107  -0.463  -0.965  0.00  0.00    +0.069 C 
ATOM     13  C   UNL     1       2.411   0.322  -0.686  0.00  0.00    +0.169 C 
ATOM     14  S   UNL     1       1.788   1.913  -0.005  0.00  0.00    -0.027 S 
ATOM     15  O   UNL     1       2.044   2.949  -0.943  0.00  0.00    -0.174 OA
ATOM     16  O   UNL     1       2.243   2.053   1.334  0.00  0.00    -0.174 OA
ATOM     17  C   UNL     1      -0.019   1.551   0.011  0.00  0.00    +0.210 C 
ENDBRANCH  10  11
ENDBRANCH   1  10
TORSDOF 3
