REMARK  Name = ZINC02858913
REMARK  8 active torsions:
REMARK  status: ('A' for Active; 'I' for Inactive)
REMARK    1  A    between atoms: C_4  and  C_7
REMARK    2  A    between atoms: C_7  and  C_9
REMARK    3  A    between atoms: C_7  and  S_25
REMARK    4  A    between atoms: N_11  and  N_12
REMARK    5  A    between atoms: N_12  and  C_13
REMARK    6  A    between atoms: C_13  and  N_15
REMARK    7  A    between atoms: N_15  and  C_16
REMARK    8  A    between atoms: S_25  and  C_26
REMARK                            x       y       z     vdW  Elec       q    Type
REMARK                         _______ _______ _______ _____ _____    ______ ____
ROOT
ATOM      1  C   UNL     1       8.632  -0.792   4.082  0.00  0.00    +0.247 C 
ATOM      2  O   UNL     1       8.974  -1.813   4.641  0.00  0.00    -0.273 OA
ATOM      3  N   UNL     1       7.436  -0.731   3.464  0.00  0.00    -0.234 N 
ATOM      4  H   UNL     1       7.162   0.086   3.017  0.00  0.00    +0.173 HD
ENDROOT
BRANCH   3   5
ATOM      5  N   UNL     1       6.587  -1.845   3.468  0.00  0.00    -0.246 N 
ATOM      6  H   UNL     1       6.861  -2.662   3.914  0.00  0.00    +0.172 HD
BRANCH   5   7
ATOM      7  C   UNL     1       5.391  -1.784   2.850  0.00  0.00    +0.151 C 
ATOM      8  S   UNL     1       4.354  -3.146   2.854  0.00  0.00    -0.017 S 
BRANCH   7   9
ATOM      9  N   UNL     1       5.011  -0.649   2.229  0.00  0.00    -0.296 N 
ATOM     10  H   UNL     1       5.629   0.095   2.157  0.00  0.00    +0.154 HD
BRANCH   9  11
ATOM     11  C   UNL     1       3.723  -0.544   1.688  0.00  0.00    +0.036 A 
ATOM     12  C   UNL     1       2.631  -1.031   2.395  0.00  0.00    +0.027 A 
ATOM     13  C   UNL     1       1.360  -0.928   1.863  0.00  0.00    +0.051 A 
ATOM     14  C   UNL     1       1.171  -0.340   0.623  0.00  0.00    +0.166 A 
ATOM     15  C   UNL     1       2.264   0.150  -0.088  0.00  0.00    +0.168 A 
ATOM     16  C   UNL     1       3.538   0.046   0.446  0.00  0.00    +0.072 A 
ATOM     17  O   UNL     1       1.818   0.676  -1.266  0.00  0.00    -0.453 OA
ATOM     18  C   UNL     1       0.403   0.873  -1.088  0.00  0.00    +0.466 C 
ATOM     19  O   UNL     1       0.040  -0.120  -0.110  0.00  0.00    -0.453 OA
ENDBRANCH   9  11
ENDBRANCH   7   9
ENDBRANCH   5   7
ENDBRANCH   3   5
BRANCH   1  20
ATOM     20  C   UNL     1       9.545   0.407   4.078  0.00  0.00    +0.168 C 
BRANCH  20  24
ATOM     21  C   UNL     1      11.605   0.618   0.342  0.00  0.00    +0.000 A 
ATOM     22  C   UNL     1      10.788   1.659   0.741  0.00  0.00    +0.000 A 
ATOM     23  C   UNL     1      10.122   1.591   1.950  0.00  0.00    +0.005 A 
ATOM     24  C   UNL     1      10.271   0.481   2.760  0.00  0.00    -0.025 A 
ATOM     25  C   UNL     1      11.092  -0.558   2.364  0.00  0.00    +0.005 A 
ATOM     26  C   UNL     1      11.755  -0.492   1.152  0.00  0.00    +0.000 A 
ENDBRANCH  20  24
BRANCH  20  27
ATOM     27  S   UNL     1      10.750   0.253   5.425  0.00  0.00    -0.108 S 
BRANCH  27  28
ATOM     28  C   UNL     1      11.634   1.777   5.382  0.00  0.00    +0.009 A 
ATOM     29  C   UNL     1      11.314   2.741   4.434  0.00  0.00    +0.015 A 
ATOM     30  C   UNL     1      12.006   3.936   4.406  0.00  0.00    +0.001 A 
ATOM     31  C   UNL     1      13.023   4.170   5.314  0.00  0.00    +0.000 A 
ATOM     32  C   UNL     1      13.347   3.210   6.256  0.00  0.00    +0.001 A 
ATOM     33  C   UNL     1      12.657   2.015   6.293  0.00  0.00    +0.015 A 
ENDBRANCH  27  28
ENDBRANCH  20  27
ENDBRANCH   1  20
TORSDOF 8
