REMARK  Name = ZINC04301894
REMARK  9 active torsions:
REMARK  status: ('A' for Active; 'I' for Inactive)
REMARK    1  A    between atoms: C_1  and  C_2
REMARK    2  A    between atoms: C_2  and  N_3
REMARK    3  A    between atoms: N_3  and  C_4
REMARK    4  A    between atoms: N_3  and  C_6
REMARK    5  A    between atoms: C_4  and  C_5
REMARK    6  A    between atoms: C_9  and  C_12
REMARK    7  A    between atoms: C_20  and  O_33
REMARK    8  A    between atoms: N_23  and  C_24
REMARK    9  A    between atoms: C_24  and  C_25
REMARK                            x       y       z     vdW  Elec       q    Type
REMARK                         _______ _______ _______ _____ _____    ______ ____
ROOT
ATOM      1  C   UNL     1       6.311  -1.357   0.990  0.00  0.00    -0.031 C 
ATOM      2  C   UNL     1       6.589  -2.848   0.791  0.00  0.00    +0.011 C 
ATOM      3  C   UNL     1       5.958  -3.332  -0.515  0.00  0.00    +0.005 C 
ATOM      4  C   UNL     1       6.239  -4.827  -0.686  0.00  0.00    +0.000 C 
ATOM      5  C   UNL     1       7.750  -5.066  -0.723  0.00  0.00    +0.003 C 
ATOM      6  C   UNL     1       8.383  -4.568   0.578  0.00  0.00    +0.035 C 
ATOM      7  C   UNL     1       8.103  -3.072   0.731  0.00  0.00    +0.066 C 
ATOM      8  C   UNL     1       8.735  -2.549   2.022  0.00  0.00    +0.016 C 
ATOM      9  C   UNL     1       8.379  -1.069   2.187  0.00  0.00    -0.075 C 
ATOM     10  N   UNL     1       6.921  -0.912   2.250  0.00  0.00    +0.390 N 
ATOM     11  H   UNL     1       6.558  -1.464   3.012  0.00  0.00    -0.080 HD
ENDROOT
BRANCH   1  15
ATOM     12  C   UNL     1       2.090  -0.703   1.140  0.00  0.00    +0.030 A 
ATOM     13  C   UNL     1       2.792  -0.451  -0.032  0.00  0.00    +0.023 A 
ATOM     14  C   UNL     1       4.156  -0.663  -0.076  0.00  0.00    +0.004 A 
ATOM     15  C   UNL     1       4.823  -1.126   1.043  0.00  0.00    -0.060 A 
ATOM     16  C   UNL     1       4.127  -1.379   2.211  0.00  0.00    +0.004 A 
ATOM     17  C   UNL     1       2.763  -1.163   2.264  0.00  0.00    +0.023 A 
BRANCH  12  18
ATOM     18  N   UNL     1       0.711  -0.489   1.189  0.00  0.00    -0.330 N 
BRANCH  18  20
ATOM     19  C   UNL     1      -0.019   1.526   0.010  0.00  0.00    +0.024 C 
ATOM     20  C   UNL     1       0.002  -0.004   0.002  0.00  0.00    +0.102 C 
ENDBRANCH  18  20
BRANCH  18  21
ATOM     21  C   UNL     1      -0.028  -0.750   2.427  0.00  0.00    +0.102 C 
ATOM     22  C   UNL     1      -0.511  -2.202   2.437  0.00  0.00    +0.024 C 
ENDBRANCH  18  21
ENDBRANCH  12  18
ENDBRANCH   1  15
BRANCH   7  23
ATOM     23  O   UNL     1       8.645  -2.367  -0.387  0.00  0.00    -0.388 OA
ATOM     24  H   UNL     1       9.602  -2.465  -0.487  0.00  0.00    +0.210 HD
ENDBRANCH   7  23
BRANCH  10  25
ATOM     25  C   UNL     1       6.593   0.502   2.476  0.00  0.00    +0.020 C 
BRANCH  25  26
ATOM     26  C   UNL     1       7.113   0.929   3.825  0.00  0.00    +0.199 C 
ATOM     27  O   UNL     1       7.699   0.133   4.528  0.00  0.00    -0.278 OA
ATOM     28  N   UNL     1       6.926   2.194   4.250  0.00  0.00    -0.303 N 
ATOM     29  C   UNL     1       6.212   3.167   3.412  0.00  0.00    +0.107 C 
ATOM     30  C   UNL     1       5.072   3.781   4.231  0.00  0.00    +0.019 C 
ATOM     31  C   UNL     1       5.637   4.363   5.528  0.00  0.00    +0.003 C 
ATOM     32  C   UNL     1       6.279   3.246   6.354  0.00  0.00    +0.019 C 
ATOM     33  C   UNL     1       7.427   2.625   5.562  0.00  0.00    +0.107 C 
ENDBRANCH  25  26
ENDBRANCH  10  25
TORSDOF 7
