REMARK  Name = ZINC02329054
REMARK  3 active torsions:
REMARK  status: ('A' for Active; 'I' for Inactive)
REMARK    1  A    between atoms: C_4  and  C_7
REMARK    2  A    between atoms: C_10  and  C_26
REMARK    3  A    between atoms: C_18  and  C_20
REMARK                            x       y       z     vdW  Elec       q    Type
REMARK                         _______ _______ _______ _____ _____    ______ ____
ROOT
ATOM      1  C   UNL     1       3.711  -0.707  -0.038  0.00  0.00    +0.147 C 
ATOM      2  C   UNL     1       3.817  -1.609   1.198  0.00  0.00    +0.087 C 
ATOM      3  C   UNL     1       4.877  -2.658   1.012  0.00  0.00    +0.055 C 
ATOM      4  N   UNL     1       5.140  -3.194  -0.149  0.00  0.00    -0.215 NA
ATOM      5  C   UNL     1       4.480  -2.737  -1.246  0.00  0.00    +0.251 A 
ATOM      6  N   UNL     1       3.787  -1.556  -1.226  0.00  0.00    -0.220 N 
ATOM      7  N   UNL     1       3.236  -1.393  -2.493  0.00  0.00    -0.131 NA
ATOM      8  C   UNL     1       3.619  -2.430  -3.210  0.00  0.00    +0.243 A 
ATOM      9  N   UNL     1       4.378  -3.234  -2.454  0.00  0.00    -0.176 NA
ATOM     10  N   UNL     1       3.284  -2.657  -4.547  0.00  0.00    -0.249 N 
ATOM     11  C   UNL     1       3.737  -3.759  -5.178  0.00  0.00    +0.250 C 
ATOM     12  O   UNL     1       4.436  -4.555  -4.583  0.00  0.00    -0.270 OA
ATOM     13  H   UNL     1       2.725  -2.021  -5.021  0.00  0.00    +0.158 HD
ENDROOT
BRANCH   1  17
ATOM     14  C   UNL     1      -0.017   1.378   0.010  0.00  0.00    +0.000 A 
ATOM     15  C   UNL     1       1.171   2.086   0.002  0.00  0.00    +0.000 A 
ATOM     16  C   UNL     1       2.377   1.411  -0.013  0.00  0.00    +0.006 A 
ATOM     17  C   UNL     1       2.396   0.029  -0.020  0.00  0.00    -0.023 A 
ATOM     18  C   UNL     1       1.208  -0.679  -0.012  0.00  0.00    +0.006 A 
ATOM     19  C   UNL     1       0.002  -0.004   0.002  0.00  0.00    +0.000 A 
ENDBRANCH   1  17
BRANCH  11  20
ATOM     20  C   UNL     1       3.382  -3.998  -6.593  0.00  0.00    +0.037 A 
ATOM     21  C   UNL     1       2.584  -3.083  -7.280  0.00  0.00    +0.013 A 
ATOM     22  C   UNL     1       2.257  -3.312  -8.601  0.00  0.00    +0.001 A 
ATOM     23  C   UNL     1       2.719  -4.447  -9.244  0.00  0.00    +0.000 A 
ATOM     24  C   UNL     1       3.511  -5.358  -8.568  0.00  0.00    +0.001 A 
ATOM     25  C   UNL     1       3.849  -5.138  -7.249  0.00  0.00    +0.013 A 
ENDBRANCH  11  20
BRANCH   3  26
ATOM     26  C   UNL     1       5.650  -3.096   2.184  0.00  0.00    -0.004 A 
ATOM     27  C   UNL     1       5.391  -2.546   3.444  0.00  0.00    +0.010 A 
ATOM     28  C   UNL     1       6.120  -2.962   4.538  0.00  0.00    +0.001 A 
ATOM     29  C   UNL     1       7.106  -3.922   4.392  0.00  0.00    +0.000 A 
ATOM     30  C   UNL     1       7.369  -4.471   3.149  0.00  0.00    +0.001 A 
ATOM     31  C   UNL     1       6.645  -4.070   2.047  0.00  0.00    +0.010 A 
ENDBRANCH   3  26
TORSDOF 3
