REMARK  Name = ZINC38773422
REMARK  3 active torsions:
REMARK  status: ('A' for Active; 'I' for Inactive)
REMARK    1  A    between atoms: C_1  and  C_2
REMARK    2  A    between atoms: C_16  and  C_19
REMARK    3  A    between atoms: C_22  and  O_26
REMARK                            x       y       z     vdW  Elec       q    Type
REMARK                         _______ _______ _______ _____ _____    ______ ____
ROOT
ATOM      1  C   UNL     1      -0.018   1.503   0.010  0.00  0.00    +0.044 C 
ATOM      2  C   UNL     1       0.002  -0.004   0.002  0.00  0.00    -0.050 A 
ATOM      3  C   UNL     1       0.006  -0.688  -1.200  0.00  0.00    +0.005 A 
ATOM      4  C   UNL     1       0.028  -2.068  -1.208  0.00  0.00    +0.023 A 
ATOM      5  C   UNL     1       0.045  -2.772  -0.010  0.00  0.00    +0.033 A 
ATOM      6  C   UNL     1       0.036  -2.083   1.196  0.00  0.00    +0.003 A 
ATOM      7  C   UNL     1       0.023  -0.700   1.195  0.00  0.00    +0.011 A 
ATOM      8  C   UNL     1       0.034  -2.825   2.501  0.00  0.00    +0.155 C 
ATOM      9  C   UNL     1       0.628  -4.222   2.312  0.00  0.00    +0.047 C 
ATOM     10  C   UNL     1       0.516  -4.985   3.632  0.00  0.00    +0.011 C 
ATOM     11  C   UNL     1       1.261  -4.189   4.712  0.00  0.00    +0.028 C 
ATOM     12  C   UNL     1       0.697  -2.770   4.791  0.00  0.00    +0.160 C 
ATOM     13  O   UNL     1       0.789  -2.147   3.502  0.00  0.00    -0.372 OA
ATOM     14  C   UNL     1      -0.142  -4.932   1.197  0.00  0.00    +0.106 C 
ATOM     15  N   UNL     1       0.078  -4.171  -0.043  0.00  0.00    -0.336 N 
ATOM     16  H   UNL     1       0.244  -4.636  -0.878  0.00  0.00    +0.147 HD
ENDROOT
BRANCH  14  17
ATOM     17  C   UNL     1       0.374  -6.339   1.034  0.00  0.00    -0.026 A 
ATOM     18  C   UNL     1       1.541  -6.569   0.329  0.00  0.00    +0.009 A 
ATOM     19  C   UNL     1       2.016  -7.857   0.178  0.00  0.00    +0.047 A 
ATOM     20  C   UNL     1       1.321  -8.921   0.735  0.00  0.00    +0.131 A 
ATOM     21  C   UNL     1       0.150  -8.688   1.442  0.00  0.00    +0.060 A 
ATOM     22  C   UNL     1      -0.318  -7.396   1.595  0.00  0.00    +0.024 A 
ATOM     23 BR   UNL     1      -0.801 -10.135   2.202  0.00  0.00    -0.047 Br
BRANCH  20  24
ATOM     24  O   UNL     1       1.786 -10.190   0.587  0.00  0.00    -0.506 OA
ATOM     25  H   UNL     1       2.388 -10.473   1.289  0.00  0.00    +0.292 HD
ENDBRANCH  20  24
ENDBRANCH  14  17
TORSDOF 2
