REMARK  Name = ZINC39710463
REMARK  10 active torsions:
REMARK  status: ('A' for Active; 'I' for Inactive)
REMARK    1  A    between atoms: C_1  and  C_2
REMARK    2  A    between atoms: C_2  and  C_3
REMARK    3  A    between atoms: C_10  and  C_15
REMARK    4  A    between atoms: C_15  and  C_17
REMARK    5  A    between atoms: C_15  and  N_26
REMARK    6  A    between atoms: N_21  and  C_22
REMARK    7  A    between atoms: C_22  and  C_23
REMARK    8  A    between atoms: C_23  and  O_24
REMARK    9  A    between atoms: O_24  and  C_25
REMARK   10  A    between atoms: N_29  and  C_32
REMARK                            x       y       z     vdW  Elec       q    Type
REMARK                         _______ _______ _______ _____ _____    ______ ____
ROOT
ATOM      1  C   UNL     1      -6.433  -1.055  -2.897  0.00  0.00    +0.142 C 
ENDROOT
BRANCH   1   9
ATOM      2  C   UNL     1      -3.466  -6.064  -3.288  0.00  0.00    -0.047 A 
ATOM      3  C   UNL     1      -2.241  -5.402  -3.192  0.00  0.00    +0.005 A 
ATOM      4  C   UNL     1      -2.140  -4.099  -2.823  0.00  0.00    +0.024 A 
ATOM      5  C   UNL     1      -3.292  -3.351  -2.517  0.00  0.00    +0.040 A 
ATOM      6  N   UNL     1      -3.180  -2.073  -2.157  0.00  0.00    -0.284 N 
ATOM      7  C   UNL     1      -4.221  -1.314  -1.856  0.00  0.00    +0.226 C 
ATOM      8  O   UNL     1      -4.056  -0.152  -1.533  0.00  0.00    -0.275 OA
ATOM      9  C   UNL     1      -5.615  -1.895  -1.915  0.00  0.00    +0.123 C 
ATOM     10  C   UNL     1      -5.747  -3.349  -2.325  0.00  0.00    -0.003 C 
ATOM     11  C   UNL     1      -4.598  -4.025  -2.610  0.00  0.00    -0.007 A 
ATOM     12  C   UNL     1      -4.636  -5.429  -3.019  0.00  0.00    +0.013 A 
ATOM     13  H   UNL     1      -2.294  -1.681  -2.113  0.00  0.00    +0.155 HD
BRANCH   2  15
ATOM     14  C   UNL     1      -3.600  -7.601  -5.229  0.00  0.00    +0.009 C 
ATOM     15  C   UNL     1      -3.491  -7.512  -3.706  0.00  0.00    +0.032 C 
ENDBRANCH   2  15
ENDBRANCH   1   9
BRANCH   1  16
ATOM     16  N   UNL     1      -7.758  -1.663  -3.078  0.00  0.00    -0.289 NA
ATOM     17  C   UNL     1      -8.465  -1.775  -1.795  0.00  0.00    +0.104 C 
ATOM     18  C   UNL     1      -9.757  -2.574  -1.996  0.00  0.00    +0.120 C 
ATOM     19  N   UNL     1     -10.530  -1.948  -3.080  0.00  0.00    -0.327 N 
ATOM     20  C   UNL     1      -9.847  -1.677  -4.354  0.00  0.00    +0.120 C 
ATOM     21  C   UNL     1      -8.552  -0.914  -4.060  0.00  0.00    +0.104 C 
BRANCH  19  22
ATOM     22  C   UNL     1     -11.877  -1.619  -2.903  0.00  0.00    +0.030 A 
ATOM     23  C   UNL     1     -12.622  -1.140  -3.973  0.00  0.00    +0.026 A 
ATOM     24  C   UNL     1     -13.953  -0.816  -3.796  0.00  0.00    +0.040 A 
ATOM     25  C   UNL     1     -14.545  -0.969  -2.553  0.00  0.00    +0.124 A 
ATOM     26  C   UNL     1     -13.804  -1.447  -1.485  0.00  0.00    +0.040 A 
ATOM     27  C   UNL     1     -12.474  -1.777  -1.659  0.00  0.00    +0.026 A 
ATOM     28  F   UNL     1     -15.847  -0.651  -2.382  0.00  0.00    -0.205 F 
ENDBRANCH  19  22
ENDBRANCH   1  16
BRANCH   1  29
ATOM     29  C   UNL     1      -6.592   0.342  -2.353  0.00  0.00    +0.170 A 
ATOM     30  N   UNL     1      -7.380   0.715  -1.375  0.00  0.00    -0.112 NA
ATOM     31  N   UNL     1      -7.232   1.984  -1.206  0.00  0.00    -0.023 NA
ATOM     32  N   UNL     1      -6.368   2.429  -2.051  0.00  0.00    -0.044 NA
ATOM     33  N   UNL     1      -5.947   1.446  -2.772  0.00  0.00    -0.225 N 
BRANCH  33  34
ATOM     34  C   UNL     1      -4.955   1.518  -3.848  0.00  0.00    +0.175 C 
BRANCH  34  35
ATOM     35  C   UNL     1      -5.662   1.796  -5.176  0.00  0.00    +0.183 C 
BRANCH  35  36
ATOM     36  O   UNL     1      -4.694   1.867  -6.225  0.00  0.00    -0.381 OA
ATOM     37  C   UNL     1      -5.253   2.124  -7.515  0.00  0.00    +0.194 C 
ENDBRANCH  35  36
ENDBRANCH  34  35
ENDBRANCH  33  34
ENDBRANCH   1  29
TORSDOF 8
