REMARK  Name = ZINC20080967
REMARK  5 active torsions:
REMARK  status: ('A' for Active; 'I' for Inactive)
REMARK    1  A    between atoms: C_1  and  N_2
REMARK    2  A    between atoms: C_13  and  C_16
REMARK    3  A    between atoms: C_19  and  O_22
REMARK    4  A    between atoms: O_22  and  C_23
REMARK    5  A    between atoms: C_23  and  C_24
REMARK                            x       y       z     vdW  Elec       q    Type
REMARK                         _______ _______ _______ _____ _____    ______ ____
ROOT
ATOM      1  C   UNL     1      -1.547   3.164  -8.368  0.00  0.00    -0.096 C 
ATOM      2  N   UNL     1      -1.509   2.812  -6.942  0.00  0.00    +0.381 N 
ATOM      3  C   UNL     1      -2.799   2.263  -6.501  0.00  0.00    -0.074 C 
ATOM      4  C   UNL     1      -2.637   1.563  -5.149  0.00  0.00    +0.018 C 
ATOM      5  C   UNL     1      -1.946   2.529  -4.192  0.00  0.00    -0.027 A 
ATOM      6  C   UNL     1      -1.282   3.603  -4.679  0.00  0.00    -0.021 A 
ATOM      7  S   UNL     1      -0.653   4.438  -3.249  0.00  0.00    -0.080 S 
ATOM      8  C   UNL     1      -1.259   3.388  -2.038  0.00  0.00    +0.080 A 
ATOM      9  C   UNL     1      -1.943   2.388  -2.747  0.00  0.00    +0.068 A 
ATOM     10  C   UNL     1      -2.577   1.305  -1.961  0.00  0.00    +0.248 C 
ATOM     11  O   UNL     1      -3.279   0.465  -2.492  0.00  0.00    -0.270 OA
ATOM     12  N   UNL     1      -2.345   1.288  -0.632  0.00  0.00    -0.289 N 
ATOM     13  C   UNL     1      -1.333   2.113   0.020  0.00  0.00    +0.190 C 
ATOM     14  N   UNL     1      -1.170   3.405  -0.670  0.00  0.00    -0.316 N 
ATOM     15  C   UNL     1      -1.130   3.976  -6.120  0.00  0.00    -0.036 C 
ATOM     16  H   UNL     1      -2.968   0.607  -0.034  0.00  0.00    +0.151 HD
ATOM     17  H   UNL     1      -0.987   4.321  -0.088  0.00  0.00    +0.149 HD
ATOM     18  H   UNL     1      -0.745   2.032  -6.812  0.00  0.00    -0.082 HD
ENDROOT
BRANCH  13  19
ATOM     19  C   UNL     1      -0.017   1.378   0.010  0.00  0.00    -0.009 A 
ATOM     20  C   UNL     1       1.170   2.088   0.002  0.00  0.00    +0.010 A 
ATOM     21  C   UNL     1       2.377   1.417  -0.013  0.00  0.00    +0.046 A 
ATOM     22  C   UNL     1       2.399   0.030  -0.021  0.00  0.00    +0.121 A 
ATOM     23  C   UNL     1       1.207  -0.680  -0.014  0.00  0.00    +0.046 A 
ATOM     24  C   UNL     1       0.002  -0.004   0.002  0.00  0.00    +0.010 A 
BRANCH  22  25
ATOM     25  O   UNL     1       3.586  -0.632  -0.037  0.00  0.00    -0.487 OA
BRANCH  25  26
ATOM     26  C   UNL     1       4.772   0.164  -0.044  0.00  0.00    +0.266 C 
BRANCH  26  27
ATOM     27  C   UNL     1       5.981  -0.737  -0.062  0.00  0.00    +0.008 A 
ATOM     28  C   UNL     1       5.820  -2.110  -0.062  0.00  0.00    +0.008 A 
ATOM     29  C   UNL     1       6.928  -2.936  -0.083  0.00  0.00    +0.000 A 
ATOM     30  C   UNL     1       8.198  -2.389  -0.093  0.00  0.00    +0.001 A 
ATOM     31  C   UNL     1       8.360  -1.017  -0.087  0.00  0.00    +0.020 A 
ATOM     32  C   UNL     1       7.251  -0.190  -0.071  0.00  0.00    +0.047 A 
ATOM     33 CL   UNL     1       7.454   1.535  -0.063  0.00  0.00    -0.083 Cl
ENDBRANCH  26  27
ENDBRANCH  25  26
ENDBRANCH  22  25
ENDBRANCH  13  19
TORSDOF 4
