REMARK  Name = ZINC49078717
REMARK  6 active torsions:
REMARK  status: ('A' for Active; 'I' for Inactive)
REMARK    1  A    between atoms: C_1  and  C_2
REMARK    2  A    between atoms: C_5  and  S_11
REMARK    3  A    between atoms: C_7  and  C_8
REMARK    4  A    between atoms: S_11  and  N_14
REMARK    5  A    between atoms: N_14  and  C_15
REMARK    6  A    between atoms: C_15  and  C_20
REMARK                            x       y       z     vdW  Elec       q    Type
REMARK                         _______ _______ _______ _____ _____    ______ ____
ROOT
ATOM      1  C   UNL     1      -0.501   1.454   0.081  0.00  0.00    +0.044 C 
ATOM      2  C   UNL     1      -0.229  -0.027   0.036  0.00  0.00    -0.038 A 
ATOM      3  C   UNL     1      -0.329  -0.713  -1.158  0.00  0.00    +0.006 A 
ATOM      4  C   UNL     1      -0.080  -2.073  -1.201  0.00  0.00    +0.029 A 
ATOM      5  C   UNL     1       0.270  -2.755  -0.049  0.00  0.00    +0.106 A 
ATOM      6  C   UNL     1       0.373  -2.082   1.151  0.00  0.00    +0.041 A 
ATOM      7  C   UNL     1       0.128  -0.708   1.200  0.00  0.00    +0.041 A 
ENDROOT
BRANCH   7   8
ATOM      8  C   UNL     1       0.242   0.021   2.481  0.00  0.00    +0.242 C 
ATOM      9  O   UNL     1       0.140   1.232   2.503  0.00  0.00    -0.270 OA
ATOM     10  N   UNL     1       0.460  -0.658   3.626  0.00  0.00    -0.325 N 
ATOM     11  H   UNL     1       0.542  -1.624   3.608  0.00  0.00    +0.145 HD
ATOM     12  H   UNL     1       0.535  -0.179   4.466  0.00  0.00    +0.145 HD
ENDBRANCH   7   8
BRANCH   5  13
ATOM     13  S   UNL     1       0.583  -4.488  -0.114  0.00  0.00    +0.059 S 
ATOM     14  O   UNL     1       0.359  -4.991   1.196  0.00  0.00    -0.153 OA
ATOM     15  O   UNL     1      -0.112  -4.984  -1.250  0.00  0.00    -0.153 OA
BRANCH  13  16
ATOM     16  N   UNL     1       2.198  -4.681  -0.426  0.00  0.00    -0.184 NA
ATOM     17  H   UNL     1       2.486  -5.089  -1.258  0.00  0.00    +0.149 HD
BRANCH  16  18
ATOM     18  C   UNL     1       3.192  -4.238   0.555  0.00  0.00    +0.037 C 
ATOM     19  C   UNL     1       3.096  -2.715   0.751  0.00  0.00    +0.023 C 
ATOM     20  C   UNL     1       4.465  -2.131   0.341  0.00  0.00    +0.002 C 
ATOM     21  C   UNL     1       5.059  -3.194  -0.616  0.00  0.00    +0.002 C 
ATOM     22  C   UNL     1       4.615  -4.527   0.034  0.00  0.00    +0.023 C 
ATOM     23  C   UNL     1       2.967  -4.954   1.889  0.00  0.00    +0.029 C 
ENDBRANCH  16  18
ENDBRANCH  13  16
ENDBRANCH   5  13
TORSDOF 4
