REMARK  Name = ZINC12166464
REMARK  9 active torsions:
REMARK  status: ('A' for Active; 'I' for Inactive)
REMARK    1  A    between atoms: C_1  and  O_2
REMARK    2  A    between atoms: O_2  and  C_3
REMARK    3  A    between atoms: C_3  and  C_5
REMARK    4  A    between atoms: C_8  and  C_11
REMARK    5  A    between atoms: C_18  and  C_21
REMARK    6  A    between atoms: C_21  and  N_22
REMARK    7  A    between atoms: C_23  and  C_25
REMARK    8  A    between atoms: C_25  and  C_26
REMARK    9  A    between atoms: C_26  and  C_27
REMARK                            x       y       z     vdW  Elec       q    Type
REMARK                         _______ _______ _______ _____ _____    ______ ____
ROOT
ATOM      1  C   UNL     1      -4.902   4.111   0.046  0.00  0.00    +0.042 A 
ATOM      2  C   UNL     1      -6.128   3.450   0.042  0.00  0.00    +0.013 A 
ATOM      3  C   UNL     1      -7.304   4.170   0.055  0.00  0.00    +0.001 A 
ATOM      4  C   UNL     1      -7.267   5.555   0.064  0.00  0.00    +0.007 A 
ATOM      5  C   UNL     1      -6.059   6.217   0.066  0.00  0.00    -0.002 A 
ATOM      6  C   UNL     1      -4.862   5.515   0.054  0.00  0.00    +0.133 A 
ATOM      7  O   UNL     1      -3.795   6.358   0.043  0.00  0.00    -0.486 OA
ATOM      8  C   UNL     1      -4.214   7.660   0.486  0.00  0.00    +0.195 C 
ATOM      9  C   UNL     1      -5.708   7.693   0.085  0.00  0.00    +0.085 C 
ENDROOT
BRANCH   1  13
ATOM     10  C   UNL     1      -1.302   1.931   0.019  0.00  0.00    +0.077 A 
ATOM     11  C   UNL     1      -2.513   1.223   0.015  0.00  0.00    +0.018 A 
ATOM     12  C   UNL     1      -3.692   1.939   0.030  0.00  0.00    +0.029 A 
ATOM     13  C   UNL     1      -3.641   3.334   0.036  0.00  0.00    +0.075 A 
ATOM     14  N   UNL     1      -2.477   3.974   0.035  0.00  0.00    -0.254 NA
ATOM     15  C   UNL     1      -1.332   3.328   0.026  0.00  0.00    +0.126 A 
BRANCH  10  16
ATOM     16  C   UNL     1      -0.014   1.211   0.009  0.00  0.00    +0.340 C 
ATOM     17  O   UNL     1       0.002  -0.004   0.002  0.00  0.00    -0.245 OA
BRANCH  16  19
ATOM     18  C   UNL     1       2.372   1.126  -0.015  0.00  0.00    +0.280 C 
ATOM     19  O   UNL     1       1.143   1.900   0.001  0.00  0.00    -0.464 OA
ENDBRANCH  16  19
ENDBRANCH  10  16
ENDBRANCH   1  13
BRANCH   8  20
ATOM     20  C   UNL     1      -3.430   8.757  -0.237  0.00  0.00    +0.149 C 
BRANCH  20  21
ATOM     21  N   UNL     1      -2.004   8.621   0.069  0.00  0.00    -0.312 N 
ATOM     22  C   UNL     1      -1.116   9.485  -0.461  0.00  0.00    +0.213 C 
ATOM     23  O   UNL     1      -1.497  10.374  -1.192  0.00  0.00    -0.276 OA
ATOM     24  H   UNL     1      -1.700   7.910   0.654  0.00  0.00    +0.149 HD
BRANCH  22  25
ATOM     25  C   UNL     1       0.351   9.345  -0.146  0.00  0.00    +0.100 C 
BRANCH  25  26
ATOM     26  C   UNL     1       1.135  10.443  -0.869  0.00  0.00    +0.046 C 
BRANCH  26  27
ATOM     27  C   UNL     1       2.602  10.303  -0.554  0.00  0.00    -0.029 A 
ATOM     28  C   UNL     1       3.162  11.044   0.470  0.00  0.00    +0.005 A 
ATOM     29  C   UNL     1       4.507  10.912   0.762  0.00  0.00    +0.000 A 
ATOM     30  C   UNL     1       5.294  10.048   0.025  0.00  0.00    +0.001 A 
ATOM     31  C   UNL     1       4.736   9.311  -1.003  0.00  0.00    +0.020 A 
ATOM     32  C   UNL     1       3.389   9.438  -1.292  0.00  0.00    +0.044 A 
ATOM     33 CL   UNL     1       2.687   8.512  -2.582  0.00  0.00    -0.083 Cl
ENDBRANCH  26  27
ENDBRANCH  25  26
ENDBRANCH  22  25
ENDBRANCH  20  21
ENDBRANCH   8  20
TORSDOF 8
