REMARK  Name = ZINC22395437
REMARK  10 active torsions:
REMARK  status: ('A' for Active; 'I' for Inactive)
REMARK    1  A    between atoms: C_1  and  S_2
REMARK    2  A    between atoms: S_2  and  C_3
REMARK    3  A    between atoms: C_6  and  S_9
REMARK    4  A    between atoms: S_9  and  N_12
REMARK    5  A    between atoms: N_12  and  C_13
REMARK    6  A    between atoms: N_12  and  C_29
REMARK    7  A    between atoms: C_13  and  C_14
REMARK    8  A    between atoms: N_16  and  C_17
REMARK    9  A    between atoms: C_17  and  C_18
REMARK   10  A    between atoms: C_21  and  N_24
REMARK                            x       y       z     vdW  Elec       q    Type
REMARK                         _______ _______ _______ _____ _____    ______ ____
ROOT
ATOM      1  N   UNL     1       0.954   6.960   3.252  0.00  0.00    -0.194 N 
ENDROOT
BRANCH   1   2
ATOM      2  C   UNL     1       2.311   7.286   3.218  0.00  0.00    +0.055 A 
ATOM      3  C   UNL     1       3.216   6.435   2.595  0.00  0.00    +0.025 A 
ATOM      4  C   UNL     1       4.558   6.759   2.562  0.00  0.00    +0.005 A 
ATOM      5  C   UNL     1       5.003   7.929   3.148  0.00  0.00    +0.038 A 
ATOM      6  C   UNL     1       4.105   8.781   3.770  0.00  0.00    +0.125 A 
ATOM      7  C   UNL     1       2.759   8.464   3.801  0.00  0.00    +0.063 A 
ATOM      8  F   UNL     1       4.543   9.924   4.341  0.00  0.00    -0.205 F 
ENDBRANCH   1   2
BRANCH   1   9
ATOM      9  S   UNL     1      -0.183   8.159   3.365  0.00  0.00    +0.075 S 
ATOM     10  O   UNL     1       0.442   9.355   2.921  0.00  0.00    -0.150 OA
ATOM     11  O   UNL     1      -1.369   7.652   2.768  0.00  0.00    -0.150 OA
BRANCH   9  15
ATOM     12  C   UNL     1      -1.093   8.732   7.765  0.00  0.00    +0.008 A 
ATOM     13  C   UNL     1      -0.163   9.549   7.134  0.00  0.00    +0.016 A 
ATOM     14  C   UNL     1       0.112   9.372   5.792  0.00  0.00    +0.030 A 
ATOM     15  C   UNL     1      -0.537   8.382   5.077  0.00  0.00    +0.109 A 
ATOM     16  C   UNL     1      -1.467   7.570   5.700  0.00  0.00    +0.030 A 
ATOM     17  C   UNL     1      -1.743   7.738   7.043  0.00  0.00    +0.016 A 
BRANCH  12  19
ATOM     18  C   UNL     1      -2.691   7.684   9.836  0.00  0.00    +0.090 C 
ATOM     19  S   UNL     1      -1.446   8.954   9.477  0.00  0.00    -0.129 S 
ENDBRANCH  12  19
ENDBRANCH   9  15
ENDBRANCH   1   9
BRANCH   1  20
ATOM     20  C   UNL     1       0.535   5.557   3.188  0.00  0.00    +0.227 C 
BRANCH  20  21
ATOM     21  C   UNL     1       0.455   5.122   1.747  0.00  0.00    +0.232 C 
ATOM     22  O   UNL     1       0.722   5.907   0.862  0.00  0.00    -0.274 OA
ATOM     23  N   UNL     1       0.088   3.862   1.444  0.00  0.00    -0.310 N 
ATOM     24  H   UNL     1      -0.154   3.151   2.247  0.00  0.00    +0.149 HD
BRANCH  23  25
ATOM     25  C   UNL     1       0.010   3.439   0.043  0.00  0.00    +0.139 C 
BRANCH  25  26
ATOM     26  C   UNL     1      -0.420   1.996  -0.023  0.00  0.00    -0.030 A 
ATOM     27  C   UNL     1      -1.765   1.680  -0.093  0.00  0.00    +0.007 A 
ATOM     28  C   UNL     1      -2.163   0.359  -0.154  0.00  0.00    +0.023 A 
ATOM     29  C   UNL     1      -1.211  -0.653  -0.145  0.00  0.00    +0.030 A 
ATOM     30  C   UNL     1       0.139  -0.332  -0.074  0.00  0.00    +0.023 A 
ATOM     31  C   UNL     1       0.530   0.992  -0.013  0.00  0.00    +0.007 A 
BRANCH  29  32
ATOM     32  N   UNL     1      -1.610  -1.990  -0.206  0.00  0.00    -0.330 N 
ATOM     33  C   UNL     1      -2.427  -2.356   0.979  0.00  0.00    +0.105 C 
ATOM     34  C   UNL     1      -3.190  -3.619   0.506  0.00  0.00    +0.020 C 
ATOM     35  C   UNL     1      -3.504  -3.300  -0.973  0.00  0.00    +0.020 C 
ATOM     36  C   UNL     1      -2.473  -2.232  -1.382  0.00  0.00    +0.105 C 
ENDBRANCH  29  32
ENDBRANCH  25  26
ENDBRANCH  23  25
ENDBRANCH  20  21
ENDBRANCH   1  20
TORSDOF 9
