REMARK  Name = ZINC43725831
REMARK  7 active torsions:
REMARK  status: ('A' for Active; 'I' for Inactive)
REMARK    1  A    between atoms: C_1  and  C_2
REMARK    2  A    between atoms: C_2  and  C_4
REMARK    3  A    between atoms: C_2  and  N_11
REMARK    4  A    between atoms: C_4  and  C_5
REMARK    5  A    between atoms: C_5  and  C_6
REMARK    6  A    between atoms: N_14  and  N_15
REMARK    7  A    between atoms: C_16  and  C_18
REMARK                            x       y       z     vdW  Elec       q    Type
REMARK                         _______ _______ _______ _____ _____    ______ ____
ROOT
ATOM      1  N   UNL     1       0.688  -0.476  -1.203  0.00  0.00    -0.296 N 
ATOM      2  C   UNL     1       2.031  -0.587  -1.215  0.00  0.00    +0.316 C 
ATOM      3  O   UNL     1       2.674  -0.294  -0.225  0.00  0.00    -0.251 OA
ATOM      4  N   UNL     1       2.662  -1.022  -2.324  0.00  0.00    -0.218 N 
ATOM      5  H   UNL     1       0.175  -0.710  -1.993  0.00  0.00    +0.151 HD
ATOM      6  H   UNL     1       3.628  -1.101  -2.332  0.00  0.00    +0.174 HD
ENDROOT
BRANCH   4   7
ATOM      7  N   UNL     1       1.921  -1.359  -3.464  0.00  0.00    -0.228 N 
ATOM      8  C   UNL     1       2.552  -1.793  -4.573  0.00  0.00    +0.276 C 
ATOM      9  O   UNL     1       3.765  -1.893  -4.584  0.00  0.00    -0.267 OA
ATOM     10  H   UNL     1       0.955  -1.279  -3.456  0.00  0.00    +0.173 HD
BRANCH   8  11
ATOM     11  C   UNL     1       1.777  -2.146  -5.767  0.00  0.00    +0.104 A 
ATOM     12  C   UNL     1       2.286  -2.607  -6.963  0.00  0.00    +0.047 A 
ATOM     13  C   UNL     1       1.200  -2.817  -7.819  0.00  0.00    +0.036 A 
ATOM     14  C   UNL     1       0.071  -2.487  -7.146  0.00  0.00    +0.098 A 
ATOM     15  N   UNL     1       0.408  -2.083  -5.897  0.00  0.00    -0.356 N 
ATOM     16  H   UNL     1      -0.212  -1.795  -5.209  0.00  0.00    +0.166 HD
ATOM     17 BR   UNL     1       1.292  -3.447  -9.599  0.00  0.00    -0.049 Br
ENDBRANCH   8  11
ENDBRANCH   4   7
BRANCH   1  19
ATOM     18  C   UNL     1      -0.019   1.526   0.010  0.00  0.00    +0.028 C 
ATOM     19  C   UNL     1       0.002  -0.004   0.002  0.00  0.00    +0.072 C 
BRANCH  19  20
ATOM     20  C   UNL     1      -1.433  -0.534   0.013  0.00  0.00    +0.030 C 
BRANCH  20  21
ATOM     21  C   UNL     1      -1.413  -2.059   0.130  0.00  0.00    +0.076 C 
BRANCH  21  22
ATOM     22  C   UNL     1      -2.827  -2.581   0.141  0.00  0.00    +0.105 A 
ATOM     23  C   UNL     1      -3.541  -2.941  -0.941  0.00  0.00    +0.044 A 
ATOM     24  C   UNL     1      -4.806  -3.367  -0.474  0.00  0.00    +0.041 A 
ATOM     25  C   UNL     1      -4.789  -3.241   0.865  0.00  0.00    +0.195 A 
ATOM     26  O   UNL     1      -3.586  -2.770   1.232  0.00  0.00    -0.468 OA
ENDBRANCH  21  22
ENDBRANCH  20  21
ENDBRANCH  19  20
ENDBRANCH   1  19
TORSDOF 6
