REMARK  Name = ZINC58057536
REMARK  5 active torsions:
REMARK  status: ('A' for Active; 'I' for Inactive)
REMARK    1  A    between atoms: C_1  and  C_2
REMARK    2  A    between atoms: C_2  and  C_3
REMARK    3  A    between atoms: C_6  and  C_10
REMARK    4  A    between atoms: C_8  and  N_9
REMARK    5  A    between atoms: C_16  and  C_18
REMARK                            x       y       z     vdW  Elec       q    Type
REMARK                         _______ _______ _______ _____ _____    ______ ____
ROOT
ATOM      1  C   UNL     1      -5.403  -2.001   0.050  0.00  0.00    +0.078 A 
ATOM      2  C   UNL     1      -6.007  -2.334   1.252  0.00  0.00    +0.098 A 
ATOM      3  C   UNL     1      -7.328  -2.819   1.231  0.00  0.00    +0.252 A 
ATOM      4  O   UNL     1      -7.894  -3.123   2.268  0.00  0.00    -0.268 OA
ATOM      5  N   UNL     1      -7.956  -2.941   0.043  0.00  0.00    -0.307 N 
ATOM      6  H   UNL     1      -8.867  -3.273   0.009  0.00  0.00    +0.170 HD
ATOM      7  C   UNL     1      -7.314  -2.598  -1.109  0.00  0.00    +0.142 A 
ATOM      8  N   UNL     1      -6.083  -2.140  -1.097  0.00  0.00    -0.229 NA
ENDROOT
BRANCH   1  12
ATOM      9  C   UNL     1      -1.412  -0.526   0.013  0.00  0.00    -0.027 A 
ATOM     10  C   UNL     1      -2.013  -0.863   1.211  0.00  0.00    +0.006 A 
ATOM     11  C   UNL     1      -3.307  -1.342   1.228  0.00  0.00    +0.010 A 
ATOM     12  C   UNL     1      -4.014  -1.486   0.034  0.00  0.00    +0.002 A 
ATOM     13  C   UNL     1      -3.409  -1.146  -1.174  0.00  0.00    +0.033 A 
ATOM     14  C   UNL     1      -2.110  -0.661  -1.182  0.00  0.00    +0.028 A 
BRANCH  14  15
ATOM     15  N   UNL     1      -1.500  -0.313  -2.390  0.00  0.00    -0.358 N 
ATOM     16  H   UNL     1      -0.590   0.023  -2.395  0.00  0.00    +0.142 HD
ATOM     17  H   UNL     1      -1.988  -0.407  -3.223  0.00  0.00    +0.142 HD
ENDBRANCH  14  15
BRANCH   9  19
ATOM     18  C   UNL     1      -0.019   1.526   0.010  0.00  0.00    +0.009 C 
ATOM     19  C   UNL     1       0.002  -0.004   0.002  0.00  0.00    +0.033 C 
ENDBRANCH   9  19
ENDBRANCH   1  12
BRANCH   7  20
ATOM     20  C   UNL     1      -8.021  -2.739  -2.401  0.00  0.00    +0.020 A 
ATOM     21  C   UNL     1      -9.336  -3.213  -2.453  0.00  0.00    +0.031 A 
ATOM     22  C   UNL     1      -9.958  -3.329  -3.680  0.00  0.00    +0.111 A 
ATOM     23  N   UNL     1      -9.329  -3.000  -4.792  0.00  0.00    -0.263 NA
ATOM     24  C   UNL     1      -8.090  -2.550  -4.788  0.00  0.00    +0.111 A 
ATOM     25  C   UNL     1      -7.395  -2.397  -3.605  0.00  0.00    +0.031 A 
ENDBRANCH   7  20
TORSDOF 4
