REMARK  Name = ZINC62396241
REMARK  8 active torsions:
REMARK  status: ('A' for Active; 'I' for Inactive)
REMARK    1  A    between atoms: C_1  and  C_2
REMARK    2  A    between atoms: C_2  and  C_3
REMARK    3  A    between atoms: C_6  and  C_21
REMARK    4  A    between atoms: C_7  and  C_11
REMARK    5  A    between atoms: C_13  and  C_20
REMARK    6  A    between atoms: C_15  and  C_19
REMARK    7  A    between atoms: C_16  and  O_17
REMARK    8  A    between atoms: O_17  and  C_18
REMARK                            x       y       z     vdW  Elec       q    Type
REMARK                         _______ _______ _______ _____ _____    ______ ____
ROOT
ATOM      1  C   UNL     1       0.731  -0.503   1.223  0.00  0.00    +0.102 A 
ATOM      2  N   UNL     1       1.280   0.179   2.182  0.00  0.00    -0.161 NA
ATOM      3  N   UNL     1       1.918  -0.449   3.247  0.00  0.00    -0.195 N 
ATOM      4  C   UNL     1       2.599  -0.093   4.419  0.00  0.00    +0.170 A 
ATOM      5  C   UNL     1       2.988  -1.280   5.035  0.00  0.00    +0.113 A 
ATOM      6  N   UNL     1       2.561  -2.292   4.271  0.00  0.00    -0.219 NA
ATOM      7  C   UNL     1       1.937  -1.816   3.227  0.00  0.00    +0.197 A 
ATOM      8  S   UNL     1       1.056  -2.185   1.727  0.00  0.00    -0.033 S 
ENDROOT
BRANCH   5   9
ATOM      9  C   UNL     1       3.738  -1.399   6.306  0.00  0.00    +0.045 A 
ATOM     10  C   UNL     1       4.118  -0.255   7.006  0.00  0.00    +0.017 A 
ATOM     11  C   UNL     1       4.816  -0.372   8.190  0.00  0.00    -0.049 A 
ATOM     12  C   UNL     1       5.142  -1.623   8.686  0.00  0.00    +0.010 A 
ATOM     13  C   UNL     1       4.771  -2.764   8.001  0.00  0.00    -0.008 A 
ATOM     14  C   UNL     1       4.064  -2.662   6.813  0.00  0.00    +0.132 A 
ATOM     15  C   UNL     1       5.130  -4.121   8.549  0.00  0.00    +0.047 C 
ATOM     16  C   UNL     1       5.226   0.865   8.945  0.00  0.00    +0.044 C 
BRANCH  14  17
ATOM     17  O   UNL     1       3.693  -3.783   6.142  0.00  0.00    -0.494 OA
ATOM     18  C   UNL     1       4.614  -4.295   5.176  0.00  0.00    +0.277 C 
ENDBRANCH  14  17
ENDBRANCH   5   9
BRANCH   1  20
ATOM     19  C   UNL     1      -0.019   1.526   0.010  0.00  0.00    +0.011 C 
ATOM     20  C   UNL     1       0.002  -0.004   0.002  0.00  0.00    +0.061 C 
ENDBRANCH   1  20
BRANCH   4  21
ATOM     21  C   UNL     1       2.849   1.235   4.892  0.00  0.00    +0.121 C 
ATOM     22  N   UNL     1       3.046   2.289   5.267  0.00  0.00    -0.189 NA
ENDBRANCH   4  21
TORSDOF 4
