REMARK  Name = ZINC12637857
REMARK  9 active torsions:
REMARK  status: ('A' for Active; 'I' for Inactive)
REMARK    1  A    between atoms: C_1  and  O_2
REMARK    2  A    between atoms: O_2  and  C_3
REMARK    3  A    between atoms: C_8  and  N_9
REMARK    4  A    between atoms: N_9  and  C_10
REMARK    5  A    between atoms: C_10  and  C_12
REMARK    6  A    between atoms: C_10  and  C_19
REMARK    7  A    between atoms: C_15  and  O_18
REMARK    8  A    between atoms: N_21  and  C_22
REMARK    9  A    between atoms: C_27  and  C_29
REMARK                            x       y       z     vdW  Elec       q    Type
REMARK                         _______ _______ _______ _____ _____    ______ ____
ROOT
ATOM      1  N   UNL     1       3.747  -1.932   0.084  0.00  0.00    -0.248 N 
ATOM      2  C   UNL     1       3.807  -0.593  -0.056  0.00  0.00    +0.252 C 
ATOM      3  O   UNL     1       4.881  -0.044  -0.210  0.00  0.00    -0.270 OA
ENDROOT
BRANCH   2   4
ATOM      4  C   UNL     1       2.567   0.208  -0.022  0.00  0.00    +0.041 A 
ATOM      5  C   UNL     1       1.627   0.002   0.990  0.00  0.00    +0.017 A 
ATOM      6  C   UNL     1       0.471   0.750   1.018  0.00  0.00    +0.050 A 
ATOM      7  C   UNL     1       0.235   1.712   0.043  0.00  0.00    +0.162 A 
ATOM      8  C   UNL     1       1.170   1.925  -0.967  0.00  0.00    +0.163 A 
ATOM      9  C   UNL     1       2.332   1.175  -1.002  0.00  0.00    +0.062 A 
ATOM     10  O   UNL     1       0.957   2.869  -1.925  0.00  0.00    -0.485 OA
ATOM     11  C   UNL     1      -0.385   3.343  -2.075  0.00  0.00    +0.270 C 
ATOM     12  C   UNL     1      -0.947   3.644  -0.679  0.00  0.00    +0.270 C 
ATOM     13  O   UNL     1      -0.917   2.433   0.086  0.00  0.00    -0.485 OA
ENDBRANCH   2   4
BRANCH   1  19
ATOM     14  C   UNL     1       1.951  -2.899   1.387  0.00  0.00    +0.141 A 
ATOM     15  C   UNL     1       0.720  -3.531   1.446  0.00  0.00    +0.047 A 
ATOM     16  C   UNL     1       0.048  -3.848   0.280  0.00  0.00    +0.004 A 
ATOM     17  C   UNL     1       0.599  -3.531  -0.948  0.00  0.00    +0.002 A 
ATOM     18  C   UNL     1       1.825  -2.896  -1.016  0.00  0.00    +0.027 A 
ATOM     19  C   UNL     1       2.505  -2.575   0.150  0.00  0.00    +0.079 A 
BRANCH  14  21
ATOM     20  C   UNL     1       1.987  -2.953   3.764  0.00  0.00    +0.277 C 
ATOM     21  O   UNL     1       2.615  -2.591   2.533  0.00  0.00    -0.493 OA
ENDBRANCH  14  21
ENDBRANCH   1  19
BRANCH   1  22
ATOM     22  C   UNL     1       4.983  -2.715   0.167  0.00  0.00    +0.198 C 
BRANCH  22  23
ATOM     23  C   UNL     1       4.953  -3.570   1.408  0.00  0.00    -0.018 A 
ATOM     24  C   UNL     1       5.803  -3.287   2.461  0.00  0.00    +0.009 A 
ATOM     25  C   UNL     1       5.774  -4.066   3.602  0.00  0.00    +0.046 A 
ATOM     26  C   UNL     1       4.900  -5.139   3.685  0.00  0.00    +0.117 A 
ATOM     27  C   UNL     1       4.052  -5.424   2.625  0.00  0.00    +0.046 A 
ATOM     28  C   UNL     1       4.080  -4.639   1.489  0.00  0.00    +0.009 A 
BRANCH  26  29
ATOM     29  O   UNL     1       4.874  -5.910   4.804  0.00  0.00    -0.507 OA
ATOM     30  H   UNL     1       5.482  -6.662   4.778  0.00  0.00    +0.292 HD
ENDBRANCH  26  29
ENDBRANCH  22  23
BRANCH  22  31
ATOM     31  C   UNL     1       5.100  -3.598  -1.049  0.00  0.00    +0.239 C 
ATOM     32  O   UNL     1       4.237  -3.575  -1.901  0.00  0.00    -0.273 OA
ATOM     33  N   UNL     1       6.164  -4.413  -1.189  0.00  0.00    -0.311 N 
ATOM     34  H   UNL     1       6.855  -4.431  -0.508  0.00  0.00    +0.149 HD
BRANCH  33  35
ATOM     35  C   UNL     1       6.279  -5.271  -2.371  0.00  0.00    +0.073 C 
ATOM     36  C   UNL     1       5.559  -6.613  -2.121  0.00  0.00    +0.022 C 
ATOM     37  C   UNL     1       6.453  -7.661  -2.830  0.00  0.00    +0.002 C 
ATOM     38  C   UNL     1       7.883  -7.143  -2.540  0.00  0.00    +0.002 C 
ATOM     39  C   UNL     1       7.756  -5.608  -2.637  0.00  0.00    +0.022 C 
ENDBRANCH  33  35
ENDBRANCH  22  31
ENDBRANCH   1  22
TORSDOF 8
