REMARK  Name = ZINC57488901
REMARK  8 active torsions:
REMARK  status: ('A' for Active; 'I' for Inactive)
REMARK    1  A    between atoms: C_1  and  C_2
REMARK    2  A    between atoms: C_6  and  N_9
REMARK    3  A    between atoms: C_7  and  C_8
REMARK    4  A    between atoms: C_10  and  C_12
REMARK    5  A    between atoms: C_12  and  S_13
REMARK    6  A    between atoms: S_13  and  C_14
REMARK    7  A    between atoms: N_23  and  C_24
REMARK    8  A    between atoms: C_29  and  C_30
REMARK                            x       y       z     vdW  Elec       q    Type
REMARK                         _______ _______ _______ _____ _____    ______ ____
ROOT
ATOM      1  C   UNL     1      -0.334  -7.412   4.943  0.00  0.00    +0.177 A 
ATOM      2  N   UNL     1      -0.331  -6.633   5.990  0.00  0.00    -0.222 NA
ATOM      3  C   UNL     1      -0.411  -7.128   7.261  0.00  0.00    +0.086 A 
ATOM      4  C   UNL     1      -0.420  -6.422   8.472  0.00  0.00    +0.036 A 
ATOM      5  C   UNL     1      -0.505  -7.086   9.645  0.00  0.00    +0.048 A 
ATOM      6  S   UNL     1      -0.584  -8.792   9.127  0.00  0.00    -0.090 S 
ATOM      7  C   UNL     1      -0.497  -8.527   7.375  0.00  0.00    +0.102 A 
ATOM      8  C   UNL     1      -0.499  -9.353   6.254  0.00  0.00    +0.274 A 
ATOM      9  O   UNL     1      -0.574 -10.565   6.369  0.00  0.00    -0.266 OA
ATOM     10  N   UNL     1      -0.422  -8.774   5.032  0.00  0.00    -0.255 N 
ENDROOT
BRANCH  10  11
ATOM     11  C   UNL     1      -0.426  -9.562   3.872  0.00  0.00    +0.055 A 
ATOM     12  C   UNL     1       0.770 -10.032   3.347  0.00  0.00    +0.029 A 
ATOM     13  C   UNL     1       0.764 -10.809   2.205  0.00  0.00    +0.040 A 
ATOM     14  C   UNL     1      -0.435 -11.118   1.584  0.00  0.00    +0.124 A 
ATOM     15  C   UNL     1      -1.629 -10.650   2.106  0.00  0.00    +0.043 A 
ATOM     16  C   UNL     1      -1.627  -9.878   3.251  0.00  0.00    -0.024 A 
ATOM     17  C   UNL     1      -2.927  -9.374   3.823  0.00  0.00    +0.046 C 
ATOM     18  F   UNL     1      -0.439 -11.878   0.466  0.00  0.00    -0.205 F 
ENDBRANCH  10  11
BRANCH   1  19
ATOM     19  S   UNL     1      -0.226  -6.677   3.345  0.00  0.00    -0.078 S 
BRANCH  19  20
ATOM     20  C   UNL     1      -0.129  -4.898   3.686  0.00  0.00    +0.173 C 
BRANCH  20  22
ATOM     21  N   UNL     1       0.052  -2.797   2.393  0.00  0.00    -0.285 N 
ATOM     22  C   UNL     1      -0.031  -4.143   2.385  0.00  0.00    +0.227 C 
ATOM     23  O   UNL     1      -0.028  -4.745   1.333  0.00  0.00    -0.275 OA
ATOM     24  H   UNL     1       0.130  -2.321   3.234  0.00  0.00    +0.155 HD
BRANCH  21  30
ATOM     25  C   UNL     1       1.206   1.236  -0.172  0.00  0.00    +0.044 C 
ATOM     26  C   UNL     1       0.577  -0.131  -0.084  0.00  0.00    -0.046 A 
ATOM     27  C   UNL     1      -0.027  -0.686  -1.198  0.00  0.00    +0.004 A 
ATOM     28  C   UNL     1      -0.605  -1.940  -1.122  0.00  0.00    +0.002 A 
ATOM     29  C   UNL     1      -0.580  -2.642   0.067  0.00  0.00    +0.023 A 
ATOM     30  C   UNL     1       0.026  -2.088   1.187  0.00  0.00    +0.037 A 
ATOM     31  C   UNL     1       0.610  -0.831   1.106  0.00  0.00    -0.026 A 
ATOM     32  C   UNL     1       1.274  -0.228   2.317  0.00  0.00    +0.046 C 
ENDBRANCH  21  30
ENDBRANCH  20  22
ENDBRANCH  19  20
ENDBRANCH   1  19
TORSDOF 5
