REMARK  Name = ZINC35965104
REMARK  8 active torsions:
REMARK  status: ('A' for Active; 'I' for Inactive)
REMARK    1  A    between atoms: C_1  and  C_2
REMARK    2  A    between atoms: C_2  and  N_3
REMARK    3  A    between atoms: C_6  and  C_11
REMARK    4  A    between atoms: C_15  and  C_17
REMARK    5  A    between atoms: N_20  and  C_22
REMARK    6  A    between atoms: C_22  and  C_24
REMARK    7  A    between atoms: C_22  and  C_30
REMARK    8  A    between atoms: N_32  and  C_33
REMARK                            x       y       z     vdW  Elec       q    Type
REMARK                         _______ _______ _______ _____ _____    ______ ____
ROOT
ATOM      1  N   UNL     1       1.752  -1.049  -2.726  0.00  0.00    -0.257 N 
ATOM      2  C   UNL     1       0.589  -1.268  -3.409  0.00  0.00    +0.042 C 
ATOM      3  C   UNL     1       0.446  -2.334  -4.221  0.00  0.00    +0.058 C 
ATOM      4  C   UNL     1       1.620  -3.284  -4.352  0.00  0.00    +0.142 C 
ATOM      5  N   UNL     1       2.829  -2.960  -3.575  0.00  0.00    -0.288 N 
ATOM      6  C   UNL     1       2.821  -1.851  -2.808  0.00  0.00    +0.307 C 
ATOM      7  O   UNL     1       3.816  -1.574  -2.166  0.00  0.00    -0.252 OA
ATOM      8  C   UNL     1      -0.837  -2.336  -4.806  0.00  0.00    +0.247 C 
ATOM      9  O   UNL     1      -1.238  -3.184  -5.582  0.00  0.00    -0.270 OA
ATOM     10  N   UNL     1      -1.560  -1.279  -4.394  0.00  0.00    -0.277 N 
ATOM     11  C   UNL     1      -0.716  -0.508  -3.470  0.00  0.00    +0.160 C 
ATOM     12  H   UNL     1       3.613  -3.529  -3.616  0.00  0.00    +0.151 HD
ENDROOT
BRANCH   4  13
ATOM     13  C   UNL     1       2.007  -3.346  -5.807  0.00  0.00    -0.022 A 
ATOM     14  C   UNL     1       2.783  -2.344  -6.360  0.00  0.00    +0.006 A 
ATOM     15  C   UNL     1       3.138  -2.402  -7.694  0.00  0.00    +0.001 A 
ATOM     16  C   UNL     1       2.718  -3.462  -8.476  0.00  0.00    +0.003 A 
ATOM     17  C   UNL     1       1.944  -4.465  -7.923  0.00  0.00    -0.050 A 
ATOM     18  C   UNL     1       1.592  -4.409  -6.587  0.00  0.00    +0.009 A 
ATOM     19  C   UNL     1       1.486  -5.620  -8.775  0.00  0.00    +0.044 C 
ENDBRANCH   4  13
BRANCH   1  21
ATOM     20  C   UNL     1       2.363   1.318  -2.669  0.00  0.00    +0.025 C 
ATOM     21  C   UNL     1       1.836   0.131  -1.861  0.00  0.00    +0.111 C 
ENDBRANCH   1  21
BRANCH  10  22
ATOM     22  C   UNL     1      -2.932  -0.957  -4.793  0.00  0.00    +0.193 C 
BRANCH  22  23
ATOM     23  C   UNL     1      -2.911   0.142  -5.824  0.00  0.00    -0.018 A 
ATOM     24  C   UNL     1      -2.291   1.345  -5.539  0.00  0.00    +0.006 A 
ATOM     25  C   UNL     1      -2.271   2.353  -6.485  0.00  0.00    +0.000 A 
ATOM     26  C   UNL     1      -2.871   2.159  -7.715  0.00  0.00    +0.000 A 
ATOM     27  C   UNL     1      -3.489   0.956  -8.000  0.00  0.00    +0.000 A 
ATOM     28  C   UNL     1      -3.506  -0.054  -7.056  0.00  0.00    +0.006 A 
ENDBRANCH  22  23
BRANCH  22  29
ATOM     29  C   UNL     1      -3.712  -0.500  -3.588  0.00  0.00    +0.238 C 
ATOM     30  O   UNL     1      -3.174  -0.448  -2.502  0.00  0.00    -0.273 OA
ATOM     31  N   UNL     1      -5.007  -0.148  -3.716  0.00  0.00    -0.311 N 
ATOM     32  H   UNL     1      -5.437  -0.189  -4.584  0.00  0.00    +0.149 HD
BRANCH  31  33
ATOM     33  C   UNL     1      -5.764   0.296  -2.543  0.00  0.00    +0.073 C 
ATOM     34  C   UNL     1      -7.183  -0.249  -2.370  0.00  0.00    +0.024 C 
ATOM     35  C   UNL     1      -6.969   1.208  -2.785  0.00  0.00    +0.024 C 
ENDBRANCH  31  33
ENDBRANCH  22  29
ENDBRANCH  10  22
TORSDOF 6
