REMARK  Name = ZINC08712919
REMARK  9 active torsions:
REMARK  status: ('A' for Active; 'I' for Inactive)
REMARK    1  A    between atoms: C_1  and  C_2
REMARK    2  A    between atoms: C_7  and  C_8
REMARK    3  A    between atoms: C_8  and  N_9
REMARK    4  A    between atoms: N_9  and  C_10
REMARK    5  A    between atoms: C_10  and  C_12
REMARK    6  A    between atoms: C_10  and  C_19
REMARK    7  A    between atoms: N_21  and  C_22
REMARK    8  A    between atoms: C_31  and  C_33
REMARK    9  A    between atoms: C_33  and  N_34
REMARK                            x       y       z     vdW  Elec       q    Type
REMARK                         _______ _______ _______ _____ _____    ______ ____
ROOT
ATOM      1  N   UNL     1       4.144   2.819  -2.420  0.00  0.00    -0.280 N 
ATOM      2  C   UNL     1       2.907   2.876  -2.951  0.00  0.00    +0.235 C 
ATOM      3  O   UNL     1       2.712   3.506  -3.969  0.00  0.00    -0.274 OA
ENDROOT
BRANCH   1   4
ATOM      4  C   UNL     1       4.396   1.992  -1.237  0.00  0.00    +0.144 C 
BRANCH   4  11
ATOM      5  C   UNL     1       3.383   4.192   0.337  0.00  0.00    +0.044 C 
ATOM      6  C   UNL     1       4.828   3.782   0.458  0.00  0.00    -0.046 A 
ATOM      7  C   UNL     1       5.668   4.458   1.323  0.00  0.00    +0.003 A 
ATOM      8  C   UNL     1       6.993   4.081   1.435  0.00  0.00    +0.000 A 
ATOM      9  C   UNL     1       7.478   3.028   0.682  0.00  0.00    +0.000 A 
ATOM     10  C   UNL     1       6.637   2.349  -0.179  0.00  0.00    +0.005 A 
ATOM     11  C   UNL     1       5.313   2.729  -0.295  0.00  0.00    -0.027 A 
ENDBRANCH   4  11
ENDBRANCH   1   4
BRANCH   1  12
ATOM     12  C   UNL     1       5.237   3.584  -3.025  0.00  0.00    +0.193 C 
BRANCH  12  13
ATOM     13  C   UNL     1       5.668   2.918  -4.306  0.00  0.00    -0.018 A 
ATOM     14  C   UNL     1       4.769   2.149  -5.021  0.00  0.00    +0.009 A 
ATOM     15  C   UNL     1       5.161   1.542  -6.199  0.00  0.00    +0.038 A 
ATOM     16  C   UNL     1       6.459   1.694  -6.657  0.00  0.00    +0.123 A 
ATOM     17  C   UNL     1       7.360   2.460  -5.937  0.00  0.00    +0.038 A 
ATOM     18  C   UNL     1       6.964   3.071  -4.763  0.00  0.00    +0.009 A 
ATOM     19  F   UNL     1       6.846   1.096  -7.804  0.00  0.00    -0.205 F 
ENDBRANCH  12  13
BRANCH  12  20
ATOM     20  C   UNL     1       4.766   4.985  -3.321  0.00  0.00    +0.242 C 
ATOM     21  O   UNL     1       3.702   5.371  -2.886  0.00  0.00    -0.273 OA
ATOM     22  N   UNL     1       5.527   5.808  -4.069  0.00  0.00    -0.284 N 
ATOM     23  H   UNL     1       6.343   5.477  -4.477  0.00  0.00    +0.155 HD
BRANCH  22  24
ATOM     24  C   UNL     1       5.140   7.141  -4.258  0.00  0.00    +0.037 A 
ATOM     25  C   UNL     1       4.523   7.837  -3.228  0.00  0.00    +0.027 A 
ATOM     26  C   UNL     1       4.144   9.153  -3.411  0.00  0.00    +0.051 A 
ATOM     27  C   UNL     1       4.371   9.780  -4.626  0.00  0.00    +0.166 A 
ATOM     28  C   UNL     1       4.986   9.082  -5.663  0.00  0.00    +0.168 A 
ATOM     29  C   UNL     1       5.369   7.764  -5.477  0.00  0.00    +0.072 A 
ATOM     30  O   UNL     1       5.094   9.911  -6.743  0.00  0.00    -0.453 OA
ATOM     31  C   UNL     1       4.173  10.989  -6.493  0.00  0.00    +0.466 C 
ATOM     32  O   UNL     1       4.094  11.046  -5.056  0.00  0.00    -0.453 OA
ENDBRANCH  22  24
ENDBRANCH  12  20
ENDBRANCH   1  12
BRANCH   2  33
ATOM     33  C   UNL     1       1.765   2.156  -2.280  0.00  0.00    +0.210 C 
BRANCH  33  34
ATOM     34  N   UNL     1       0.540   2.350  -3.060  0.00  0.00    -0.255 N 
ATOM     35  C   UNL     1       0.123   1.508  -4.088  0.00  0.00    +0.048 A 
ATOM     36  C   UNL     1       0.689   0.355  -4.617  0.00  0.00    +0.024 A 
ATOM     37  C   UNL     1       0.066  -0.312  -5.655  0.00  0.00    +0.002 A 
ATOM     38  C   UNL     1      -1.124   0.159  -6.185  0.00  0.00    +0.001 A 
ATOM     39  C   UNL     1      -1.707   1.299  -5.670  0.00  0.00    +0.014 A 
ATOM     40  C   UNL     1      -1.087   1.980  -4.623  0.00  0.00    +0.048 A 
ATOM     41  C   UNL     1      -1.433   3.199  -3.869  0.00  0.00    +0.250 C 
ATOM     42  O   UNL     1      -2.405   3.911  -4.020  0.00  0.00    -0.282 OA
ATOM     43  C   UNL     1      -0.322   3.364  -2.875  0.00  0.00    +0.292 C 
ATOM     44  O   UNL     1      -0.221   4.251  -2.054  0.00  0.00    -0.266 OA
ENDBRANCH  33  34
ENDBRANCH   2  33
TORSDOF 8
