REMARK  Name = ZINC09577355
REMARK  9 active torsions:
REMARK  status: ('A' for Active; 'I' for Inactive)
REMARK    1  A    between atoms: C_1  and  C_2
REMARK    2  A    between atoms: C_2  and  C_3
REMARK    3  A    between atoms: C_3  and  C_4
REMARK    4  A    between atoms: C_4  and  N_5
REMARK    5  A    between atoms: C_14  and  C_16
REMARK    6  A    between atoms: N_18  and  C_19
REMARK    7  A    between atoms: C_19  and  C_20
REMARK    8  A    between atoms: C_20  and  C_22
REMARK    9  A    between atoms: C_20  and  N_58
REMARK                            x       y       z     vdW  Elec       q    Type
REMARK                         _______ _______ _______ _____ _____    ______ ____
ROOT
ATOM      1  C   UNL     1      -0.542   1.978  -3.563  0.00  0.00    +0.265 C 
ATOM      2  O   UNL     1      -1.570   2.627  -3.567  0.00  0.00    -0.268 OA
ATOM      3  N   UNL     1      -0.057   1.491  -2.404  0.00  0.00    -0.311 N 
ATOM      4  H   UNL     1       0.763   0.973  -2.400  0.00  0.00    +0.149 HD
ENDROOT
BRANCH   1  14
ATOM      5  N   UNL     1       1.965   0.759  -5.883  0.00  0.00    -0.228 N 
ATOM      6  C   UNL     1       1.617   1.171  -7.119  0.00  0.00    +0.275 A 
ATOM      7  O   UNL     1       2.302   0.891  -8.086  0.00  0.00    -0.266 OA
ATOM      8  C   UNL     1       0.391   1.968  -7.272  0.00  0.00    +0.050 A 
ATOM      9  C   UNL     1      -0.054   2.440  -8.503  0.00  0.00    +0.014 A 
ATOM     10  C   UNL     1      -1.216   3.181  -8.562  0.00  0.00    +0.001 A 
ATOM     11  C   UNL     1      -1.940   3.458  -7.410  0.00  0.00    +0.001 A 
ATOM     12  C   UNL     1      -1.515   2.999  -6.181  0.00  0.00    +0.011 A 
ATOM     13  C   UNL     1      -0.349   2.245  -6.100  0.00  0.00    +0.020 A 
ATOM     14  C   UNL     1       0.176   1.723  -4.828  0.00  0.00    +0.154 A 
ATOM     15  N   UNL     1       1.285   1.024  -4.832  0.00  0.00    -0.163 NA
BRANCH   5  16
ATOM     16  C   UNL     1       3.187  -0.035  -5.736  0.00  0.00    +0.147 C 
BRANCH  16  17
ATOM     17  C   UNL     1       4.376   0.898  -5.496  0.00  0.00    +0.023 C 
BRANCH  17  19
ATOM     18  C   UNL     1       6.841   1.001  -5.102  0.00  0.00    +0.004 C 
ATOM     19  C   UNL     1       5.652   0.069  -5.342  0.00  0.00    -0.002 C 
ENDBRANCH  17  19
ENDBRANCH  16  17
ENDBRANCH   5  16
ENDBRANCH   1  14
BRANCH   3  20
ATOM     20  C   UNL     1      -0.769   1.743  -1.148  0.00  0.00    +0.097 C 
BRANCH  20  21
ATOM     21  C   UNL     1      -0.013   1.086   0.008  0.00  0.00    +0.016 C 
BRANCH  21  26
ATOM     22  C   UNL     1       1.433   3.045  -0.009  0.00  0.00    -0.078 C 
ATOM     23  C   UNL     1       2.853   3.356   0.526  0.00  0.00    -0.020 C 
ATOM     24  C   UNL     1       3.054   2.281   1.619  0.00  0.00    -0.020 C 
ATOM     25  C   UNL     1       2.068   1.153   1.260  0.00  0.00    -0.078 C 
ATOM     26  N   UNL     1       1.399   1.574   0.028  0.00  0.00    +0.387 N 
ATOM     27  H   UNL     1       1.898   1.195  -0.785  0.00  0.00    -0.081 HD
ENDBRANCH  21  26
BRANCH  21  28
ATOM     28  C   UNL     1      -0.676   1.448   1.312  0.00  0.00    +0.093 A 
ATOM     29  C   UNL     1      -1.424   0.625   2.069  0.00  0.00    +0.043 A 
ATOM     30  C   UNL     1      -1.841   1.371   3.195  0.00  0.00    +0.041 A 
ATOM     31  C   UNL     1      -1.330   2.607   3.055  0.00  0.00    +0.195 A 
ATOM     32  O   UNL     1      -0.625   2.648   1.912  0.00  0.00    -0.469 OA
ENDBRANCH  21  28
ENDBRANCH  20  21
ENDBRANCH   3  20
TORSDOF 8
