REMARK  Name = ZINC43423860
REMARK  5 active torsions:
REMARK  status: ('A' for Active; 'I' for Inactive)
REMARK    1  A    between atoms: C_1  and  C_2
REMARK    2  A    between atoms: C_2  and  C_4
REMARK    3  A    between atoms: C_2  and  N_25
REMARK    4  A    between atoms: C_4  and  C_6
REMARK    5  A    between atoms: C_4  and  N_13
REMARK                            x       y       z     vdW  Elec       q    Type
REMARK                         _______ _______ _______ _____ _____    ______ ____
ROOT
ATOM      1  C   UNL     1       0.742  -0.511   1.242  0.00  0.00    +0.073 C 
ENDROOT
BRANCH   1   2
ATOM      2  N   UNL     1       0.021   0.171   2.325  0.00  0.00    -0.289 NA
ATOM      3  C   UNL     1      -1.377  -0.280   2.393  0.00  0.00    +0.113 C 
ATOM      4  C   UNL     1      -2.107   0.485   3.499  0.00  0.00    +0.175 C 
ATOM      5  O   UNL     1      -1.415   0.306   4.739  0.00  0.00    -0.374 OA
ATOM      6  C   UNL     1      -0.056   0.743   4.701  0.00  0.00    +0.135 C 
ATOM      7  C   UNL     1       0.691  -0.038   3.615  0.00  0.00    +0.086 C 
ATOM      8  C   UNL     1       2.137   0.455   3.544  0.00  0.00    +0.021 C 
ATOM      9  C   UNL     1       2.817   0.218   4.895  0.00  0.00    +0.002 C 
ATOM     10  C   UNL     1       2.067   0.979   5.989  0.00  0.00    +0.003 C 
ATOM     11  C   UNL     1       0.617   0.494   6.051  0.00  0.00    +0.033 C 
ENDBRANCH   1   2
BRANCH   1  12
ATOM     12  C   UNL     1       1.974   0.280   0.883  0.00  0.00    -0.032 A 
ATOM     13  C   UNL     1       1.937   1.661   0.900  0.00  0.00    +0.006 A 
ATOM     14  C   UNL     1       3.067   2.387   0.571  0.00  0.00    +0.020 A 
ATOM     15  C   UNL     1       4.234   1.730   0.224  0.00  0.00    +0.041 A 
ATOM     16  C   UNL     1       4.270   0.347   0.206  0.00  0.00    +0.020 A 
ATOM     17  C   UNL     1       3.141  -0.377   0.541  0.00  0.00    +0.006 A 
ATOM     18 CL   UNL     1       5.653   2.641  -0.190  0.00  0.00    -0.084 Cl
ENDBRANCH   1  12
BRANCH   1  20
ATOM     19  C   UNL     1      -0.676   0.767  -0.370  0.00  0.00    -0.012 C 
ATOM     20  C   UNL     1      -0.167  -0.623   0.016  0.00  0.00    -0.056 C 
BRANCH  20  21
ATOM     21  N   UNL     1       0.590  -1.196  -1.105  0.00  0.00    +0.381 N 
ATOM     22  H   UNL     1       1.374  -0.598  -1.321  0.00  0.00    -0.090 HD
ATOM     23  H   UNL     1       0.926  -2.112  -0.850  0.00  0.00    -0.090 HD
ATOM     24  H   UNL     1      -0.009  -1.270  -1.913  0.00  0.00    -0.090 HD
ENDBRANCH  20  21
ENDBRANCH   1  20
TORSDOF 4
