REMARK  Name = ZINC64435903
REMARK  7 active torsions:
REMARK  status: ('A' for Active; 'I' for Inactive)
REMARK    1  A    between atoms: C_1  and  C_2
REMARK    2  A    between atoms: N_5  and  C_8
REMARK    3  A    between atoms: N_13  and  C_15
REMARK    4  A    between atoms: C_15  and  C_16
REMARK    5  A    between atoms: N_18  and  C_19
REMARK    6  A    between atoms: C_19  and  C_20
REMARK    7  A    between atoms: C_20  and  C_21
REMARK                            x       y       z     vdW  Elec       q    Type
REMARK                         _______ _______ _______ _____ _____    ______ ____
ROOT
ATOM      1  C   UNL     1      -0.207  -3.762   6.246  0.00  0.00    +0.232 C 
ATOM      2  O   UNL     1      -0.974  -2.862   5.975  0.00  0.00    -0.274 OA
ATOM      3  N   UNL     1       0.445  -3.761   7.426  0.00  0.00    -0.314 N 
ATOM      4  H   UNL     1       1.058  -4.480   7.642  0.00  0.00    +0.149 HD
ENDROOT
BRANCH   1   5
ATOM      5  C   UNL     1       0.018  -4.882   5.263  0.00  0.00    +0.226 C 
BRANCH   5  11
ATOM      6  C   UNL     1      -1.078  -3.489   1.976  0.00  0.00    +0.099 C 
ATOM      7  C   UNL     1      -2.344  -3.868   1.889  0.00  0.00    +0.023 C 
ATOM      8  C   UNL     1      -2.940  -4.876   2.828  0.00  0.00    +0.128 C 
ATOM      9  C   UNL     1      -2.080  -5.062   4.044  0.00  0.00    +0.236 C 
ATOM     10  O   UNL     1      -2.551  -5.592   5.028  0.00  0.00    -0.274 OA
ATOM     11  N   UNL     1      -0.799  -4.654   4.068  0.00  0.00    -0.212 N 
ATOM     12  N   UNL     1      -0.242  -4.017   2.950  0.00  0.00    -0.249 N 
ATOM     13  H   UNL     1       0.721  -3.941   2.860  0.00  0.00    +0.172 HD
BRANCH   6  18
ATOM     14  C   UNL     1       1.317   1.195   0.409  0.00  0.00    +0.007 C 
ATOM     15  C   UNL     1       0.648  -0.164   0.195  0.00  0.00    -0.011 C 
ATOM     16  C   UNL     1      -0.760  -0.139   0.794  0.00  0.00    +0.022 C 
ATOM     17  C   UNL     1      -1.440  -1.489   0.547  0.00  0.00    +0.106 C 
ATOM     18  N   UNL     1      -0.578  -2.556   1.075  0.00  0.00    -0.318 N 
ATOM     19  C   UNL     1       0.822  -2.617   0.633  0.00  0.00    +0.106 C 
ATOM     20  C   UNL     1       1.476  -1.254   0.879  0.00  0.00    +0.022 C 
ENDBRANCH   6  18
ENDBRANCH   5  11
ENDBRANCH   1   5
BRANCH   3  21
ATOM     21  C   UNL     1       0.227  -2.672   8.381  0.00  0.00    +0.108 C 
BRANCH  21  22
ATOM     22  C   UNL     1       1.080  -2.910   9.629  0.00  0.00    +0.052 C 
BRANCH  22  23
ATOM     23  C   UNL     1       0.855  -1.790  10.612  0.00  0.00    -0.040 C 
ATOM     24  C   UNL     1      -0.009  -1.782  11.652  0.00  0.00    +0.000 A 
ATOM     25  C   UNL     1      -0.963  -2.775  12.159  0.00  0.00    +0.030 A 
ATOM     26  C   UNL     1      -1.710  -2.472  13.246  0.00  0.00    +0.042 A 
ATOM     27  C   UNL     1      -1.596  -1.235  13.898  0.00  0.00    +0.022 A 
ATOM     28  C   UNL     1      -0.742  -0.273  13.490  0.00  0.00    +0.027 A 
ATOM     29  C   UNL     1       0.093  -0.485  12.358  0.00  0.00    +0.043 A 
ATOM     30  N   UNL     1       0.985   0.280  11.777  0.00  0.00    -0.380 N 
ATOM     31  C   UNL     1       1.556  -0.450  10.639  0.00  0.00    +0.144 C 
ATOM     32 CL   UNL     1      -2.840  -3.645  13.850  0.00  0.00    -0.084 Cl
ATOM     33  H   UNL     1       1.230   1.176  12.055  0.00  0.00    +0.160 HD
ENDBRANCH  22  23
ENDBRANCH  21  22
ENDBRANCH   3  21
TORSDOF 6
