REMARK  Name = ZINC38665849
REMARK  10 active torsions:
REMARK  status: ('A' for Active; 'I' for Inactive)
REMARK    1  A    between atoms: C_1  and  N_2
REMARK    2  A    between atoms: N_2  and  C_3
REMARK    3  A    between atoms: N_2  and  C_4
REMARK    4  A    between atoms: C_7  and  C_10
REMARK    5  A    between atoms: C_10  and  C_12
REMARK    6  A    between atoms: C_10  and  N_29
REMARK    7  A    between atoms: C_12  and  N_13
REMARK    8  A    between atoms: C_14  and  C_16
REMARK    9  A    between atoms: N_21  and  C_23
REMARK   10  A    between atoms: N_32  and  C_35
REMARK                            x       y       z     vdW  Elec       q    Type
REMARK                         _______ _______ _______ _____ _____    ______ ____
ROOT
ATOM      1  C   UNL     1       0.066  -2.801  -4.883  0.00  0.00    +0.104 C 
ENDROOT
BRANCH   1   5
ATOM      2  C   UNL     1       0.111  -1.230  -0.909  0.00  0.00    +0.029 A 
ATOM      3  C   UNL     1       0.145  -2.604  -1.115  0.00  0.00    +0.023 A 
ATOM      4  C   UNL     1       0.130  -3.108  -2.401  0.00  0.00    +0.007 A 
ATOM      5  C   UNL     1       0.082  -2.247  -3.482  0.00  0.00    -0.029 A 
ATOM      6  C   UNL     1       0.047  -0.880  -3.280  0.00  0.00    +0.007 A 
ATOM      7  C   UNL     1       0.057  -0.369  -1.997  0.00  0.00    +0.023 A 
BRANCH   2   9
ATOM      8  C   UNL     1       0.084   0.731   0.606  0.00  0.00    +0.129 C 
ATOM      9  N   UNL     1       0.126  -0.717   0.390  0.00  0.00    -0.336 N 
ATOM     10  C   UNL     1       0.184  -1.627   1.537  0.00  0.00    +0.129 C 
ENDBRANCH   2   9
ENDBRANCH   1   5
BRANCH   1  11
ATOM     11  N   UNL     1       0.914  -1.969  -5.748  0.00  0.00    -0.291 NA
ATOM     12  C   UNL     1       0.794  -2.378  -7.154  0.00  0.00    +0.104 C 
ATOM     13  C   UNL     1       1.546  -1.379  -8.039  0.00  0.00    +0.120 C 
ATOM     14  N   UNL     1       2.925  -1.260  -7.542  0.00  0.00    -0.327 N 
ATOM     15  C   UNL     1       3.127  -0.987  -6.111  0.00  0.00    +0.120 C 
ATOM     16  C   UNL     1       2.313  -2.001  -5.301  0.00  0.00    +0.104 C 
BRANCH  14  17
ATOM     17  C   UNL     1       4.013  -1.403  -8.405  0.00  0.00    +0.030 A 
ATOM     18  C   UNL     1       3.804  -1.545  -9.771  0.00  0.00    +0.023 A 
ATOM     19  C   UNL     1       4.883  -1.686 -10.622  0.00  0.00    +0.002 A 
ATOM     20  C   UNL     1       6.170  -1.686 -10.116  0.00  0.00    +0.000 A 
ATOM     21  C   UNL     1       6.381  -1.545  -8.757  0.00  0.00    +0.002 A 
ATOM     22  C   UNL     1       5.308  -1.398  -7.901  0.00  0.00    +0.023 A 
ENDBRANCH  14  17
ENDBRANCH   1  11
BRANCH   1  23
ATOM     23  C   UNL     1      -1.367  -2.796  -5.418  0.00  0.00    +0.127 C 
BRANCH  23  24
ATOM     24  N   UNL     1      -2.201  -3.671  -4.589  0.00  0.00    -0.313 N 
ATOM     25  C   UNL     1      -3.485  -3.900  -4.930  0.00  0.00    +0.218 C 
ATOM     26  O   UNL     1      -3.950  -3.381  -5.923  0.00  0.00    -0.275 OA
ATOM     27  H   UNL     1      -1.828  -4.085  -3.795  0.00  0.00    +0.149 HD
BRANCH  25  28
ATOM     28  C   UNL     1      -4.341  -4.799  -4.077  0.00  0.00    +0.101 C 
ATOM     29  C   UNL     1      -3.805  -6.249  -4.090  0.00  0.00    +0.110 C 
ATOM     30  C   UNL     1      -5.052  -7.106  -4.082  0.00  0.00    +0.221 C 
ATOM     31  O   UNL     1      -5.081  -8.288  -3.809  0.00  0.00    -0.275 OA
ATOM     32  N   UNL     1      -6.122  -6.368  -4.420  0.00  0.00    -0.271 N 
ATOM     33  C   UNL     1      -5.745  -4.976  -4.698  0.00  0.00    +0.127 C 
BRANCH  32  34
ATOM     34  C   UNL     1      -7.429  -6.862  -4.498  0.00  0.00    +0.036 A 
ATOM     35  C   UNL     1      -7.673  -8.217  -4.321  0.00  0.00    +0.023 A 
ATOM     36  C   UNL     1      -8.964  -8.701  -4.399  0.00  0.00    +0.002 A 
ATOM     37  C   UNL     1     -10.014  -7.838  -4.652  0.00  0.00    +0.000 A 
ATOM     38  C   UNL     1      -9.775  -6.487  -4.829  0.00  0.00    +0.002 A 
ATOM     39  C   UNL     1      -8.487  -5.996  -4.746  0.00  0.00    +0.023 A 
ENDBRANCH  32  34
ENDBRANCH  25  28
ENDBRANCH  23  24
ENDBRANCH   1  23
TORSDOF 8
