REMARK  Name = ZINC08677382
REMARK  10 active torsions:
REMARK  status: ('A' for Active; 'I' for Inactive)
REMARK    1  A    between atoms: C_1  and  C_2
REMARK    2  A    between atoms: C_7  and  C_13
REMARK    3  A    between atoms: C_8  and  O_12
REMARK    4  A    between atoms: C_13  and  C_15
REMARK    5  A    between atoms: C_13  and  N_64
REMARK    6  A    between atoms: N_19  and  C_20
REMARK    7  A    between atoms: C_25  and  C_26
REMARK    8  A    between atoms: C_25  and  N_64
REMARK    9  A    between atoms: C_31  and  C_32
REMARK   10  A    between atoms: C_31  and  N_64
REMARK                            x       y       z     vdW  Elec       q    Type
REMARK                         _______ _______ _______ _____ _____    ______ ____
ROOT
ATOM      1  C   UNL     1      -3.868   3.286   6.924  0.00  0.00    +0.040 C 
ENDROOT
BRANCH   1   8
ATOM      2  C   UNL     1      -7.040   2.568  -0.305  0.00  0.00    +0.044 C 
ATOM      3  C   UNL     1      -6.633   2.817   1.125  0.00  0.00    -0.048 A 
ATOM      4  C   UNL     1      -7.495   3.511   1.971  0.00  0.00    +0.004 A 
ATOM      5  C   UNL     1      -7.158   3.748   3.269  0.00  0.00    +0.010 A 
ATOM      6  C   UNL     1      -5.922   3.296   3.759  0.00  0.00    +0.001 A 
ATOM      7  C   UNL     1      -5.536   3.527   5.095  0.00  0.00    +0.017 A 
ATOM      8  C   UNL     1      -4.322   3.062   5.505  0.00  0.00    +0.008 A 
ATOM      9  C   UNL     1      -3.497   2.376   4.605  0.00  0.00    +0.215 A 
ATOM     10  N   UNL     1      -3.863   2.163   3.359  0.00  0.00    -0.213 NA
ATOM     11  C   UNL     1      -5.042   2.595   2.899  0.00  0.00    +0.075 A 
ATOM     12  C   UNL     1      -5.427   2.366   1.567  0.00  0.00    +0.031 A 
BRANCH   9  13
ATOM     13  O   UNL     1      -2.292   1.919   5.028  0.00  0.00    -0.492 OA
ATOM     14  H   UNL     1      -1.569   2.550   4.910  0.00  0.00    +0.294 HD
ENDBRANCH   9  13
ENDBRANCH   1   8
BRANCH   1  15
ATOM     15  C   UNL     1      -3.159   4.612   7.022  0.00  0.00    +0.143 A 
ATOM     16  N   UNL     1      -3.656   5.788   6.724  0.00  0.00    -0.115 NA
ATOM     17  N   UNL     1      -2.744   6.672   6.942  0.00  0.00    -0.023 NA
ATOM     18  N   UNL     1      -1.676   6.089   7.363  0.00  0.00    -0.044 NA
ATOM     19  N   UNL     1      -1.892   4.819   7.425  0.00  0.00    -0.227 N 
BRANCH  19  20
ATOM     20  C   UNL     1      -0.938   3.793   7.854  0.00  0.00    +0.111 C 
ATOM     21  C   UNL     1      -0.376   4.144   9.248  0.00  0.00    +0.027 C 
ATOM     22  C   UNL     1       1.108   3.704   9.180  0.00  0.00    +0.002 C 
ATOM     23  C   UNL     1       1.513   4.085   7.734  0.00  0.00    +0.002 C 
ATOM     24  C   UNL     1       0.263   3.755   6.893  0.00  0.00    +0.027 C 
ENDBRANCH  19  20
ENDBRANCH   1  15
BRANCH   1  25
ATOM     25  N   UNL     1      -5.056   3.301   7.804  0.00  0.00    +0.397 N 
ATOM     26  H   UNL     1      -5.811   3.814   7.335  0.00  0.00    -0.079 HD
BRANCH  25  27
ATOM     27  C   UNL     1      -5.507   1.919   8.069  0.00  0.00    -0.001 C 
BRANCH  27  28
ATOM     28  C   UNL     1      -6.264   1.420   6.866  0.00  0.00    +0.089 A 
ATOM     29  C   UNL     1      -5.771   0.625   5.899  0.00  0.00    +0.042 A 
ATOM     30  C   UNL     1      -6.817   0.407   4.974  0.00  0.00    +0.041 A 
ATOM     31  C   UNL     1      -7.888   1.081   5.430  0.00  0.00    +0.195 A 
ATOM     32  O   UNL     1      -7.549   1.688   6.580  0.00  0.00    -0.470 OA
ENDBRANCH  27  28
ENDBRANCH  25  27
BRANCH  25  33
ATOM     33  C   UNL     1      -4.733   3.980   9.077  0.00  0.00    -0.034 C 
BRANCH  33  34
ATOM     34  C   UNL     1      -5.003   5.454   8.916  0.00  0.00    -0.027 A 
ATOM     35  C   UNL     1      -6.104   6.072   8.424  0.00  0.00    +0.009 A 
ATOM     36  C   UNL     1      -6.132   7.452   8.372  0.00  0.00    +0.008 A 
ATOM     37  C   UNL     1      -5.056   8.148   8.814  0.00  0.00    +0.045 A 
ATOM     38  S   UNL     1      -3.957   6.840   9.332  0.00  0.00    -0.103 S 
ENDBRANCH  33  34
ENDBRANCH  25  33
ENDBRANCH   1  25
TORSDOF 9
