REMARK  Name = ZINC02465997
REMARK  6 active torsions:
REMARK  status: ('A' for Active; 'I' for Inactive)
REMARK    1  A    between atoms: C_1  and  C_2
REMARK    2  A    between atoms: C_2  and  C_3
REMARK    3  A    between atoms: C_4  and  C_26
REMARK    4  A    between atoms: C_6  and  N_10
REMARK    5  A    between atoms: C_7  and  C_8
REMARK    6  A    between atoms: C_11  and  C_13
REMARK                            x       y       z     vdW  Elec       q    Type
REMARK                         _______ _______ _______ _____ _____    ______ ____
ROOT
ATOM      1  N   UNL     1       0.609   4.099   0.018  0.00  0.00    -0.274 N 
ATOM      2  C   UNL     1       1.572   3.155   0.004  0.00  0.00    +0.271 C 
ATOM      3  O   UNL     1       2.742   3.482  -0.006  0.00  0.00    -0.268 OA
ATOM      4  H   UNL     1      -0.325   3.838   0.026  0.00  0.00    +0.156 HD
ENDROOT
BRANCH   2   5
ATOM      5  C   UNL     1       1.202   1.719  -0.000  0.00  0.00    +0.172 A 
ATOM      6  C   UNL     1       2.075   0.624  -0.014  0.00  0.00    +0.032 A 
ATOM      7  C   UNL     1       1.243  -0.472   0.001  0.00  0.00    +0.171 A 
ATOM      8  O   UNL     1       0.002  -0.004   0.002  0.00  0.00    -0.354 OA
ATOM      9  N   UNL     1      -0.014   1.213   0.009  0.00  0.00    -0.073 NA
ATOM     10  C   UNL     1       1.813  -1.831  -0.007  0.00  0.00    +0.023 A 
ATOM     11  C   UNL     1       1.044  -2.952  -0.294  0.00  0.00    +0.012 A 
ATOM     12  C   UNL     1       1.637  -4.199  -0.316  0.00  0.00    +0.001 A 
ATOM     13  C   UNL     1       2.990  -4.325  -0.054  0.00  0.00    +0.000 A 
ATOM     14  C   UNL     1       3.756  -3.212   0.243  0.00  0.00    +0.004 A 
ATOM     15  C   UNL     1       3.177  -1.959   0.284  0.00  0.00    -0.036 A 
ATOM     16  C   UNL     1       4.001  -0.765   0.681  0.00  0.00    +0.040 C 
ATOM     17  C   UNL     1       3.568   0.510  -0.043  0.00  0.00    +0.046 C 
ENDBRANCH   2   5
BRANCH   1  21
ATOM     18  C   UNL     1       0.749   7.845   0.038  0.00  0.00    -0.018 A 
ATOM     19  C   UNL     1       2.095   7.870   0.025  0.00  0.00    -0.007 A 
ATOM     20  S   UNL     1       2.537   6.145   0.018  0.00  0.00    -0.077 S 
ATOM     21  C   UNL     1       0.955   5.442   0.022  0.00  0.00    +0.090 A 
ATOM     22  C   UNL     1       0.115   6.549   0.036  0.00  0.00    +0.084 A 
ATOM     23  C   UNL     1       3.008   9.070   0.023  0.00  0.00    +0.052 C 
BRANCH  18  25
ATOM     24  C   UNL     1      -0.321   9.538   1.499  0.00  0.00    +0.009 C 
ATOM     25  C   UNL     1      -0.060   9.116   0.052  0.00  0.00    +0.034 C 
ENDBRANCH  18  25
BRANCH  22  26
ATOM     26  C   UNL     1      -1.310   6.410   0.050  0.00  0.00    +0.102 C 
ATOM     27  N   UNL     1      -2.440   6.300   0.060  0.00  0.00    -0.191 NA
ENDBRANCH  22  26
ENDBRANCH   1  21
TORSDOF 4
