REMARK  Name = ZINC35326438
REMARK  6 active torsions:
REMARK  status: ('A' for Active; 'I' for Inactive)
REMARK    1  A    between atoms: C_7  and  N_22
REMARK    2  A    between atoms: N_9  and  C_12
REMARK    3  A    between atoms: C_12  and  C_13
REMARK    4  A    between atoms: N_22  and  C_23
REMARK    5  A    between atoms: C_26  and  C_29
REMARK    6  A    between atoms: N_31  and  C_32
REMARK                            x       y       z     vdW  Elec       q    Type
REMARK                         _______ _______ _______ _____ _____    ______ ____
ROOT
ATOM      1  C   UNL     1       0.126   1.440   0.104  0.00  0.00    +0.000 A 
ATOM      2  C   UNL     1       1.340   2.104   0.082  0.00  0.00    +0.001 A 
ATOM      3  C   UNL     1       2.522   1.394   0.029  0.00  0.00    +0.013 A 
ATOM      4  C   UNL     1       2.493  -0.001  -0.003  0.00  0.00    +0.043 A 
ATOM      5  C   UNL     1       1.262  -0.662   0.019  0.00  0.00    +0.003 A 
ATOM      6  C   UNL     1       0.090   0.056   0.072  0.00  0.00    +0.008 A 
ATOM      7  C   UNL     1       1.569  -2.138  -0.025  0.00  0.00    +0.194 C 
ATOM      8  N   UNL     1       3.032  -2.252  -0.072  0.00  0.00    -0.271 N 
ATOM      9  C   UNL     1       3.562  -1.016  -0.060  0.00  0.00    +0.249 C 
ATOM     10  O   UNL     1       4.752  -0.771  -0.091  0.00  0.00    -0.270 OA
ENDROOT
BRANCH   7  11
ATOM     11  N   UNL     1       1.051  -2.796   1.177  0.00  0.00    -0.322 N 
ATOM     12  H   UNL     1       1.199  -2.399   2.050  0.00  0.00    +0.148 HD
BRANCH  11  13
ATOM     13  C   UNL     1       0.346  -3.990   1.067  0.00  0.00    +0.029 A 
ATOM     14  C   UNL     1      -0.240  -4.557   2.195  0.00  0.00    +0.024 A 
ATOM     15  C   UNL     1      -0.938  -5.738   2.090  0.00  0.00    +0.015 A 
ATOM     16  C   UNL     1      -1.058  -6.369   0.848  0.00  0.00    +0.037 A 
ATOM     17  C   UNL     1      -0.468  -5.796  -0.283  0.00  0.00    +0.015 A 
ATOM     18  C   UNL     1       0.224  -4.612  -0.172  0.00  0.00    +0.024 A 
BRANCH  16  19
ATOM     19  C   UNL     1      -1.805  -7.635   0.731  0.00  0.00    +0.244 C 
ATOM     20  O   UNL     1      -2.317  -8.132   1.715  0.00  0.00    -0.270 OA
ATOM     21  N   UNL     1      -1.920  -8.242  -0.467  0.00  0.00    -0.308 N 
ATOM     22  H   UNL     1      -1.511  -7.846  -1.253  0.00  0.00    +0.149 HD
BRANCH  21  23
ATOM     23  C   UNL     1      -2.662  -9.500  -0.583  0.00  0.00    +0.073 C 
ATOM     24  C   UNL     1      -2.042 -10.609  -1.435  0.00  0.00    +0.024 C 
ATOM     25  C   UNL     1      -3.263  -9.842  -1.948  0.00  0.00    +0.024 C 
ENDBRANCH  21  23
ENDBRANCH  16  19
ENDBRANCH  11  13
ENDBRANCH   7  11
BRANCH   8  26
ATOM     26  C   UNL     1       3.789  -3.505  -0.125  0.00  0.00    +0.145 C 
BRANCH  26  27
ATOM     27  C   UNL     1       4.005  -3.901  -1.563  0.00  0.00    -0.026 A 
ATOM     28  C   UNL     1       3.075  -4.698  -2.205  0.00  0.00    +0.009 A 
ATOM     29  C   UNL     1       3.268  -5.064  -3.524  0.00  0.00    +0.050 A 
ATOM     30  C   UNL     1       4.395  -4.633  -4.206  0.00  0.00    +0.166 A 
ATOM     31  C   UNL     1       5.331  -3.830  -3.558  0.00  0.00    +0.167 A 
ATOM     32  C   UNL     1       5.128  -3.463  -2.238  0.00  0.00    +0.054 A 
ATOM     33  O   UNL     1       6.339  -3.542  -4.433  0.00  0.00    -0.453 OA
ATOM     34  C   UNL     1       6.216  -4.510  -5.493  0.00  0.00    +0.466 C 
ATOM     35  O   UNL     1       4.816  -4.848  -5.486  0.00  0.00    -0.453 OA
ENDBRANCH  26  27
ENDBRANCH   8  26
TORSDOF 6
