REMARK  Name = ZINC24770453
REMARK  6 active torsions:
REMARK  status: ('A' for Active; 'I' for Inactive)
REMARK    1  A    between atoms: C_2  and  N_12
REMARK    2  A    between atoms: C_13  and  C_15
REMARK    3  A    between atoms: C_15  and  S_16
REMARK    4  A    between atoms: S_16  and  C_17
REMARK    5  A    between atoms: C_20  and  C_23
REMARK    6  A    between atoms: N_21  and  N_22
REMARK                            x       y       z     vdW  Elec       q    Type
REMARK                         _______ _______ _______ _____ _____    ______ ____
ROOT
ATOM      1  C   UNL     1       0.044  -1.972   3.575  0.00  0.00    +0.173 C 
ENDROOT
BRANCH   1   3
ATOM      2  N   UNL     1       0.096  -2.881   5.874  0.00  0.00    -0.284 N 
ATOM      3  C   UNL     1       0.068  -1.799   5.072  0.00  0.00    +0.228 C 
ATOM      4  O   UNL     1       0.063  -0.686   5.554  0.00  0.00    -0.275 OA
ATOM      5  H   UNL     1       0.026  -3.890   5.441  0.00  0.00    +0.155 HD
BRANCH   2   7
ATOM      6  C   UNL     1      -0.386  -1.639   7.889  0.00  0.00    +0.074 A 
ATOM      7  C   UNL     1       0.213  -2.722   7.262  0.00  0.00    +0.056 A 
ATOM      8  C   UNL     1       0.924  -3.651   8.010  0.00  0.00    +0.066 A 
ATOM      9  C   UNL     1       1.044  -3.491   9.378  0.00  0.00    +0.071 A 
ATOM     10  C   UNL     1       0.445  -2.410  10.008  0.00  0.00    +0.164 A 
ATOM     11  C   UNL     1      -0.270  -1.481   9.262  0.00  0.00    +0.164 A 
ATOM     12  O   UNL     1      -0.860  -0.411   9.862  0.00  0.00    -0.485 OA
ATOM     13  C   UNL     1      -1.038  -0.485  11.280  0.00  0.00    +0.270 C 
ATOM     14  C   UNL     1       0.273  -0.983  11.903  0.00  0.00    +0.270 C 
ATOM     15  O   UNL     1       0.566  -2.274  11.358  0.00  0.00    -0.485 OA
ATOM     16 CL   UNL     1       1.669  -5.010   7.227  0.00  0.00    -0.082 Cl
ENDBRANCH   2   7
ENDBRANCH   1   3
BRANCH   1  17
ATOM     17  S   UNL     1       0.010  -0.346   2.780  0.00  0.00    -0.075 S 
BRANCH  17  18
ATOM     18  C   UNL     1      -0.014  -0.833   1.087  0.00  0.00    +0.209 A 
ATOM     19  N   UNL     1      -0.006  -2.063   0.628  0.00  0.00    -0.121 NA
ATOM     20  N   UNL     1      -0.028  -2.050  -0.656  0.00  0.00    -0.132 NA
ATOM     21  C   UNL     1      -0.057  -0.822  -1.091  0.00  0.00    +0.154 A 
ATOM     22  N   UNL     1      -0.043  -0.002   0.004  0.00  0.00    -0.228 N 
BRANCH  21  23
ATOM     23  C   UNL     1      -0.095  -0.386  -2.533  0.00  0.00    +0.059 C 
ATOM     24  C   UNL     1      -1.352  -0.945  -3.202  0.00  0.00    +0.011 C 
ATOM     25  C   UNL     1      -1.391  -0.502  -4.666  0.00  0.00    +0.001 C 
ATOM     26  C   UNL     1      -0.150  -1.028  -5.391  0.00  0.00    +0.000 C 
ATOM     27  C   UNL     1       1.107  -0.468  -4.722  0.00  0.00    +0.001 C 
ATOM     28  C   UNL     1       1.145  -0.911  -3.258  0.00  0.00    +0.011 C 
ENDBRANCH  21  23
BRANCH  22  29
ATOM     29  N   UNL     1      -0.062   1.363   0.012  0.00  0.00    -0.295 N 
ATOM     30  H   UNL     1      -0.085   1.919  -0.937  0.00  0.00    +0.163 HD
ATOM     31  H   UNL     1      -0.053   1.908   0.968  0.00  0.00    +0.163 HD
ENDBRANCH  22  29
ENDBRANCH  17  18
ENDBRANCH   1  17
TORSDOF 6
