REMARK  Name = ZINC06599645
REMARK  7 active torsions:
REMARK  status: ('A' for Active; 'I' for Inactive)
REMARK    1  A    between atoms: C_1  and  C_2
REMARK    2  A    between atoms: C_2  and  O_3
REMARK    3  A    between atoms: O_3  and  C_4
REMARK    4  A    between atoms: C_4  and  C_6
REMARK    5  A    between atoms: C_10  and  N_11
REMARK    6  A    between atoms: N_11  and  C_12
REMARK    7  A    between atoms: N_19  and  C_22
REMARK                            x       y       z     vdW  Elec       q    Type
REMARK                         _______ _______ _______ _____ _____    ______ ____
ROOT
ATOM      1  C   UNL     1      -3.788  -2.919   3.542  0.00  0.00    +0.090 C 
ATOM      2  C   UNL     1      -3.301  -2.806   4.831  0.00  0.00    +0.113 C 
ATOM      3  C   UNL     1      -4.091  -3.252   5.994  0.00  0.00    +0.258 C 
ATOM      4  O   UNL     1      -5.199  -3.733   5.849  0.00  0.00    -0.270 OA
ATOM      5  N   UNL     1      -3.552  -3.111   7.222  0.00  0.00    -0.235 N 
ATOM      6  C   UNL     1      -2.332  -2.582   7.396  0.00  0.00    +0.320 C 
ATOM      7  O   UNL     1      -1.904  -2.483   8.529  0.00  0.00    -0.251 OA
ATOM      8  N   UNL     1      -1.560  -2.157   6.386  0.00  0.00    -0.190 N 
ATOM      9  C   UNL     1      -1.968  -2.241   5.103  0.00  0.00    +0.265 C 
ATOM     10  O   UNL     1      -1.255  -1.857   4.194  0.00  0.00    -0.269 OA
ATOM     11  H   UNL     1      -4.058  -3.398   7.998  0.00  0.00    +0.159 HD
ENDROOT
BRANCH   8  12
ATOM     12  C   UNL     1      -0.297  -1.618   6.670  0.00  0.00    +0.046 A 
ATOM     13  C   UNL     1      -0.044  -0.275   6.426  0.00  0.00    +0.025 A 
ATOM     14  C   UNL     1       1.201   0.254   6.707  0.00  0.00    +0.022 A 
ATOM     15  C   UNL     1       2.195  -0.554   7.230  0.00  0.00    +0.041 A 
ATOM     16  C   UNL     1       1.945  -1.893   7.473  0.00  0.00    +0.022 A 
ATOM     17  C   UNL     1       0.700  -2.425   7.200  0.00  0.00    +0.025 A 
ATOM     18 CL   UNL     1       3.759   0.113   7.580  0.00  0.00    -0.084 Cl
ENDBRANCH   8  12
BRANCH   1  19
ATOM     19  N   UNL     1      -2.990  -2.632   2.491  0.00  0.00    -0.314 N 
ATOM     20  H   UNL     1      -2.101  -2.275   2.641  0.00  0.00    +0.152 HD
BRANCH  19  25
ATOM     21  C   UNL     1      -2.768  -2.611   0.011  0.00  0.00    +0.091 A 
ATOM     22  C   UNL     1      -3.467  -2.929  -1.222  0.00  0.00    -0.021 A 
ATOM     23  C   UNL     1      -4.713  -3.417  -1.040  0.00  0.00    -0.004 A 
ATOM     24  S   UNL     1      -4.933  -3.447   0.715  0.00  0.00    -0.077 S 
ATOM     25  C   UNL     1      -3.442  -2.846   1.200  0.00  0.00    +0.084 A 
ATOM     26  C   UNL     1      -5.680  -3.834  -2.105  0.00  0.00    +0.043 C 
ATOM     27  C   UNL     1      -5.189  -3.273  -3.448  0.00  0.00    +0.005 C 
ATOM     28  C   UNL     1      -3.699  -3.587  -3.602  0.00  0.00    +0.005 C 
ATOM     29  C   UNL     1      -2.885  -2.746  -2.616  0.00  0.00    +0.037 C 
BRANCH  21  30
ATOM     30  C   UNL     1      -1.406  -2.072  -0.001  0.00  0.00    +0.342 C 
ATOM     31  O   UNL     1      -0.452  -2.827   0.021  0.00  0.00    -0.245 OA
BRANCH  30  32
ATOM     32  O   UNL     1      -1.209  -0.738  -0.038  0.00  0.00    -0.461 OA
BRANCH  32  34
ATOM     33  C   UNL     1       0.168   1.247  -0.089  0.00  0.00    +0.048 C 
ATOM     34  C   UNL     1       0.145  -0.282  -0.047  0.00  0.00    +0.229 C 
ENDBRANCH  32  34
ENDBRANCH  30  32
ENDBRANCH  21  30
ENDBRANCH  19  25
ENDBRANCH   1  19
TORSDOF 6
