REMARK  Name = ZINC43261843
REMARK  8 active torsions:
REMARK  status: ('A' for Active; 'I' for Inactive)
REMARK    1  A    between atoms: C_4  and  C_7
REMARK    2  A    between atoms: C_7  and  C_8
REMARK    3  A    between atoms: C_7  and  C_31
REMARK    4  A    between atoms: C_8  and  C_9
REMARK    5  A    between atoms: C_9  and  N_10
REMARK    6  A    between atoms: C_11  and  C_13
REMARK    7  A    between atoms: C_18  and  C_21
REMARK    8  A    between atoms: C_24  and  C_27
REMARK                            x       y       z     vdW  Elec       q    Type
REMARK                         _______ _______ _______ _____ _____    ______ ____
ROOT
ATOM      1  N   UNL     1       3.436  -1.191   3.853  0.00  0.00    -0.317 N 
ATOM      2  C   UNL     1       3.482  -0.477   4.995  0.00  0.00    +0.200 C 
ATOM      3  O   UNL     1       3.672   0.720   4.955  0.00  0.00    -0.278 OA
ATOM      4  H   UNL     1       3.284  -2.148   3.884  0.00  0.00    +0.149 HD
ENDROOT
BRANCH   2   5
ATOM      5  C   UNL     1       3.299  -1.168   6.322  0.00  0.00    +0.027 C 
ATOM      6  C   UNL     1       3.970  -0.340   7.424  0.00  0.00    +0.062 C 
ATOM      7  S   UNL     1       5.730  -0.148   7.001  0.00  0.00    -0.163 S 
ATOM      8  C   UNL     1       6.240  -1.856   6.632  0.00  0.00    +0.058 C 
ATOM      9  C   UNL     1       5.229  -2.457   5.648  0.00  0.00    -0.030 C 
ATOM     10  N   UNL     1       3.903  -2.500   6.265  0.00  0.00    +0.392 N 
ATOM     11  H   UNL     1       3.985  -2.866   7.202  0.00  0.00    -0.084 HD
ATOM     12  H   UNL     1       3.308  -3.110   5.724  0.00  0.00    -0.084 HD
BRANCH   9  13
ATOM     13  C   UNL     1       5.656  -3.855   5.282  0.00  0.00    -0.061 A 
ATOM     14  C   UNL     1       5.388  -4.906   6.140  0.00  0.00    +0.002 A 
ATOM     15  C   UNL     1       5.780  -6.188   5.804  0.00  0.00    +0.012 A 
ATOM     16  C   UNL     1       6.440  -6.420   4.612  0.00  0.00    +0.055 A 
ATOM     17  C   UNL     1       6.707  -5.369   3.754  0.00  0.00    +0.012 A 
ATOM     18  C   UNL     1       6.311  -4.087   4.088  0.00  0.00    +0.002 A 
BRANCH  16  19
ATOM     19  C   UNL     1       6.868  -7.818   4.246  0.00  0.00    +0.417 C 
ATOM     20  F   UNL     1       5.843  -8.448   3.532  0.00  0.00    -0.166 F 
ATOM     21  F   UNL     1       8.021  -7.761   3.456  0.00  0.00    -0.166 F 
ATOM     22  F   UNL     1       7.137  -8.543   5.412  0.00  0.00    -0.166 F 
ENDBRANCH  16  19
ENDBRANCH   9  13
ENDBRANCH   2   5
BRANCH   1  23
ATOM     23  C   UNL     1       3.615  -0.520   2.562  0.00  0.00    +0.105 C 
BRANCH  23  24
ATOM     24  C   UNL     1       3.518  -1.549   1.435  0.00  0.00    +0.031 C 
BRANCH  24  25
ATOM     25  C   UNL     1       3.704  -0.849   0.087  0.00  0.00    +0.050 C 
BRANCH  25  29
ATOM     26  C   UNL     1       0.465   1.856  -0.573  0.00  0.00    +0.000 A 
ATOM     27  C   UNL     1       1.769   2.306  -0.660  0.00  0.00    +0.000 A 
ATOM     28  C   UNL     1       2.817   1.431  -0.446  0.00  0.00    +0.004 A 
ATOM     29  C   UNL     1       2.562   0.106  -0.145  0.00  0.00    -0.040 A 
ATOM     30  C   UNL     1       1.257  -0.343  -0.057  0.00  0.00    +0.004 A 
ATOM     31  C   UNL     1       0.209   0.531  -0.273  0.00  0.00    +0.000 A 
ENDBRANCH  25  29
BRANCH  25  32
ATOM     32  C   UNL     1       3.732  -1.877  -1.014  0.00  0.00    -0.040 A 
ATOM     33  C   UNL     1       2.723  -2.817  -1.107  0.00  0.00    +0.004 A 
ATOM     34  C   UNL     1       2.749  -3.761  -2.117  0.00  0.00    +0.000 A 
ATOM     35  C   UNL     1       3.782  -3.763  -3.035  0.00  0.00    +0.000 A 
ATOM     36  C   UNL     1       4.790  -2.821  -2.943  0.00  0.00    +0.000 A 
ATOM     37  C   UNL     1       4.763  -1.876  -1.935  0.00  0.00    +0.004 A 
ENDBRANCH  25  32
ENDBRANCH  24  25
ENDBRANCH  23  24
ENDBRANCH   1  23
TORSDOF 8
