REMARK  Name = ZINC25393698
REMARK  9 active torsions:
REMARK  status: ('A' for Active; 'I' for Inactive)
REMARK    1  A    between atoms: C_1  and  C_2
REMARK    2  A    between atoms: C_5  and  C_8
REMARK    3  A    between atoms: C_8  and  N_9
REMARK    4  A    between atoms: C_22  and  S_23
REMARK    5  A    between atoms: S_23  and  C_24
REMARK    6  A    between atoms: C_24  and  C_25
REMARK    7  A    between atoms: N_27  and  C_28
REMARK    8  A    between atoms: C_33  and  C_38
REMARK    9  A    between atoms: C_35  and  C_37
REMARK                            x       y       z     vdW  Elec       q    Type
REMARK                         _______ _______ _______ _____ _____    ______ ____
ROOT
ATOM      1  N   UNL     1       2.385   1.467  -0.013  0.00  0.00    -0.272 N 
ATOM      2  C   UNL     1       2.475   0.121  -0.021  0.00  0.00    +0.263 A 
ATOM      3  O   UNL     1       3.562  -0.426  -0.034  0.00  0.00    -0.267 OA
ATOM      4  C   UNL     1       1.234  -0.675  -0.013  0.00  0.00    +0.064 A 
ATOM      5  C   UNL     1       1.268  -2.068  -0.021  0.00  0.00    +0.015 A 
ATOM      6  C   UNL     1       0.086  -2.779  -0.013  0.00  0.00    +0.001 A 
ATOM      7  C   UNL     1      -1.130  -2.114   0.003  0.00  0.00    +0.002 A 
ATOM      8  C   UNL     1      -1.177  -0.734   0.010  0.00  0.00    +0.027 A 
ATOM      9  C   UNL     1       0.002  -0.004   0.002  0.00  0.00    +0.064 A 
ATOM     10  N   UNL     1      -0.017   1.389   0.010  0.00  0.00    -0.256 N 
ATOM     11  C   UNL     1       1.152   2.100   0.002  0.00  0.00    +0.240 A 
ATOM     12  N   UNL     1       0.844   3.378   0.012  0.00  0.00    -0.109 NA
ATOM     13  N   UNL     1      -0.551   3.490   0.025  0.00  0.00    -0.120 NA
ATOM     14  C   UNL     1      -1.056   2.280   0.019  0.00  0.00    +0.198 A 
ENDROOT
BRANCH   1  15
ATOM     15  C   UNL     1       3.609   2.271  -0.020  0.00  0.00    +0.163 C 
BRANCH  15  20
ATOM     16  C   UNL     1       5.166   3.359  -5.478  0.00  0.00    +0.044 C 
ATOM     17  C   UNL     1       4.761   3.075  -4.054  0.00  0.00    -0.050 A 
ATOM     18  C   UNL     1       3.917   3.946  -3.390  0.00  0.00    +0.004 A 
ATOM     19  C   UNL     1       3.544   3.685  -2.084  0.00  0.00    +0.005 A 
ATOM     20  C   UNL     1       4.015   2.555  -1.443  0.00  0.00    -0.028 A 
ATOM     21  C   UNL     1       4.864   1.688  -2.106  0.00  0.00    +0.005 A 
ATOM     22  C   UNL     1       5.233   1.946  -3.413  0.00  0.00    +0.004 A 
ENDBRANCH  15  20
ENDBRANCH   1  15
BRANCH  14  23
ATOM     23  S   UNL     1      -2.770   1.873   0.024  0.00  0.00    -0.076 S 
BRANCH  23  24
ATOM     24  C   UNL     1      -3.604   3.484   0.036  0.00  0.00    +0.173 C 
BRANCH  24  25
ATOM     25  C   UNL     1      -5.097   3.277   0.042  0.00  0.00    +0.224 C 
ATOM     26  O   UNL     1      -5.553   2.153   0.038  0.00  0.00    -0.275 OA
ATOM     27  N   UNL     1      -5.925   4.340   0.051  0.00  0.00    -0.312 N 
ATOM     28  H   UNL     1      -5.511   5.359   0.054  0.00  0.00    +0.149 HD
BRANCH  27  29
ATOM     29  C   UNL     1      -7.376   4.139   0.056  0.00  0.00    +0.076 C 
ATOM     30  C   UNL     1      -7.870   3.951  -1.380  0.00  0.00    +0.022 C 
ATOM     31  C   UNL     1      -9.385   3.741  -1.374  0.00  0.00    +0.002 C 
ATOM     32  C   UNL     1     -10.067   4.963  -0.755  0.00  0.00    +0.003 C 
ATOM     33  C   UNL     1      -9.573   5.150   0.681  0.00  0.00    -0.009 C 
ATOM     34  C   UNL     1      -8.058   5.361   0.675  0.00  0.00    +0.009 C 
ATOM     35  C   UNL     1      -7.564   5.548   2.111  0.00  0.00    +0.009 C 
ATOM     36  C   UNL     1      -9.912   3.905   1.503  0.00  0.00    +0.008 C 
ENDBRANCH  27  29
ENDBRANCH  24  25
ENDBRANCH  23  24
ENDBRANCH  14  23
TORSDOF 6
