REMARK  Name = ZINC39607651
REMARK  10 active torsions:
REMARK  status: ('A' for Active; 'I' for Inactive)
REMARK    1  A    between atoms: C_1  and  C_2
REMARK    2  A    between atoms: C_2  and  C_3
REMARK    3  A    between atoms: C_3  and  O_4
REMARK    4  A    between atoms: O_4  and  C_5
REMARK    5  A    between atoms: C_5  and  C_6
REMARK    6  A    between atoms: C_6  and  N_7
REMARK    7  A    between atoms: C_8  and  C_10
REMARK    8  A    between atoms: C_21  and  C_23
REMARK    9  A    between atoms: C_28  and  S_29
REMARK   10  A    between atoms: S_29  and  C_30
REMARK                            x       y       z     vdW  Elec       q    Type
REMARK                         _______ _______ _______ _____ _____    ______ ____
ROOT
ATOM      1  C   UNL     1       3.648  -6.375  -0.509  0.00  0.00    +0.100 C 
ATOM      2  C   UNL     1       2.787  -5.820  -1.666  0.00  0.00    +0.121 C 
ATOM      3  N   UNL     1       2.759  -6.910  -2.669  0.00  0.00    -0.296 N 
ATOM      4  C   UNL     1       2.641  -8.149  -1.863  0.00  0.00    +0.115 C 
ATOM      5  C   UNL     1       3.549  -7.904  -0.641  0.00  0.00    -0.004 C 
ATOM      6  C   UNL     1       2.920  -8.503   0.612  0.00  0.00    -0.010 C 
ATOM      7  C   UNL     1       2.885 -10.028   0.482  0.00  0.00    -0.082 C 
ATOM      8  N   UNL     1       4.251 -10.537   0.305  0.00  0.00    +0.379 N 
ATOM      9  C   UNL     1       4.816 -10.029  -0.951  0.00  0.00    -0.082 C 
ATOM     10  C   UNL     1       4.931  -8.504  -0.881  0.00  0.00    -0.010 C 
ATOM     11  C   UNL     1       2.827  -6.801  -4.010  0.00  0.00    +0.249 C 
ATOM     12  O   UNL     1       2.695  -7.788  -4.708  0.00  0.00    -0.270 OA
ATOM     13  H   UNL     1       4.825 -10.233   1.077  0.00  0.00    -0.086 HD
ATOM     14  H   UNL     1       4.232 -11.546   0.280  0.00  0.00    -0.086 HD
ENDROOT
BRANCH  11  15
ATOM     15  C   UNL     1       3.060  -5.485  -4.631  0.00  0.00    +0.069 A 
ATOM     16  C   UNL     1       2.517  -4.324  -4.068  0.00  0.00    +0.017 A 
ATOM     17  C   UNL     1       2.766  -3.114  -4.689  0.00  0.00    +0.020 A 
ATOM     18  C   UNL     1       3.537  -3.082  -5.838  0.00  0.00    +0.112 A 
ATOM     19  N   UNL     1       4.040  -4.186  -6.354  0.00  0.00    -0.248 NA
ATOM     20  C   UNL     1       3.838  -5.371  -5.797  0.00  0.00    +0.114 A 
BRANCH  20  21
ATOM     21  S   UNL     1       4.540  -6.813  -6.526  0.00  0.00    -0.069 S 
BRANCH  21  22
ATOM     22  C   UNL     1       5.272  -6.224  -8.017  0.00  0.00    +0.014 A 
ATOM     23  C   UNL     1       6.618  -5.880  -8.043  0.00  0.00    +0.015 A 
ATOM     24  C   UNL     1       7.189  -5.420  -9.213  0.00  0.00    +0.001 A 
ATOM     25  C   UNL     1       6.422  -5.299 -10.358  0.00  0.00    +0.000 A 
ATOM     26  C   UNL     1       5.082  -5.640 -10.335  0.00  0.00    +0.001 A 
ATOM     27  C   UNL     1       4.506  -6.107  -9.170  0.00  0.00    +0.015 A 
ENDBRANCH  21  22
ENDBRANCH  20  21
ENDBRANCH  11  15
BRANCH   1  29
ATOM     28  N   UNL     1       3.918  -5.774   1.875  0.00  0.00    -0.313 N 
ATOM     29  C   UNL     1       3.095  -5.926   0.819  0.00  0.00    +0.218 C 
ATOM     30  O   UNL     1       1.909  -5.702   0.937  0.00  0.00    -0.275 OA
ATOM     31  H   UNL     1       4.867  -5.954   1.781  0.00  0.00    +0.149 HD
BRANCH  28  32
ATOM     32  C   UNL     1       3.381  -5.338   3.166  0.00  0.00    +0.132 C 
BRANCH  32  33
ATOM     33  C   UNL     1       4.516  -5.247   4.187  0.00  0.00    +0.178 C 
BRANCH  33  34
ATOM     34  O   UNL     1       5.430  -4.221   3.792  0.00  0.00    -0.378 OA
BRANCH  34  35
ATOM     35  C   UNL     1       6.535  -4.053   4.683  0.00  0.00    +0.159 C 
BRANCH  35  37
ATOM     36  C   UNL     1       8.625  -2.755   5.119  0.00  0.00    +0.006 C 
ATOM     37  C   UNL     1       7.442  -2.935   4.165  0.00  0.00    +0.025 C 
ENDBRANCH  35  37
ENDBRANCH  34  35
ENDBRANCH  33  34
ENDBRANCH  32  33
ENDBRANCH  28  32
ENDBRANCH   1  29
TORSDOF 9
