REMARK  Name = ZINC12635567
REMARK  13 active torsions:
REMARK  status: ('A' for Active; 'I' for Inactive)
REMARK    1  A    between atoms: C_1  and  C_2
REMARK    2  A    between atoms: C_2  and  N_70
REMARK    3  A    between atoms: C_6  and  C_8
REMARK    4  A    between atoms: C_8  and  N_9
REMARK    5  A    between atoms: N_9  and  C_10
REMARK    6  A    between atoms: N_9  and  C_25
REMARK    7  A    between atoms: C_10  and  C_11
REMARK    8  A    between atoms: C_16  and  C_24
REMARK    9  A    between atoms: C_17  and  C_23
REMARK   10  A    between atoms: C_25  and  N_27
REMARK   11  A    between atoms: N_27  and  C_28
REMARK   12  A    between atoms: C_32  and  C_35
REMARK   13  A    between atoms: C_33  and  C_34
REMARK                            x       y       z     vdW  Elec       q    Type
REMARK                         _______ _______ _______ _____ _____    ______ ____
ROOT
ATOM      1  N   UNL     1       0.555   0.344  -0.495  0.00  0.00    -0.309 N 
ENDROOT
BRANCH   1   2
ATOM      2  C   UNL     1       1.564   0.809  -1.258  0.00  0.00    +0.137 C 
ATOM      3  S   UNL     1       1.371   2.266  -2.136  0.00  0.00    -0.018 S 
BRANCH   2   4
ATOM      4  N   UNL     1       2.724   0.127  -1.330  0.00  0.00    -0.297 N 
ATOM      5  H   UNL     1       2.806  -0.737  -0.899  0.00  0.00    +0.154 HD
BRANCH   4   6
ATOM      6  C   UNL     1       3.810   0.667  -2.028  0.00  0.00    +0.036 A 
ATOM      7  C   UNL     1       4.118   2.015  -1.901  0.00  0.00    +0.023 A 
ATOM      8  C   UNL     1       5.194   2.544  -2.587  0.00  0.00    +0.002 A 
ATOM      9  C   UNL     1       5.957   1.734  -3.408  0.00  0.00    +0.004 A 
ATOM     10  C   UNL     1       5.650   0.393  -3.541  0.00  0.00    -0.046 A 
ATOM     11  C   UNL     1       4.578  -0.143  -2.853  0.00  0.00    -0.026 A 
ATOM     12  C   UNL     1       4.244  -1.605  -2.999  0.00  0.00    +0.046 C 
ATOM     13  C   UNL     1       6.484  -0.486  -4.437  0.00  0.00    +0.044 C 
ENDBRANCH   4   6
ENDBRANCH   2   4
ENDBRANCH   1   2
BRANCH   1  14
ATOM     14  C   UNL     1       0.720  -0.903   0.257  0.00  0.00    +0.092 C 
BRANCH  14  18
ATOM     15  C   UNL     1       0.453  -3.560  -2.297  0.00  0.00    -0.078 C 
ATOM     16  C   UNL     1       0.655  -4.395  -1.014  0.00  0.00    -0.020 C 
ATOM     17  C   UNL     1       0.422  -3.407   0.148  0.00  0.00    -0.016 C 
ATOM     18  C   UNL     1       0.099  -2.059  -0.531  0.00  0.00    -0.051 C 
ATOM     19  N   UNL     1       0.708  -2.188  -1.859  0.00  0.00    +0.382 N 
ATOM     20  H   UNL     1       1.719  -2.021  -1.801  0.00  0.00    -0.081 HD
BRANCH  19  22
ATOM     21  C   UNL     1       0.996  -1.043  -4.041  0.00  0.00    -0.017 C 
ATOM     22  C   UNL     1       0.101  -1.204  -2.811  0.00  0.00    -0.082 C 
ENDBRANCH  19  22
ENDBRANCH  14  18
ENDBRANCH   1  14
BRANCH   1  23
ATOM     23  C   UNL     1      -0.708   1.082  -0.421  0.00  0.00    +0.147 C 
BRANCH  23  24
ATOM     24  C   UNL     1      -0.624   2.113   0.675  0.00  0.00    +0.035 A 
ATOM     25  C   UNL     1      -0.270   3.388   0.377  0.00  0.00    +0.020 A 
ATOM     26  C   UNL     1      -0.198   4.366   1.464  0.00  0.00    -0.001 A 
ATOM     27  C   UNL     1       0.161   5.695   1.219  0.00  0.00    +0.010 A 
ATOM     28  C   UNL     1       0.219   6.583   2.255  0.00  0.00    +0.004 A 
ATOM     29  C   UNL     1      -0.075   6.178   3.550  0.00  0.00    -0.046 A 
ATOM     30  C   UNL     1      -0.431   4.874   3.815  0.00  0.00    -0.024 A 
ATOM     31  C   UNL     1      -0.497   3.951   2.776  0.00  0.00    +0.052 A 
ATOM     32  N   UNL     1      -0.851   2.640   3.012  0.00  0.00    -0.322 N 
ATOM     33  H   UNL     1      -1.057   2.356   3.917  0.00  0.00    +0.169 HD
ATOM     34  C   UNL     1      -0.920   1.750   2.006  0.00  0.00    +0.254 A 
ATOM     35  O   UNL     1      -1.241   0.600   2.252  0.00  0.00    -0.268 OA
ATOM     36  C   UNL     1      -0.747   4.447   5.226  0.00  0.00    +0.046 C 
ATOM     37  C   UNL     1      -0.005   7.176   4.677  0.00  0.00    +0.044 C 
ENDBRANCH  23  24
ENDBRANCH   1  23
TORSDOF 8
