REMARK  Name = ZINC40259665
REMARK  4 active torsions:
REMARK  status: ('A' for Active; 'I' for Inactive)
REMARK    1  A    between atoms: C_1  and  C_2
REMARK    2  A    between atoms: C_7  and  C_8
REMARK    3  A    between atoms: C_8  and  C_10
REMARK    4  A    between atoms: C_8  and  O_22
REMARK                            x       y       z     vdW  Elec       q    Type
REMARK                         _______ _______ _______ _____ _____    ______ ____
ROOT
ATOM      1  C   UNL     1      -1.174   0.137   3.121  0.00  0.00    +0.007 A 
ATOM      2  C   UNL     1      -1.653  -0.727   4.090  0.00  0.00    +0.057 A 
ATOM      3  C   UNL     1      -2.923  -0.540   4.607  0.00  0.00    +0.162 A 
ATOM      4  C   UNL     1      -3.712   0.508   4.155  0.00  0.00    +0.163 A 
ATOM      5  C   UNL     1      -3.231   1.371   3.186  0.00  0.00    +0.069 A 
ATOM      6  C   UNL     1      -1.957   1.186   2.674  0.00  0.00    +0.051 A 
ATOM      7 CL   UNL     1      -1.345   2.269   1.463  0.00  0.00    -0.083 Cl
ATOM      8  O   UNL     1      -4.963   0.683   4.673  0.00  0.00    -0.488 OA
ATOM      9  C   UNL     1      -5.923  -0.322   4.340  0.00  0.00    +0.232 C 
ATOM     10  C   UNL     1      -5.817  -1.505   5.289  0.00  0.00    +0.082 C 
ATOM     11  C   UNL     1      -4.487  -2.231   5.163  0.00  0.00    +0.232 C 
ATOM     12  O   UNL     1      -3.407  -1.385   5.564  0.00  0.00    -0.488 OA
ENDROOT
BRANCH   1  13
ATOM     13  C   UNL     1       0.209  -0.061   2.555  0.00  0.00    +0.176 C 
BRANCH  13  20
ATOM     14  C   UNL     1       1.091   1.012   0.022  0.00  0.00    +0.044 C 
ATOM     15  C   UNL     1       0.548  -0.392   0.097  0.00  0.00    -0.045 A 
ATOM     16  C   UNL     1       0.476  -1.168  -1.045  0.00  0.00    +0.004 A 
ATOM     17  C   UNL     1      -0.022  -2.455  -0.976  0.00  0.00    +0.000 A 
ATOM     18  C   UNL     1      -0.449  -2.967   0.236  0.00  0.00    +0.000 A 
ATOM     19  C   UNL     1      -0.377  -2.191   1.378  0.00  0.00    +0.007 A 
ATOM     20  C   UNL     1       0.126  -0.905   1.309  0.00  0.00    -0.012 A 
ENDBRANCH  13  20
BRANCH  13  21
ATOM     21  O   UNL     1       1.029  -0.720   3.522  0.00  0.00    -0.382 OA
ATOM     22  H   UNL     1       0.702  -1.590   3.788  0.00  0.00    +0.211 HD
ENDBRANCH  13  21
ENDBRANCH   1  13
TORSDOF 3
