REMARK  Name = ZINC33643042
REMARK  12 active torsions:
REMARK  status: ('A' for Active; 'I' for Inactive)
REMARK    1  A    between atoms: C_1  and  C_2
REMARK    2  A    between atoms: C_2  and  O_3
REMARK    3  A    between atoms: O_3  and  C_4
REMARK    4  A    between atoms: C_4  and  C_5
REMARK    5  A    between atoms: C_5  and  C_6
REMARK    6  A    between atoms: C_6  and  N_7
REMARK    7  A    between atoms: N_7  and  C_8
REMARK    8  A    between atoms: C_9  and  C_20
REMARK    9  A    between atoms: C_16  and  C_19
REMARK   10  A    between atoms: N_24  and  C_28
REMARK   11  A    between atoms: C_28  and  C_30
REMARK   12  A    between atoms: C_28  and  C_31
REMARK                            x       y       z     vdW  Elec       q    Type
REMARK                         _______ _______ _______ _____ _____    ______ ____
ROOT
ATOM      1  C   UNL     1       2.648   2.735   0.175  0.00  0.00    +0.134 A 
ATOM      2  C   UNL     1       3.099   4.076   0.194  0.00  0.00    +0.081 A 
ATOM      3  C   UNL     1       2.142   5.104   0.362  0.00  0.00    +0.267 A 
ATOM      4  O   UNL     1       2.485   6.274   0.385  0.00  0.00    -0.267 OA
ATOM      5  N   UNL     1       0.841   4.768   0.499  0.00  0.00    -0.267 N 
ATOM      6  C   UNL     1      -0.089   5.752   0.662  0.00  0.00    +0.096 A 
ATOM      7  C   UNL     1      -1.399   5.450   0.801  0.00  0.00    +0.019 A 
ATOM      8  C   UNL     1      -1.819   4.114   0.773  0.00  0.00    +0.008 A 
ATOM      9  C   UNL     1      -0.897   3.122   0.616  0.00  0.00    -0.007 A 
ATOM     10  C   UNL     1       0.462   3.455   0.473  0.00  0.00    +0.145 A 
ATOM     11  N   UNL     1       1.356   2.479   0.315  0.00  0.00    -0.214 NA
ATOM     12  C   UNL     1      -1.331   1.679   0.591  0.00  0.00    +0.047 C 
ENDROOT
BRANCH   2  13
ATOM     13  C   UNL     1       4.473   4.381   0.048  0.00  0.00    +0.037 C 
ATOM     14  C   UNL     1       4.907   5.067  -1.050  0.00  0.00    +0.077 C 
ATOM     15  C   UNL     1       4.188   5.460  -2.215  0.00  0.00    +0.259 C 
ATOM     16  O   UNL     1       3.007   5.190  -2.343  0.00  0.00    -0.269 OA
ATOM     17  N   UNL     1       4.838   6.129  -3.151  0.00  0.00    -0.248 N 
ATOM     18  C   UNL     1       6.150   6.422  -3.013  0.00  0.00    +0.121 C 
ATOM     19  S   UNL     1       7.182   7.262  -4.089  0.00  0.00    -0.027 S 
ATOM     20  S   UNL     1       6.533   5.708  -1.420  0.00  0.00    -0.061 S 
BRANCH  17  21
ATOM     21  C   UNL     1       4.127   6.553  -4.360  0.00  0.00    +0.110 C 
ATOM     22  C   UNL     1       3.666   5.320  -5.140  0.00  0.00    +0.033 C 
BRANCH  21  23
ATOM     23  C   UNL     1       2.929   7.381  -3.974  0.00  0.00    -0.027 A 
ATOM     24  C   UNL     1       1.778   7.331  -4.739  0.00  0.00    +0.005 A 
ATOM     25  C   UNL     1       0.677   8.087  -4.382  0.00  0.00    +0.000 A 
ATOM     26  C   UNL     1       0.730   8.900  -3.266  0.00  0.00    +0.000 A 
ATOM     27  C   UNL     1       1.882   8.955  -2.504  0.00  0.00    +0.000 A 
ATOM     28  C   UNL     1       2.982   8.195  -2.858  0.00  0.00    +0.005 A 
ENDBRANCH  21  23
ENDBRANCH  17  21
ENDBRANCH   2  13
BRANCH   1  29
ATOM     29  N   UNL     1       3.547   1.704   0.013  0.00  0.00    -0.328 N 
ATOM     30  H   UNL     1       4.619   1.921  -0.103  0.00  0.00    +0.147 HD
BRANCH  29  31
ATOM     31  C   UNL     1       3.075   0.317  -0.006  0.00  0.00    +0.105 C 
BRANCH  31  32
ATOM     32  C   UNL     1       4.265  -0.625  -0.198  0.00  0.00    +0.047 C 
BRANCH  32  33
ATOM     33  C   UNL     1       3.772  -2.073  -0.217  0.00  0.00    +0.161 C 
BRANCH  33  34
ATOM     34  O   UNL     1       4.884  -2.953  -0.397  0.00  0.00    -0.380 OA
BRANCH  34  36
ATOM     35  C   UNL     1       5.792  -5.181  -0.624  0.00  0.00    +0.034 C 
ATOM     36  C   UNL     1       4.530  -4.337  -0.429  0.00  0.00    +0.156 C 
ENDBRANCH  34  36
ENDBRANCH  33  34
ENDBRANCH  32  33
ENDBRANCH  31  32
ENDBRANCH  29  31
ENDBRANCH   1  29
TORSDOF 9
