REMARK  Name = ZINC16355742
REMARK  11 active torsions:
REMARK  status: ('A' for Active; 'I' for Inactive)
REMARK    1  A    between atoms: C_1  and  N_50
REMARK    2  A    between atoms: C_2  and  C_3
REMARK    3  A    between atoms: C_2  and  N_50
REMARK    4  A    between atoms: C_6  and  S_9
REMARK    5  A    between atoms: S_9  and  C_10
REMARK    6  A    between atoms: C_11  and  N_12
REMARK    7  A    between atoms: C_11  and  N_50
REMARK    8  A    between atoms: C_16  and  C_18
REMARK    9  A    between atoms: C_18  and  C_19
REMARK   10  A    between atoms: C_22  and  O_25
REMARK   11  A    between atoms: O_25  and  C_26
REMARK                            x       y       z     vdW  Elec       q    Type
REMARK                         _______ _______ _______ _____ _____    ______ ____
ROOT
ATOM      1  N   UNL     1      -0.721   1.571  -1.179  0.00  0.00    -0.240 N 
ATOM      2  C   UNL     1      -1.721   0.942  -1.834  0.00  0.00    +0.265 A 
ATOM      3  S   UNL     1      -2.401  -0.577  -1.432  0.00  0.00    +0.011 S 
ATOM      4  O   UNL     1      -2.085   1.733  -2.858  0.00  0.00    -0.416 OA
ATOM      5  C   UNL     1      -1.315   2.839  -2.849  0.00  0.00    +0.220 A 
ATOM      6  N   UNL     1      -0.488   2.776  -1.858  0.00  0.00    -0.136 NA
ENDROOT
BRANCH   1   7
ATOM      7  C   UNL     1      -0.013   1.086   0.008  0.00  0.00    +0.073 C 
BRANCH   7   9
ATOM      8  C   UNL     1      -0.615   3.022   1.332  0.00  0.00    -0.093 C 
ATOM      9  N   UNL     1      -0.728   1.552   1.214  0.00  0.00    +0.394 N 
ATOM     10  H   UNL     1      -1.720   1.300   1.133  0.00  0.00    -0.079 HD
BRANCH   9  11
ATOM     11  C   UNL     1      -0.165   0.904   2.418  0.00  0.00    -0.041 C 
BRANCH  11  12
ATOM     12  C   UNL     1      -1.046   1.223   3.598  0.00  0.00    -0.064 A 
ATOM     13  C   UNL     1      -0.782   2.336   4.375  0.00  0.00    +0.003 A 
ATOM     14  C   UNL     1      -1.590   2.634   5.455  0.00  0.00    +0.015 A 
ATOM     15  C   UNL     1      -2.663   1.808   5.766  0.00  0.00    +0.008 A 
ATOM     16  C   UNL     1      -2.922   0.687   4.986  0.00  0.00    +0.015 A 
ATOM     17  C   UNL     1      -2.113   0.398   3.905  0.00  0.00    +0.003 A 
BRANCH  15  18
ATOM     18  S   UNL     1      -3.694   2.181   7.146  0.00  0.00    -0.129 S 
ATOM     19  C   UNL     1      -2.975   3.698   7.833  0.00  0.00    +0.090 C 
ENDBRANCH  15  18
ENDBRANCH  11  12
ENDBRANCH   9  11
ENDBRANCH   7   9
ENDBRANCH   1   7
BRANCH   5  20
ATOM     20  C   UNL     1      -1.405   3.972  -3.839  0.00  0.00    +0.132 C 
BRANCH  20  21
ATOM     21  C   UNL     1      -0.487   3.696  -5.002  0.00  0.00    -0.038 A 
ATOM     22  C   UNL     1       0.822   4.141  -4.969  0.00  0.00    +0.007 A 
ATOM     23  C   UNL     1       1.667   3.885  -6.032  0.00  0.00    +0.046 A 
ATOM     24  C   UNL     1       1.198   3.189  -7.137  0.00  0.00    +0.120 A 
ATOM     25  C   UNL     1      -0.117   2.748  -7.170  0.00  0.00    +0.046 A 
ATOM     26  C   UNL     1      -0.956   3.002  -6.103  0.00  0.00    +0.007 A 
BRANCH  24  27
ATOM     27  O   UNL     1       2.026   2.940  -8.185  0.00  0.00    -0.495 OA
ATOM     28  C   UNL     1       3.367   3.424  -8.082  0.00  0.00    +0.277 C 
ENDBRANCH  24  27
ENDBRANCH  20  21
ENDBRANCH   5  20
TORSDOF 8
