REMARK  Name = ZINC39666978
REMARK  9 active torsions:
REMARK  status: ('A' for Active; 'I' for Inactive)
REMARK    1  A    between atoms: C_1  and  C_2
REMARK    2  A    between atoms: C_5  and  C_9
REMARK    3  A    between atoms: C_6  and  C_8
REMARK    4  A    between atoms: C_9  and  C_10
REMARK    5  A    between atoms: C_10  and  N_11
REMARK    6  A    between atoms: C_12  and  C_14
REMARK    7  A    between atoms: C_25  and  C_27
REMARK    8  A    between atoms: C_32  and  O_33
REMARK    9  A    between atoms: O_33  and  C_34
REMARK                            x       y       z     vdW  Elec       q    Type
REMARK                         _______ _______ _______ _____ _____    ______ ____
ROOT
ATOM      1  C   UNL     1      -2.478  -8.468   0.197  0.00  0.00    +0.100 C 
ATOM      2  C   UNL     1      -1.597  -9.005   1.347  0.00  0.00    +0.121 C 
ATOM      3  N   UNL     1      -2.545  -9.266   2.455  0.00  0.00    -0.296 N 
ATOM      4  C   UNL     1      -3.744  -9.830   1.790  0.00  0.00    +0.115 C 
ATOM      5  C   UNL     1      -3.885  -9.014   0.489  0.00  0.00    -0.004 C 
ATOM      6  C   UNL     1      -4.867  -7.864   0.694  0.00  0.00    -0.010 C 
ATOM      7  C   UNL     1      -6.270  -8.431   0.927  0.00  0.00    -0.082 C 
ATOM      8  N   UNL     1      -6.669  -9.243  -0.229  0.00  0.00    +0.379 N 
ATOM      9  C   UNL     1      -5.775 -10.399  -0.363  0.00  0.00    -0.082 C 
ATOM     10  C   UNL     1      -4.351  -9.914  -0.651  0.00  0.00    -0.010 C 
ATOM     11  C   UNL     1      -2.360  -9.040   3.771  0.00  0.00    +0.250 C 
ATOM     12  O   UNL     1      -1.352  -8.479   4.155  0.00  0.00    -0.270 OA
ATOM     13  H   UNL     1      -7.617  -9.565  -0.101  0.00  0.00    -0.086 HD
ATOM     14  H   UNL     1      -6.619  -8.681  -1.066  0.00  0.00    -0.086 HD
ENDROOT
BRANCH  11  15
ATOM     15  C   UNL     1      -3.380  -9.475   4.744  0.00  0.00    +0.078 A 
ATOM     16  C   UNL     1      -4.099 -10.653   4.530  0.00  0.00    +0.017 A 
ATOM     17  C   UNL     1      -5.050 -11.053   5.443  0.00  0.00    +0.001 A 
ATOM     18  C   UNL     1      -5.296 -10.293   6.575  0.00  0.00    +0.004 A 
ATOM     19  C   UNL     1      -4.593  -9.126   6.799  0.00  0.00    +0.046 A 
ATOM     20  C   UNL     1      -3.629  -8.710   5.893  0.00  0.00    +0.132 A 
BRANCH  20  21
ATOM     21  O   UNL     1      -2.933  -7.567   6.114  0.00  0.00    -0.494 OA
ATOM     22  C   UNL     1      -3.241  -6.841   7.306  0.00  0.00    +0.277 C 
ENDBRANCH  20  21
ENDBRANCH  11  15
BRANCH   1  24
ATOM     23  N   UNL     1      -2.632  -6.283  -0.952  0.00  0.00    -0.315 N 
ATOM     24  C   UNL     1      -2.488  -6.961   0.204  0.00  0.00    +0.218 C 
ATOM     25  O   UNL     1      -2.366  -6.359   1.249  0.00  0.00    -0.275 OA
ATOM     26  H   UNL     1      -2.730  -6.764  -1.788  0.00  0.00    +0.149 HD
BRANCH  23  27
ATOM     27  C   UNL     1      -2.642  -4.818  -0.945  0.00  0.00    +0.109 C 
BRANCH  27  28
ATOM     28  C   UNL     1      -2.818  -4.302  -2.375  0.00  0.00    +0.054 C 
BRANCH  28  33
ATOM     29  C   UNL     1      -2.857   1.476  -2.345  0.00  0.00    +0.044 C 
ATOM     30  C   UNL     1      -2.847  -0.031  -2.353  0.00  0.00    -0.050 A 
ATOM     31  C   UNL     1      -4.039  -0.730  -2.318  0.00  0.00    +0.003 A 
ATOM     32  C   UNL     1      -4.030  -2.112  -2.325  0.00  0.00    +0.004 A 
ATOM     33  C   UNL     1      -2.829  -2.795  -2.368  0.00  0.00    -0.043 A 
ATOM     34  C   UNL     1      -1.637  -2.096  -2.404  0.00  0.00    -0.047 A 
ATOM     35  C   UNL     1      -1.646  -0.714  -2.401  0.00  0.00    +0.007 A 
ATOM     36  C   UNL     1      -0.328  -2.841  -2.450  0.00  0.00    +0.044 C 
ENDBRANCH  28  33
ENDBRANCH  27  28
ENDBRANCH  23  27
ENDBRANCH   1  24
TORSDOF 6
