REMARK  Name = ZINC59363497
REMARK  14 active torsions:
REMARK  status: ('A' for Active; 'I' for Inactive)
REMARK    1  A    between atoms: C_1  and  C_2
REMARK    2  A    between atoms: C_8  and  N_10
REMARK    3  A    between atoms: C_11  and  C_13
REMARK    4  A    between atoms: C_13  and  N_14
REMARK    5  A    between atoms: C_18  and  C_21
REMARK    6  A    between atoms: C_21  and  N_22
REMARK    7  A    between atoms: N_22  and  C_23
REMARK    8  A    between atoms: C_23  and  C_24
REMARK    9  A    between atoms: C_23  and  C_25
REMARK   10  A    between atoms: C_26  and  O_28
REMARK   11  A    between atoms: O_28  and  C_29
REMARK   12  A    between atoms: C_29  and  C_30
REMARK   13  A    between atoms: C_29  and  C_31
REMARK   14  A    between atoms: C_29  and  C_32
REMARK                            x       y       z     vdW  Elec       q    Type
REMARK                         _______ _______ _______ _____ _____    ______ ____
ROOT
ATOM      1  N   UNL     1       4.723   0.698   3.753  0.00  0.00    +0.386 N 
ATOM      2  C   UNL     1       3.947   1.672   4.529  0.00  0.00    -0.078 C 
ATOM      3  C   UNL     1       4.425   1.668   5.983  0.00  0.00    -0.018 C 
ATOM      4  C   UNL     1       5.909   2.044   6.027  0.00  0.00    +0.001 C 
ATOM      5  C   UNL     1       6.700   1.066   5.154  0.00  0.00    -0.010 C 
ATOM      6  C   UNL     1       6.137   1.092   3.731  0.00  0.00    -0.073 C 
ATOM      7  H   UNL     1       4.635  -0.213   4.176  0.00  0.00    -0.081 HD
ENDROOT
BRANCH   1   8
ATOM      8  C   UNL     1       4.209   0.649   2.377  0.00  0.00    +0.019 C 
BRANCH   8  10
ATOM      9  N   UNL     1       2.116  -0.004   1.231  0.00  0.00    -0.314 N 
ATOM     10  C   UNL     1       2.795   0.128   2.388  0.00  0.00    +0.197 C 
ATOM     11  O   UNL     1       2.268  -0.174   3.438  0.00  0.00    -0.278 OA
ATOM     12  H   UNL     1       2.538   0.237   0.392  0.00  0.00    +0.149 HD
BRANCH   9  19
ATOM     13  C   UNL     1      -0.019   1.526   0.010  0.00  0.00    +0.009 C 
ATOM     14  C   UNL     1       0.002  -0.004   0.002  0.00  0.00    +0.006 C 
ATOM     15  C   UNL     1      -1.433  -0.534   0.013  0.00  0.00    +0.005 C 
ATOM     16  C   UNL     1      -1.413  -2.063   0.004  0.00  0.00    +0.000 C 
ATOM     17  C   UNL     1      -0.673  -2.570   1.244  0.00  0.00    +0.002 C 
ATOM     18  C   UNL     1       0.763  -2.041   1.233  0.00  0.00    +0.022 C 
ATOM     19  C   UNL     1       0.742  -0.511   1.242  0.00  0.00    +0.076 C 
ENDBRANCH   9  19
ENDBRANCH   8  10
ENDBRANCH   1   8
BRANCH   5  20
ATOM     20  C   UNL     1       8.173   1.478   5.129  0.00  0.00    +0.113 C 
BRANCH  20  21
ATOM     21  N   UNL     1       8.740   1.343   6.473  0.00  0.00    -0.265 N 
ATOM     22  C   UNL     1       8.697   2.381   7.331  0.00  0.00    +0.404 C 
ATOM     23  O   UNL     1       8.187   3.430   6.989  0.00  0.00    -0.226 OA
BRANCH  21  24
ATOM     24  C   UNL     1       9.355   0.078   6.885  0.00  0.00    +0.073 C 
ATOM     25  C   UNL     1      10.821   0.318   7.249  0.00  0.00    +0.028 C 
ATOM     26  C   UNL     1       8.612  -0.478   8.101  0.00  0.00    +0.028 C 
ENDBRANCH  21  24
BRANCH  22  27
ATOM     27  O   UNL     1       9.218   2.257   8.566  0.00  0.00    -0.445 OA
BRANCH  27  28
ATOM     28  C   UNL     1       9.138   3.398   9.422  0.00  0.00    +0.107 C 
ATOM     29  C   UNL     1       7.670   3.776   9.632  0.00  0.00    +0.055 C 
ATOM     30  C   UNL     1       9.777   3.068  10.772  0.00  0.00    +0.055 C 
ATOM     31  C   UNL     1       9.879   4.572   8.779  0.00  0.00    +0.055 C 
ENDBRANCH  27  28
ENDBRANCH  22  27
ENDBRANCH  20  21
ENDBRANCH   5  20
TORSDOF 8
