REMARK  Name = ZINC08535479
REMARK  6 active torsions:
REMARK  status: ('A' for Active; 'I' for Inactive)
REMARK    1  A    between atoms: C_1  and  C_2
REMARK    2  A    between atoms: C_13  and  C_15
REMARK    3  A    between atoms: C_18  and  C_26
REMARK    4  A    between atoms: C_19  and  C_20
REMARK    5  A    between atoms: C_19  and  C_21
REMARK    6  A    between atoms: N_23  and  O_24
REMARK                            x       y       z     vdW  Elec       q    Type
REMARK                         _______ _______ _______ _____ _____    ______ ____
ROOT
ATOM      1  C   UNL     1      -0.904   1.286   0.672  0.00  0.00    +0.028 C 
ATOM      2  C   UNL     1      -0.669  -0.224   0.607  0.00  0.00    +0.079 C 
ATOM      3  C   UNL     1      -0.535  -0.667  -0.856  0.00  0.00    +0.027 C 
ATOM      4  C   UNL     1      -0.372  -2.186  -0.899  0.00  0.00    +0.039 C 
ATOM      5  C   UNL     1       0.730  -2.625   0.029  0.00  0.00    -0.023 A 
ATOM      6  C   UNL     1       1.323  -3.861  -0.173  0.00  0.00    +0.043 A 
ATOM      7  C   UNL     1       2.335  -4.294   0.664  0.00  0.00    +0.124 A 
ATOM      8  C   UNL     1       2.762  -3.493   1.710  0.00  0.00    +0.040 A 
ATOM      9  C   UNL     1       2.176  -2.260   1.915  0.00  0.00    +0.026 A 
ATOM     10  C   UNL     1       1.160  -1.823   1.074  0.00  0.00    +0.040 A 
ATOM     11  N   UNL     1       0.583  -0.563   1.297  0.00  0.00    -0.268 N 
ATOM     12  C   UNL     1       1.168   0.321   2.129  0.00  0.00    +0.227 C 
ATOM     13  O   UNL     1       0.939   1.506   2.012  0.00  0.00    -0.275 OA
ATOM     14  F   UNL     1       2.908  -5.501   0.462  0.00  0.00    -0.205 F 
ENDROOT
BRANCH  12  15
ATOM     15  C   UNL     1       2.108  -0.163   3.203  0.00  0.00    +0.059 C 
ATOM     16  C   UNL     1       3.576  -0.440   2.756  0.00  0.00    +0.018 C 
ATOM     17  C   UNL     1       4.389  -0.427   4.072  0.00  0.00    +0.014 C 
ATOM     18  C   UNL     1       3.334  -0.136   5.182  0.00  0.00    +0.015 C 
ATOM     19  C   UNL     1       2.352   0.813   4.409  0.00  0.00    -0.010 C 
ATOM     20  C   UNL     1       3.049   2.103   3.973  0.00  0.00    +0.013 C 
ATOM     21  C   UNL     1       1.066   1.097   5.188  0.00  0.00    +0.013 C 
ATOM     22  C   UNL     1       2.494  -1.418   5.263  0.00  0.00    +0.065 C 
ATOM     23  N   UNL     1       2.475  -2.275   6.213  0.00  0.00    -0.096 NA
ATOM     24  C   UNL     1       1.668  -1.447   3.971  0.00  0.00    +0.071 C 
ATOM     25  C   UNL     1       3.888   0.400   6.504  0.00  0.00    +0.018 C 
BRANCH  23  26
ATOM     26  O   UNL     1       1.634  -3.411   6.126  0.00  0.00    -0.409 OA
ATOM     27  H   UNL     1       1.688  -4.000   6.891  0.00  0.00    +0.328 HD
ENDBRANCH  23  26
ENDBRANCH  12  15
TORSDOF 2
