REMARK  Name = ZINC44714213
REMARK  8 active torsions:
REMARK  status: ('A' for Active; 'I' for Inactive)
REMARK    1  A    between atoms: C_1  and  C_2
REMARK    2  A    between atoms: C_3  and  C_9
REMARK    3  A    between atoms: C_4  and  C_8
REMARK    4  A    between atoms: C_9  and  C_11
REMARK    5  A    between atoms: C_9  and  N_12
REMARK    6  A    between atoms: C_13  and  C_15
REMARK    7  A    between atoms: C_26  and  C_28
REMARK    8  A    between atoms: C_31  and  C_33
REMARK                            x       y       z     vdW  Elec       q    Type
REMARK                         _______ _______ _______ _____ _____    ______ ____
ROOT
ATOM      1  C   UNL     1       2.526  -1.343  -5.213  0.00  0.00    +0.100 C 
ATOM      2  C   UNL     1       1.927  -2.694  -5.663  0.00  0.00    +0.121 C 
ATOM      3  N   UNL     1       1.418  -2.441  -7.031  0.00  0.00    -0.294 N 
ATOM      4  C   UNL     1       2.442  -1.567  -7.650  0.00  0.00    +0.115 C 
ATOM      5  C   UNL     1       2.866  -0.607  -6.520  0.00  0.00    -0.004 C 
ATOM      6  C   UNL     1       2.079   0.696  -6.613  0.00  0.00    -0.010 C 
ATOM      7  C   UNL     1       2.476   1.437  -7.893  0.00  0.00    -0.082 C 
ATOM      8  N   UNL     1       3.918   1.713  -7.873  0.00  0.00    +0.379 N 
ATOM      9  C   UNL     1       4.669   0.452  -7.877  0.00  0.00    -0.082 C 
ATOM     10  C   UNL     1       4.364  -0.330  -6.596  0.00  0.00    -0.010 C 
ATOM     11  C   UNL     1       0.280  -2.902  -7.588  0.00  0.00    +0.282 C 
ATOM     12  O   UNL     1      -0.002  -2.603  -8.734  0.00  0.00    -0.267 OA
ATOM     13  H   UNL     1       4.167   2.254  -8.688  0.00  0.00    -0.086 HD
ATOM     14  H   UNL     1       4.147   2.237  -7.042  0.00  0.00    -0.086 HD
ENDROOT
BRANCH  11  15
ATOM     15  C   UNL     1      -0.618  -3.763  -6.814  0.00  0.00    +0.190 A 
ATOM     16  C   UNL     1      -1.803  -4.305  -7.260  0.00  0.00    +0.055 A 
ATOM     17  C   UNL     1      -2.328  -5.054  -6.203  0.00  0.00    +0.051 A 
ATOM     18  C   UNL     1      -1.453  -4.944  -5.160  0.00  0.00    +0.139 A 
ATOM     19  O   UNL     1      -0.424  -4.168  -5.541  0.00  0.00    -0.450 OA
BRANCH  18  20
ATOM     20  C   UNL     1      -1.610  -5.576  -3.835  0.00  0.00    +0.052 A 
ATOM     21  C   UNL     1      -2.812  -5.451  -3.135  0.00  0.00    +0.014 A 
ATOM     22  C   UNL     1      -2.951  -6.044  -1.898  0.00  0.00    +0.001 A 
ATOM     23  C   UNL     1      -1.904  -6.763  -1.348  0.00  0.00    +0.003 A 
ATOM     24  C   UNL     1      -0.710  -6.892  -2.033  0.00  0.00    +0.039 A 
ATOM     25  C   UNL     1      -0.557  -6.308  -3.277  0.00  0.00    +0.134 A 
ATOM     26  F   UNL     1       0.608  -6.439  -3.949  0.00  0.00    -0.205 F 
ENDBRANCH  18  20
ENDBRANCH  11  15
BRANCH   1  28
ATOM     27  N   UNL     1       1.926   0.317  -3.480  0.00  0.00    -0.308 N 
ATOM     28  C   UNL     1       1.514  -0.559  -4.418  0.00  0.00    +0.219 C 
ATOM     29  O   UNL     1       0.329  -0.716  -4.622  0.00  0.00    -0.275 OA
ATOM     30  H   UNL     1       2.874   0.442  -3.317  0.00  0.00    +0.149 HD
BRANCH  27  31
ATOM     31  C   UNL     1       0.942   1.079  -2.707  0.00  0.00    +0.104 C 
ATOM     32  C   UNL     1       0.474   0.244  -1.513  0.00  0.00    +0.033 C 
BRANCH  31  35
ATOM     33  C   UNL     1      -0.350   3.926  -2.801  0.00  0.00    +0.065 C 
ATOM     34  C   UNL     1       1.012   3.587  -2.252  0.00  0.00    +0.038 A 
ATOM     35  C   UNL     1       1.572   2.355  -2.212  0.00  0.00    +0.015 A 
ATOM     36  C   UNL     1       2.837   2.477  -1.629  0.00  0.00    +0.065 A 
ATOM     37  N   UNL     1       3.031   3.736  -1.330  0.00  0.00    -0.179 NA
ATOM     38  N   UNL     1       1.895   4.457  -1.719  0.00  0.00    -0.281 N 
ATOM     39  H   UNL     1       1.765   5.413  -1.621  0.00  0.00    +0.189 HD
ATOM     40  C   UNL     1       3.810   1.351  -1.386  0.00  0.00    +0.068 C 
ENDBRANCH  31  35
ENDBRANCH  27  31
ENDBRANCH   1  28
TORSDOF 5
