REMARK  Name = ZINC39413348
REMARK  11 active torsions:
REMARK  status: ('A' for Active; 'I' for Inactive)
REMARK    1  A    between atoms: C_1  and  N_2
REMARK    2  A    between atoms: N_2  and  C_3
REMARK    3  A    between atoms: N_2  and  C_4
REMARK    4  A    between atoms: C_4  and  C_5
REMARK    5  A    between atoms: C_5  and  N_6
REMARK    6  A    between atoms: C_10  and  C_13
REMARK    7  A    between atoms: C_10  and  C_29
REMARK    8  A    between atoms: C_13  and  C_14
REMARK    9  A    between atoms: N_16  and  C_17
REMARK   10  A    between atoms: N_16  and  C_18
REMARK   11  A    between atoms: C_18  and  C_19
REMARK                            x       y       z     vdW  Elec       q    Type
REMARK                         _______ _______ _______ _____ _____    ______ ____
ROOT
ATOM      1  N   UNL     1      -3.552  -0.844  -1.620  0.00  0.00    -0.243 N 
ATOM      2  C   UNL     1      -4.117  -1.948  -2.124  0.00  0.00    +0.223 C 
ATOM      3  O   UNL     1      -3.551  -2.781  -2.799  0.00  0.00    -0.275 OA
ATOM      4  C   UNL     1      -5.574  -1.991  -1.717  0.00  0.00    +0.117 C 
ATOM      5  C   UNL     1      -5.754  -0.707  -0.882  0.00  0.00    +0.090 C 
ATOM      6  C   UNL     1      -4.379  -0.076  -0.900  0.00  0.00    +0.233 C 
ATOM      7  O   UNL     1      -4.075   0.962  -0.352  0.00  0.00    -0.274 OA
ENDROOT
BRANCH   5   8
ATOM      8  C   UNL     1      -6.769   0.203  -1.522  0.00  0.00    -0.013 A 
ATOM      9  C   UNL     1      -6.402   1.474  -1.925  0.00  0.00    +0.006 A 
ATOM     10  C   UNL     1      -7.333   2.309  -2.513  0.00  0.00    +0.000 A 
ATOM     11  C   UNL     1      -8.633   1.875  -2.698  0.00  0.00    +0.001 A 
ATOM     12  C   UNL     1      -9.002   0.606  -2.295  0.00  0.00    +0.020 A 
ATOM     13  C   UNL     1      -8.068  -0.233  -1.712  0.00  0.00    +0.045 A 
ATOM     14 CL   UNL     1      -8.529  -1.831  -1.212  0.00  0.00    -0.083 Cl
ENDBRANCH   5   8
BRANCH   1  15
ATOM     15  C   UNL     1      -2.142  -0.506  -1.835  0.00  0.00    +0.098 C 
BRANCH  15  16
ATOM     16  C   UNL     1      -1.295  -1.121  -0.719  0.00  0.00    -0.060 C 
BRANCH  16  18
ATOM     17  C   UNL     1       0.299   0.669  -0.804  0.00  0.00    -0.097 C 
ATOM     18  N   UNL     1       0.118  -0.783  -0.934  0.00  0.00    +0.377 N 
ATOM     19  C   UNL     1       0.944  -1.471   0.067  0.00  0.00    -0.097 C 
ATOM     20  H   UNL     1       0.397  -1.075  -1.859  0.00  0.00    -0.083 HD
ENDBRANCH  16  18
ENDBRANCH  15  16
ENDBRANCH   1  15
BRANCH   5  21
ATOM     21  C   UNL     1      -6.165  -1.050   0.552  0.00  0.00    +0.117 C 
BRANCH  21  22
ATOM     22  C   UNL     1      -6.358   0.221   1.337  0.00  0.00    +0.217 C 
ATOM     23  O   UNL     1      -6.286   1.295   0.779  0.00  0.00    -0.276 OA
ATOM     24  N   UNL     1      -6.611   0.165   2.660  0.00  0.00    -0.302 N 
ATOM     25  C   UNL     1      -6.697  -1.133   3.334  0.00  0.00    +0.132 C 
BRANCH  24  26
ATOM     26  C   UNL     1      -6.798   1.401   3.423  0.00  0.00    +0.140 C 
BRANCH  26  27
ATOM     27  C   UNL     1      -8.280   1.784   3.416  0.00  0.00    +0.173 C 
ATOM     28  C   UNL     1      -8.536   2.945   4.343  0.00  0.00    -0.019 C 
ATOM     29  C   UNL     1      -9.379   2.469   5.265  0.00  0.00    +0.065 C 
ATOM     30  C   UNL     1      -9.908   3.307   6.408  0.00  0.00    +0.057 C 
ATOM     31  C   UNL     1      -9.014   4.543   6.560  0.00  0.00    +0.006 C 
ATOM     32  C   UNL     1      -8.848   5.230   5.201  0.00  0.00    +0.005 C 
ATOM     33  C   UNL     1      -7.992   4.342   4.287  0.00  0.00    +0.035 C 
ATOM     34  N   UNL     1      -9.662   1.173   5.008  0.00  0.00    -0.158 NA
ATOM     35  N   UNL     1      -9.101   0.709   4.005  0.00  0.00    -0.178 NA
ENDBRANCH  26  27
ENDBRANCH  24  26
ENDBRANCH  21  22
ENDBRANCH   5  21
TORSDOF 8
