REMARK  Name = ZINC02720986
REMARK  3 active torsions:
REMARK  status: ('A' for Active; 'I' for Inactive)
REMARK    1  A    between atoms: C_1  and  C_2
REMARK    2  A    between atoms: C_2  and  C_21
REMARK    3  A    between atoms: C_6  and  C_12
REMARK                            x       y       z     vdW  Elec       q    Type
REMARK                         _______ _______ _______ _____ _____    ______ ____
ROOT
ATOM      1  C   UNL     1       0.514   1.489   0.996  0.00  0.00    +0.011 C 
ATOM      2  C   UNL     1       0.388  -0.011   0.724  0.00  0.00    -0.023 C 
ATOM      3  C   UNL     1      -1.089  -0.383   0.571  0.00  0.00    +0.058 C 
ATOM      4  C   UNL     1      -1.216  -1.870   0.352  0.00  0.00    +0.018 C 
ATOM      5  C   UNL     1      -0.313  -2.721   0.890  0.00  0.00    +0.032 C 
ATOM      6  C   UNL     1      -0.492  -4.205   0.643  0.00  0.00    +0.110 C 
ATOM      7  N   UNL     1      -1.648  -4.608  -0.176  0.00  0.00    -0.319 N 
ATOM      8  C   UNL     1      -2.462  -3.643  -0.648  0.00  0.00    +0.135 C 
ATOM      9  S   UNL     1      -3.809  -4.093  -1.603  0.00  0.00    -0.019 S 
ATOM     10  N   UNL     1      -2.255  -2.346  -0.397  0.00  0.00    -0.300 N 
ATOM     11  C   UNL     1       0.768  -2.269   1.656  0.00  0.00    +0.163 C 
ATOM     12  O   UNL     1       1.546  -3.073   2.128  0.00  0.00    -0.292 OA
ATOM     13  C   UNL     1       0.976  -0.797   1.901  0.00  0.00    +0.086 C 
ATOM     14  C   UNL     1       1.144  -0.366  -0.558  0.00  0.00    +0.011 C 
ATOM     15  H   UNL     1      -1.819  -5.542  -0.371  0.00  0.00    +0.148 HD
ATOM     16  H   UNL     1      -2.881  -1.704  -0.768  0.00  0.00    +0.154 HD
ENDROOT
BRANCH   6  17
ATOM     17  C   UNL     1       0.774  -4.726  -0.039  0.00  0.00    +0.014 C 
ATOM     18  C   UNL     1       0.896  -4.102  -1.431  0.00  0.00    +0.006 C 
ATOM     19  C   UNL     1       2.163  -4.624  -2.114  0.00  0.00    +0.000 C 
ATOM     20  C   UNL     1       2.083  -6.146  -2.242  0.00  0.00    +0.000 C 
ATOM     21  C   UNL     1       1.960  -6.769  -0.850  0.00  0.00    +0.000 C 
ATOM     22  C   UNL     1       0.694  -6.248  -0.168  0.00  0.00    +0.006 C 
ENDBRANCH   6  17
TORSDOF 1
