REMARK  Name = ZINC28571826
REMARK  6 active torsions:
REMARK  status: ('A' for Active; 'I' for Inactive)
REMARK    1  A    between atoms: C_1  and  C_2
REMARK    2  A    between atoms: C_2  and  C_3
REMARK    3  A    between atoms: C_2  and  C_4
REMARK    4  A    between atoms: C_2  and  O_28
REMARK    5  A    between atoms: C_8  and  C_13
REMARK    6  A    between atoms: C_17  and  C_19
REMARK                            x       y       z     vdW  Elec       q    Type
REMARK                         _______ _______ _______ _____ _____    ______ ____
ROOT
ATOM      1  C   UNL     1       4.242   3.132  -0.156  0.00  0.00    +0.001 A 
ATOM      2  C   UNL     1       3.465   4.155  -0.706  0.00  0.00    +0.013 A 
ATOM      3  C   UNL     1       3.855   5.471  -0.566  0.00  0.00    +0.039 A 
ATOM      4  C   UNL     1       5.022   5.785   0.109  0.00  0.00    +0.133 A 
ATOM      5  C   UNL     1       5.809   4.770   0.657  0.00  0.00    +0.039 A 
ATOM      6  C   UNL     1       5.418   3.442   0.524  0.00  0.00    +0.023 A 
ATOM      7  F   UNL     1       5.400   7.076   0.237  0.00  0.00    -0.205 F 
ENDROOT
BRANCH   1  12
ATOM      8  C   UNL     1       0.339  -0.225  -1.015  0.00  0.00    +0.077 A 
ATOM      9  C   UNL     1       0.239   1.172  -0.962  0.00  0.00    +0.044 A 
ATOM     10  C   UNL     1       1.353   1.909  -0.728  0.00  0.00    +0.096 A 
ATOM     11  N   UNL     1       2.545   1.269  -0.549  0.00  0.00    -0.284 N 
ATOM     12  C   UNL     1       3.820   1.723  -0.301  0.00  0.00    +0.075 A 
ATOM     13  C   UNL     1       4.619   0.620  -0.216  0.00  0.00    +0.141 A 
ATOM     14  N   UNL     1       3.867  -0.463  -0.404  0.00  0.00    -0.218 NA
ATOM     15  C   UNL     1       2.607  -0.099  -0.608  0.00  0.00    +0.236 A 
ATOM     16  N   UNL     1       1.498  -0.815  -0.840  0.00  0.00    -0.214 NA
BRANCH   8  18
ATOM     17  C   UNL     1      -0.515  -2.537  -1.284  0.00  0.00    +0.048 C 
ATOM     18  C   UNL     1      -0.892  -1.054  -1.276  0.00  0.00    +0.102 C 
ATOM     19  C   UNL     1      -1.923  -0.796  -0.175  0.00  0.00    +0.048 C 
BRANCH  18  20
ATOM     20  O   UNL     1      -1.448  -0.697  -2.542  0.00  0.00    -0.383 OA
ATOM     21  H   UNL     1      -1.780   0.335  -2.726  0.00  0.00    +0.211 HD
ENDBRANCH  18  20
ENDBRANCH   8  18
ENDBRANCH   1  12
BRANCH   5  22
ATOM     22  C   UNL     1       7.059   5.108   1.381  0.00  0.00    +0.109 A 
ATOM     23  C   UNL     1       7.316   4.531   2.625  0.00  0.00    +0.152 A 
ATOM     24  C   UNL     1       8.488   4.856   3.289  0.00  0.00    +0.080 A 
ATOM     25  C   UNL     1       9.365   5.748   2.685  0.00  0.00    +0.144 A 
ATOM     26  C   UNL     1       9.045   6.282   1.448  0.00  0.00    +0.150 A 
ATOM     27  N   UNL     1       7.926   5.952   0.837  0.00  0.00    -0.249 NA
ATOM     28  F   UNL     1      10.519   6.091   3.298  0.00  0.00    -0.204 F 
ATOM     29  F   UNL     1       6.434   3.668   3.176  0.00  0.00    -0.203 F 
ENDBRANCH   5  22
TORSDOF 4
