REMARK  Name = ZINC45915352
REMARK  5 active torsions:
REMARK  status: ('A' for Active; 'I' for Inactive)
REMARK    1  A    between atoms: C_4  and  C_7
REMARK    2  A    between atoms: C_11  and  S_13
REMARK    3  A    between atoms: S_13  and  C_14
REMARK    4  A    between atoms: C_14  and  C_15
REMARK    5  A    between atoms: N_21  and  C_22
REMARK                            x       y       z     vdW  Elec       q    Type
REMARK                         _______ _______ _______ _____ _____    ______ ____
ROOT
ATOM      1  C   UNL     1       9.267   1.236  -0.054  0.00  0.00    +0.146 A 
ATOM      2  N   UNL     1       9.837   1.616   1.076  0.00  0.00    -0.199 NA
ATOM      3  C   UNL     1      11.062   2.137   1.063  0.00  0.00    +0.217 A 
ATOM      4  N   UNL     1      11.711   2.274  -0.088  0.00  0.00    -0.181 NA
ATOM      5  C   UNL     1      11.135   1.891  -1.222  0.00  0.00    +0.224 A 
ATOM      6  N   UNL     1       9.912   1.366  -1.200  0.00  0.00    -0.198 NA
ATOM      7  N   UNL     1      11.805   2.033  -2.421  0.00  0.00    -0.284 N 
ATOM      8  N   UNL     1      11.656   2.534   2.243  0.00  0.00    -0.327 N 
ATOM      9  H   UNL     1      11.355   1.829  -3.256  0.00  0.00    +0.155 HD
ATOM     10  H   UNL     1      11.182   2.433   3.083  0.00  0.00    +0.145 HD
ATOM     11  H   UNL     1      12.549   2.913   2.233  0.00  0.00    +0.145 HD
ENDROOT
BRANCH   7  12
ATOM     12  C   UNL     1      13.135   2.469  -2.432  0.00  0.00    +0.034 A 
ATOM     13  C   UNL     1      14.011   2.054  -1.437  0.00  0.00    +0.026 A 
ATOM     14  C   UNL     1      15.323   2.486  -1.450  0.00  0.00    +0.040 A 
ATOM     15  C   UNL     1      15.765   3.331  -2.454  0.00  0.00    +0.124 A 
ATOM     16  C   UNL     1      14.893   3.747  -3.446  0.00  0.00    +0.040 A 
ATOM     17  C   UNL     1      13.582   3.313  -3.440  0.00  0.00    +0.026 A 
ATOM     18  F   UNL     1      17.049   3.752  -2.465  0.00  0.00    -0.205 F 
ENDBRANCH   7  12
BRANCH   1  19
ATOM     19  C   UNL     1       7.880   0.646  -0.035  0.00  0.00    +0.153 C 
BRANCH  19  20
ATOM     20  S   UNL     1       7.990  -1.153   0.170  0.00  0.00    -0.080 S 
BRANCH  20  25
ATOM     21  C   UNL     1       4.138  -1.665   0.099  0.00  0.00    +0.090 A 
ATOM     22  C   UNL     1       4.514  -2.959   0.256  0.00  0.00    +0.113 A 
ATOM     23  N   UNL     1       5.887  -2.973   0.303  0.00  0.00    -0.339 N 
ATOM     24  H   UNL     1       6.450  -3.755   0.410  0.00  0.00    +0.167 HD
ATOM     25  C   UNL     1       6.311  -1.685   0.173  0.00  0.00    +0.167 A 
ATOM     26  N   UNL     1       5.263  -0.908   0.046  0.00  0.00    -0.222 NA
BRANCH  21  30
ATOM     27  C   UNL     1       0.144  -0.238  -0.196  0.00  0.00    +0.000 A 
ATOM     28  C   UNL     1       1.201   0.652  -0.265  0.00  0.00    +0.001 A 
ATOM     29  C   UNL     1       2.499   0.194  -0.170  0.00  0.00    +0.010 A 
ATOM     30  C   UNL     1       2.745  -1.167  -0.004  0.00  0.00    +0.002 A 
ATOM     31  C   UNL     1       1.677  -2.060   0.066  0.00  0.00    +0.010 A 
ATOM     32  C   UNL     1       0.382  -1.591  -0.031  0.00  0.00    +0.001 A 
ENDBRANCH  21  30
ENDBRANCH  20  25
ENDBRANCH  19  20
ENDBRANCH   1  19
TORSDOF 5
