REMARK  Name = ZINC06301572
REMARK  10 active torsions:
REMARK  status: ('A' for Active; 'I' for Inactive)
REMARK    1  A    between atoms: C_1  and  C_2
REMARK    2  A    between atoms: C_4  and  C_40
REMARK    3  A    between atoms: C_7  and  C_14
REMARK    4  A    between atoms: C_14  and  C_16
REMARK    5  A    between atoms: C_14  and  N_70
REMARK    6  A    between atoms: N_20  and  C_21
REMARK    7  A    between atoms: C_26  and  C_27
REMARK    8  A    between atoms: C_26  and  N_70
REMARK    9  A    between atoms: C_34  and  C_35
REMARK   10  A    between atoms: C_34  and  N_70
REMARK                            x       y       z     vdW  Elec       q    Type
REMARK                         _______ _______ _______ _____ _____    ______ ____
ROOT
ATOM      1  C   UNL     1       1.212  -4.091  -1.563  0.00  0.00    +0.040 C 
ENDROOT
BRANCH   1   8
ATOM      2  C   UNL     1       0.408  -6.283  -9.190  0.00  0.00    +0.044 C 
ATOM      3  C   UNL     1       0.369  -5.998  -7.711  0.00  0.00    -0.048 A 
ATOM      4  C   UNL     1      -0.634  -6.556  -6.930  0.00  0.00    +0.007 A 
ATOM      5  C   UNL     1      -0.688  -6.310  -5.587  0.00  0.00    -0.041 A 
ATOM      6  C   UNL     1       0.278  -5.490  -4.993  0.00  0.00    +0.002 A 
ATOM      7  C   UNL     1       0.250  -5.206  -3.557  0.00  0.00    +0.018 A 
ATOM      8  C   UNL     1       1.212  -4.404  -3.037  0.00  0.00    +0.011 A 
ATOM      9  C   UNL     1       2.208  -3.856  -3.873  0.00  0.00    +0.251 A 
ATOM     10  O   UNL     1       3.060  -3.133  -3.386  0.00  0.00    -0.268 OA
ATOM     11  N   UNL     1       2.245  -4.115  -5.191  0.00  0.00    -0.322 N 
ATOM     12  H   UNL     1       2.946  -3.725  -5.736  0.00  0.00    +0.169 HD
ATOM     13  C   UNL     1       1.297  -4.923  -5.782  0.00  0.00    +0.050 A 
ATOM     14  C   UNL     1       1.331  -5.188  -7.147  0.00  0.00    +0.029 A 
ATOM     15  C   UNL     1      -1.781  -6.921  -4.749  0.00  0.00    +0.044 C 
ENDBRANCH   1   8
BRANCH   1  16
ATOM     16  C   UNL     1       2.413  -4.730  -0.915  0.00  0.00    +0.143 A 
ATOM     17  N   UNL     1       3.656  -4.322  -0.997  0.00  0.00    -0.115 NA
ATOM     18  N   UNL     1       4.386  -5.129  -0.307  0.00  0.00    -0.023 NA
ATOM     19  N   UNL     1       3.642  -6.041   0.213  0.00  0.00    -0.044 NA
ATOM     20  N   UNL     1       2.417  -5.826  -0.134  0.00  0.00    -0.227 N 
BRANCH  20  21
ATOM     21  C   UNL     1       1.252  -6.627   0.247  0.00  0.00    +0.111 C 
ATOM     22  C   UNL     1       1.126  -6.679   1.784  0.00  0.00    +0.027 C 
ATOM     23  C   UNL     1       0.633  -8.120   2.075  0.00  0.00    +0.002 C 
ATOM     24  C   UNL     1       1.409  -8.964   1.034  0.00  0.00    +0.002 C 
ATOM     25  C   UNL     1       1.431  -8.079  -0.230  0.00  0.00    +0.027 C 
ENDBRANCH  20  21
ENDBRANCH   1  16
BRANCH   1  26
ATOM     26  N   UNL     1       1.291  -2.626  -1.384  0.00  0.00    +0.397 N 
ATOM     27  H   UNL     1       2.136  -2.278  -1.852  0.00  0.00    -0.079 HD
BRANCH  26  28
ATOM     28  C   UNL     1       1.369  -2.296   0.054  0.00  0.00    -0.041 C 
BRANCH  28  29
ATOM     29  C   UNL     1       1.816  -0.864   0.199  0.00  0.00    -0.064 A 
ATOM     30  C   UNL     1       0.880   0.153   0.210  0.00  0.00    +0.004 A 
ATOM     31  C   UNL     1       1.288   1.467   0.342  0.00  0.00    +0.038 A 
ATOM     32  C   UNL     1       2.635   1.764   0.465  0.00  0.00    +0.123 A 
ATOM     33  C   UNL     1       3.572   0.744   0.454  0.00  0.00    +0.038 A 
ATOM     34  C   UNL     1       3.161  -0.569   0.322  0.00  0.00    +0.004 A 
ATOM     35  F   UNL     1       3.036   3.047   0.594  0.00  0.00    -0.205 F 
ENDBRANCH  28  29
ENDBRANCH  26  28
BRANCH  26  36
ATOM     36  C   UNL     1       0.107  -1.979  -1.988  0.00  0.00    -0.001 C 
BRANCH  36  37
ATOM     37  C   UNL     1      -1.158  -2.494  -1.352  0.00  0.00    +0.089 A 
ATOM     38  C   UNL     1      -1.824  -1.911  -0.339  0.00  0.00    +0.042 A 
ATOM     39  C   UNL     1      -2.945  -2.728  -0.062  0.00  0.00    +0.041 A 
ATOM     40  C   UNL     1      -2.897  -3.760  -0.922  0.00  0.00    +0.195 A 
ATOM     41  O   UNL     1      -1.815  -3.611  -1.705  0.00  0.00    -0.470 OA
ENDBRANCH  36  37
ENDBRANCH  26  36
ENDBRANCH   1  26
TORSDOF 8
