REMARK  Name = ZINC43162923
REMARK  8 active torsions:
REMARK  status: ('A' for Active; 'I' for Inactive)
REMARK    1  A    between atoms: C_1  and  C_2
REMARK    2  A    between atoms: C_4  and  O_35
REMARK    3  A    between atoms: C_14  and  C_20
REMARK    4  A    between atoms: C_16  and  C_18
REMARK    5  A    between atoms: C_16  and  C_19
REMARK    6  A    between atoms: C_20  and  C_22
REMARK    7  A    between atoms: C_22  and  O_23
REMARK    8  A    between atoms: C_32  and  C_33
REMARK                            x       y       z     vdW  Elec       q    Type
REMARK                         _______ _______ _______ _____ _____    ______ ____
ROOT
ATOM      1  C   UNL     1      -0.093   1.558  -0.666  0.00  0.00    +0.015 C 
ATOM      2  C   UNL     1       0.093   0.042  -0.582  0.00  0.00    +0.012 C 
ATOM      3  C   UNL     1       0.862  -0.357  -1.814  0.00  0.00    +0.044 C 
ATOM      4  C   UNL     1       1.994   0.677  -1.967  0.00  0.00    +0.154 C 
ATOM      5  C   UNL     1       2.860   0.779  -0.716  0.00  0.00    +0.153 C 
ATOM      6  C   UNL     1       2.035   0.978   0.565  0.00  0.00    +0.034 C 
ATOM      7  C   UNL     1       1.054  -0.181   0.640  0.00  0.00    +0.007 C 
ATOM      8  C   UNL     1       0.056  -0.160   1.830  0.00  0.00    +0.039 C 
ATOM      9  C   UNL     1      -1.008  -1.113   1.259  0.00  0.00    +0.162 C 
ATOM     10  C   UNL     1      -1.188  -0.500  -0.181  0.00  0.00    +0.164 C 
ATOM     11  O   UNL     1      -2.263  -1.189  -0.687  0.00  0.00    -0.332 OA
ATOM     12  C   UNL     1      -3.093  -1.454   0.484  0.00  0.00    +0.166 C 
ATOM     13  O   UNL     1      -2.362  -1.013   1.676  0.00  0.00    -0.343 OA
ATOM     14  C   UNL     1      -4.412  -0.688   0.367  0.00  0.00    +0.074 C 
ATOM     15  C   UNL     1      -3.374  -2.954   0.590  0.00  0.00    +0.074 C 
ATOM     16  C   UNL     1       2.938   0.996   1.794  0.00  0.00    +0.011 C 
ATOM     17  C   UNL     1       3.935   2.158   1.704  0.00  0.00    +0.032 C 
ATOM     18  C   UNL     1       4.659   2.032   0.375  0.00  0.00    -0.053 C 
ATOM     19  C   UNL     1       5.978   1.960   0.354  0.00  0.00    +0.051 C 
ATOM     20  C   UNL     1       6.699   1.773  -0.915  0.00  0.00    +0.179 C 
ATOM     21  O   UNL     1       7.907   1.624  -0.932  0.00  0.00    -0.288 OA
ATOM     22  C   UNL     1       5.918   1.769  -2.164  0.00  0.00    +0.047 C 
ATOM     23  C   UNL     1       4.601   1.865  -2.121  0.00  0.00    -0.009 C 
ATOM     24  C   UNL     1       3.804   1.990  -0.862  0.00  0.00    +0.044 C 
ATOM     25  C   UNL     1       2.972   3.272  -0.938  0.00  0.00    +0.023 C 
ATOM     26  F   UNL     1       3.621  -0.387  -0.585  0.00  0.00    -0.238 F 
ENDROOT
BRANCH  10  27
ATOM     27  C   UNL     1      -1.896   0.791   0.141  0.00  0.00    +0.193 C 
ATOM     28  O   UNL     1      -1.752   1.305   1.224  0.00  0.00    -0.292 OA
BRANCH  27  29
ATOM     29  C   UNL     1      -2.783   1.441  -0.889  0.00  0.00    +0.233 C 
BRANCH  29  30
ATOM     30  O   UNL     1      -3.209   2.719  -0.412  0.00  0.00    -0.387 OA
ATOM     31  H   UNL     1      -3.785   3.196  -1.026  0.00  0.00    +0.210 HD
ENDBRANCH  29  30
ENDBRANCH  27  29
ENDBRANCH  10  27
BRANCH   4  32
ATOM     32  O   UNL     1       2.820   0.300  -3.070  0.00  0.00    -0.389 OA
ATOM     33  H   UNL     1       2.352   0.256  -3.915  0.00  0.00    +0.210 HD
ENDBRANCH   4  32
TORSDOF 4
