REMARK  Name = ZINC67631012
REMARK  5 active torsions:
REMARK  status: ('A' for Active; 'I' for Inactive)
REMARK    1  A    between atoms: C_4  and  N_7
REMARK    2  A    between atoms: N_7  and  C_8
REMARK    3  A    between atoms: N_16  and  C_17
REMARK    4  A    between atoms: C_17  and  C_19
REMARK    5  A    between atoms: C_17  and  C_26
REMARK                            x       y       z     vdW  Elec       q    Type
REMARK                         _______ _______ _______ _____ _____    ______ ____
ROOT
ATOM      1  C   UNL     1       4.024  -1.954  -0.091  0.00  0.00    +0.089 C 
ATOM      2  C   UNL     1       5.406  -2.479  -0.561  0.00  0.00    +0.043 C 
ATOM      3  C   UNL     1       5.435  -3.891   0.077  0.00  0.00    +0.111 C 
ATOM      4  N   UNL     1       4.777  -3.727   1.386  0.00  0.00    -0.284 N 
ATOM      5  C   UNL     1       3.883  -2.558   1.322  0.00  0.00    +0.131 C 
ATOM      6  C   UNL     1       4.959  -4.519   2.461  0.00  0.00    +0.303 C 
ATOM      7  O   UNL     1       4.359  -4.288   3.494  0.00  0.00    -0.253 OA
ATOM      8  N   UNL     1       5.805  -5.565   2.392  0.00  0.00    -0.290 N 
ATOM      9  H   UNL     1       6.226  -5.794   1.549  0.00  0.00    +0.151 HD
ENDROOT
BRANCH   1  10
ATOM     10  N   UNL     1       4.020  -0.490  -0.031  0.00  0.00    -0.339 N 
ATOM     11  H   UNL     1       4.856  -0.005   0.055  0.00  0.00    +0.146 HD
BRANCH  10  15
ATOM     12  C   UNL     1       0.419   1.591  -0.234  0.00  0.00    +0.000 A 
ATOM     13  C   UNL     1       1.609   2.283  -0.110  0.00  0.00    +0.002 A 
ATOM     14  C   UNL     1       2.806   1.596  -0.043  0.00  0.00    +0.023 A 
ATOM     15  C   UNL     1       2.812   0.208  -0.099  0.00  0.00    +0.027 A 
ATOM     16  C   UNL     1       1.614  -0.484  -0.223  0.00  0.00    +0.023 A 
ATOM     17  C   UNL     1       0.421   0.209  -0.290  0.00  0.00    +0.002 A 
ENDBRANCH  10  15
ENDBRANCH   1  10
BRANCH   8  18
ATOM     18  C   UNL     1       6.089  -6.358   3.591  0.00  0.00    +0.133 C 
BRANCH  18  19
ATOM     19  C   UNL     1       7.120  -5.647   4.430  0.00  0.00    -0.025 A 
ATOM     20  C   UNL     1       8.183  -5.007   3.821  0.00  0.00    +0.008 A 
ATOM     21  C   UNL     1       9.129  -4.355   4.590  0.00  0.00    +0.038 A 
ATOM     22  C   UNL     1       9.012  -4.343   5.969  0.00  0.00    +0.123 A 
ATOM     23  C   UNL     1       7.946  -4.985   6.577  0.00  0.00    +0.038 A 
ATOM     24  C   UNL     1       6.999  -5.632   5.807  0.00  0.00    +0.008 A 
ATOM     25  F   UNL     1       9.936  -3.707   6.721  0.00  0.00    -0.205 F 
ENDBRANCH  18  19
BRANCH  18  26
ATOM     26  C   UNL     1       6.624  -7.731   3.180  0.00  0.00    +0.143 C 
ATOM     27  C   UNL     1       5.571  -8.469   2.326  0.00  0.00    +0.036 C 
ATOM     28  C   UNL     1       5.699  -9.930   2.836  0.00  0.00    +0.031 C 
ATOM     29  C   UNL     1       6.033  -9.692   4.330  0.00  0.00    +0.160 C 
ATOM     30  O   UNL     1       6.873  -8.525   4.346  0.00  0.00    -0.374 OA
ENDBRANCH  18  26
ENDBRANCH   8  18
TORSDOF 5
