REMARK  Name = ZINC15092749
REMARK  6 active torsions:
REMARK  status: ('A' for Active; 'I' for Inactive)
REMARK    1  A    between atoms: C_1  and  C_2
REMARK    2  A    between atoms: C_3  and  C_11
REMARK    3  A    between atoms: C_7  and  N_8
REMARK    4  A    between atoms: N_13  and  N_14
REMARK    5  A    between atoms: C_15  and  C_17
REMARK    6  A    between atoms: N_19  and  C_26
REMARK                            x       y       z     vdW  Elec       q    Type
REMARK                         _______ _______ _______ _____ _____    ______ ____
ROOT
ATOM      1  C   UNL     1       0.155   1.709  -0.079  0.00  0.00    +0.260 C 
ATOM      2  O   UNL     1       1.102   2.470  -0.061  0.00  0.00    -0.269 OA
ATOM      3  N   UNL     1       0.360   0.379  -0.153  0.00  0.00    -0.230 N 
ATOM      4  H   UNL     1      -0.396  -0.229  -0.167  0.00  0.00    +0.173 HD
ENDROOT
BRANCH   1   7
ATOM      5  C   UNL     1      -0.269   4.537   0.363  0.00  0.00    +0.047 C 
ATOM      6  C   UNL     1      -1.440   3.604   0.189  0.00  0.00    -0.008 A 
ATOM      7  C   UNL     1      -1.223   2.242  -0.023  0.00  0.00    +0.043 A 
ATOM      8  C   UNL     1      -2.313   1.384  -0.178  0.00  0.00    +0.013 A 
ATOM      9  C   UNL     1      -3.596   1.888  -0.125  0.00  0.00    +0.003 A 
ATOM     10  C   UNL     1      -3.804   3.240   0.080  0.00  0.00    +0.033 A 
ATOM     11  C   UNL     1      -2.728   4.096   0.234  0.00  0.00    +0.130 A 
BRANCH  11  12
ATOM     12  N   UNL     1      -2.959   5.542   0.453  0.00  0.00    +0.057 N 
ATOM     13  O   UNL     1      -4.091   5.958   0.623  0.00  0.00    -0.126 OA
ATOM     14  O   UNL     1      -2.018   6.314   0.465  0.00  0.00    -0.126 OA
ENDBRANCH  11  12
ENDBRANCH   1   7
BRANCH   3  15
ATOM     15  N   UNL     1       1.666  -0.126  -0.211  0.00  0.00    -0.230 N 
ATOM     16  C   UNL     1       1.871  -1.456  -0.286  0.00  0.00    +0.262 C 
ATOM     17  O   UNL     1       0.923  -2.218  -0.304  0.00  0.00    -0.269 OA
ATOM     18  H   UNL     1       2.422   0.482  -0.198  0.00  0.00    +0.173 HD
BRANCH  16  19
ATOM     19  C   UNL     1       3.240  -1.985  -0.347  0.00  0.00    +0.063 A 
ATOM     20  C   UNL     1       4.397  -1.262  -0.337  0.00  0.00    +0.099 A 
ATOM     21  N   UNL     1       5.461  -2.098  -0.406  0.00  0.00    -0.349 N 
ATOM     22  C   UNL     1       5.039  -3.410  -0.465  0.00  0.00    +0.050 A 
ATOM     23  C   UNL     1       3.636  -3.404  -0.426  0.00  0.00    +0.012 A 
ATOM     24  C   UNL     1       2.930  -4.603  -0.478  0.00  0.00    +0.011 A 
ATOM     25  C   UNL     1       3.617  -5.795  -0.557  0.00  0.00    +0.001 A 
ATOM     26  C   UNL     1       5.003  -5.803  -0.591  0.00  0.00    +0.002 A 
ATOM     27  C   UNL     1       5.714  -4.624  -0.545  0.00  0.00    +0.026 A 
ATOM     28  C   UNL     1       6.861  -1.668  -0.417  0.00  0.00    +0.149 C 
ENDBRANCH  16  19
ENDBRANCH   3  15
TORSDOF 4
