REMARK  Name = ZINC13065141
REMARK  13 active torsions:
REMARK  status: ('A' for Active; 'I' for Inactive)
REMARK    1  A    between atoms: C_1  and  C_2
REMARK    2  A    between atoms: C_2  and  C_3
REMARK    3  A    between atoms: C_3  and  C_5
REMARK    4  A    between atoms: C_3  and  N_73
REMARK    5  A    between atoms: N_9  and  C_10
REMARK    6  A    between atoms: C_10  and  C_11
REMARK    7  A    between atoms: C_11  and  C_12
REMARK    8  A    between atoms: C_18  and  C_19
REMARK    9  A    between atoms: C_18  and  N_73
REMARK   10  A    between atoms: C_24  and  C_32
REMARK   11  A    between atoms: C_25  and  C_31
REMARK   12  A    between atoms: C_33  and  C_34
REMARK   13  A    between atoms: C_33  and  N_73
REMARK                            x       y       z     vdW  Elec       q    Type
REMARK                         _______ _______ _______ _____ _____    ______ ____
ROOT
ATOM      1  N   UNL     1       0.533   4.483   1.615  0.00  0.00    +0.391 N 
ATOM      2  H   UNL     1       0.397   5.496   1.511  0.00  0.00    -0.080 HD
ENDROOT
BRANCH   1   3
ATOM      3  C   UNL     1      -0.788   3.821   1.636  0.00  0.00    +0.003 C 
BRANCH   3   4
ATOM      4  C   UNL     1      -1.683   4.556   2.600  0.00  0.00    +0.138 A 
ATOM      5  N   UNL     1      -1.478   4.727   3.884  0.00  0.00    -0.115 NA
ATOM      6  N   UNL     1      -2.466   5.407   4.357  0.00  0.00    -0.023 NA
ATOM      7  N   UNL     1      -3.299   5.666   3.411  0.00  0.00    -0.044 NA
ATOM      8  N   UNL     1      -2.852   5.158   2.312  0.00  0.00    -0.231 N 
BRANCH   8   9
ATOM      9  C   UNL     1      -3.496   5.224   0.998  0.00  0.00    +0.152 C 
BRANCH   9  10
ATOM     10  C   UNL     1      -4.531   4.104   0.879  0.00  0.00    +0.058 C 
BRANCH  10  11
ATOM     11  C   UNL     1      -5.149   4.134  -0.495  0.00  0.00    -0.046 A 
ATOM     12  C   UNL     1      -6.285   4.886  -0.726  0.00  0.00    +0.004 A 
ATOM     13  C   UNL     1      -6.849   4.917  -1.988  0.00  0.00    +0.000 A 
ATOM     14  C   UNL     1      -6.282   4.188  -3.016  0.00  0.00    +0.000 A 
ATOM     15  C   UNL     1      -5.148   3.431  -2.784  0.00  0.00    +0.000 A 
ATOM     16  C   UNL     1      -4.582   3.404  -1.523  0.00  0.00    +0.004 A 
ENDBRANCH  10  11
ENDBRANCH   9  10
ENDBRANCH   8   9
ENDBRANCH   3   4
BRANCH   3  18
ATOM     17  C   UNL     1      -2.015   1.677   2.008  0.00  0.00    +0.002 C 
ATOM     18  C   UNL     1      -0.650   2.363   2.079  0.00  0.00    -0.011 C 
ENDBRANCH   3  18
ENDBRANCH   1   3
BRANCH   1  19
ATOM     19  C   UNL     1       1.330   3.986   0.474  0.00  0.00    -0.036 C 
BRANCH  19  20
ATOM     20  C   UNL     1       0.836   4.650  -0.785  0.00  0.00    +0.001 A 
ATOM     21  C   UNL     1       1.427   5.788  -1.225  0.00  0.00    +0.017 A 
ATOM     22  C   UNL     1       0.924   6.408  -2.452  0.00  0.00    -0.001 A 
ATOM     23  C   UNL     1       1.494   7.583  -2.955  0.00  0.00    +0.010 A 
ATOM     24  C   UNL     1       1.001   8.137  -4.102  0.00  0.00    +0.004 A 
ATOM     25  C   UNL     1      -0.059   7.544  -4.774  0.00  0.00    -0.046 A 
ATOM     26  C   UNL     1      -0.636   6.387  -4.297  0.00  0.00    -0.024 A 
ATOM     27  C   UNL     1      -0.151   5.805  -3.130  0.00  0.00    +0.052 A 
ATOM     28  N   UNL     1      -0.708   4.646  -2.631  0.00  0.00    -0.322 N 
ATOM     29  H   UNL     1      -1.449   4.232  -3.100  0.00  0.00    +0.169 HD
ATOM     30  C   UNL     1      -0.235   4.081  -1.506  0.00  0.00    +0.251 A 
ATOM     31  O   UNL     1      -0.749   3.055  -1.096  0.00  0.00    -0.268 OA
ATOM     32  C   UNL     1      -1.787   5.755  -5.036  0.00  0.00    +0.046 C 
ATOM     33  C   UNL     1      -0.586   8.173  -6.039  0.00  0.00    +0.044 C 
ENDBRANCH  19  20
ENDBRANCH   1  19
BRANCH   1  34
ATOM     34  C   UNL     1       1.248   4.224   2.883  0.00  0.00    -0.045 C 
BRANCH  34  35
ATOM     35  C   UNL     1       2.414   5.208   2.999  0.00  0.00    +0.102 C 
ATOM     36  C   UNL     1       3.245   4.910   4.267  0.00  0.00    +0.032 C 
ATOM     37  C   UNL     1       3.654   6.307   4.785  0.00  0.00    +0.030 C 
ATOM     38  C   UNL     1       3.023   7.284   3.768  0.00  0.00    +0.160 C 
ATOM     39  O   UNL     1       1.921   6.552   3.188  0.00  0.00    -0.378 OA
ENDBRANCH  34  35
ENDBRANCH   1  34
TORSDOF 10
