REMARK  Name = ZINC32944620
REMARK  12 active torsions:
REMARK  status: ('A' for Active; 'I' for Inactive)
REMARK    1  A    between atoms: C_1  and  C_2
REMARK    2  A    between atoms: C_2  and  C_3
REMARK    3  A    between atoms: C_2  and  C_4
REMARK    4  A    between atoms: C_4  and  C_5
REMARK    5  A    between atoms: C_5  and  N_6
REMARK    6  A    between atoms: C_12  and  C_28
REMARK    7  A    between atoms: C_16  and  S_17
REMARK    8  A    between atoms: S_17  and  C_18
REMARK    9  A    between atoms: C_18  and  C_19
REMARK   10  A    between atoms: C_19  and  C_21
REMARK   11  A    between atoms: N_30  and  C_31
REMARK   12  A    between atoms: C_31  and  C_32
REMARK                            x       y       z     vdW  Elec       q    Type
REMARK                         _______ _______ _______ _____ _____    ______ ____
ROOT
ATOM      1  N   UNL     1      -0.020   1.094   2.454  0.00  0.00    -0.287 N 
ATOM      2  C   UNL     1       0.969   1.840   2.996  0.00  0.00    +0.262 A 
ATOM      3  O   UNL     1       1.286   2.913   2.517  0.00  0.00    -0.267 OA
ATOM      4  C   UNL     1       1.649   1.307   4.188  0.00  0.00    +0.065 A 
ATOM      5  C   UNL     1       2.681   2.005   4.815  0.00  0.00    +0.016 A 
ATOM      6  C   UNL     1       3.287   1.476   5.918  0.00  0.00    +0.014 A 
ATOM      7  C   UNL     1       2.882   0.236   6.429  0.00  0.00    +0.039 A 
ATOM      8  C   UNL     1       1.857  -0.476   5.820  0.00  0.00    +0.041 A 
ATOM      9  C   UNL     1       1.229   0.055   4.689  0.00  0.00    +0.080 A 
ATOM     10  N   UNL     1       0.226  -0.604   4.063  0.00  0.00    -0.223 NA
ATOM     11  C   UNL     1      -0.368  -0.105   3.007  0.00  0.00    +0.173 A 
ENDROOT
BRANCH   7  12
ATOM     12  C   UNL     1       3.552  -0.320   7.626  0.00  0.00    +0.244 C 
ATOM     13  O   UNL     1       3.205  -1.396   8.072  0.00  0.00    -0.270 OA
ATOM     14  N   UNL     1       4.548   0.366   8.221  0.00  0.00    -0.304 N 
ATOM     15  H   UNL     1       4.862   1.340   7.817  0.00  0.00    +0.149 HD
BRANCH  14  16
ATOM     16  C   UNL     1       5.211  -0.184   9.405  0.00  0.00    +0.179 C 
BRANCH  16  17
ATOM     17  C   UNL     1       6.279   0.771   9.872  0.00  0.00    +0.122 A 
ATOM     18  C   UNL     1       6.109   1.771  10.757  0.00  0.00    +0.046 A 
ATOM     19  C   UNL     1       7.362   2.408  10.902  0.00  0.00    +0.041 A 
ATOM     20  C   UNL     1       8.224   1.759  10.097  0.00  0.00    +0.195 A 
ATOM     21  O   UNL     1       7.564   0.765   9.481  0.00  0.00    -0.466 OA
ENDBRANCH  16  17
ENDBRANCH  14  16
ENDBRANCH   7  12
BRANCH   1  22
ATOM     22  C   UNL     1      -0.729   1.579   1.267  0.00  0.00    +0.127 C 
BRANCH  22  23
ATOM     23  C   UNL     1      -0.013   1.086   0.008  0.00  0.00    +0.025 C 
BRANCH  23  25
ATOM     24  C   UNL     1      -0.666   3.119  -1.289  0.00  0.00    +0.007 C 
ATOM     25  C   UNL     1      -0.753   1.593  -1.232  0.00  0.00    -0.016 C 
ATOM     26  C   UNL     1      -0.111   0.998  -2.487  0.00  0.00    +0.007 C 
ENDBRANCH  23  25
ENDBRANCH  22  23
ENDBRANCH   1  22
BRANCH  11  27
ATOM     27  S   UNL     1      -1.670  -1.028   2.261  0.00  0.00    -0.080 S 
BRANCH  27  28
ATOM     28  C   UNL     1      -1.704  -2.467   3.358  0.00  0.00    +0.157 C 
BRANCH  28  29
ATOM     29  C   UNL     1      -2.775  -3.424   2.900  0.00  0.00    +0.173 C 
ATOM     30  O   UNL     1      -3.449  -3.158   1.927  0.00  0.00    -0.291 OA
BRANCH  29  31
ATOM     31  C   UNL     1      -3.003  -4.678   3.632  0.00  0.00    +0.018 A 
ATOM     32  C   UNL     1      -2.223  -4.989   4.752  0.00  0.00    +0.014 A 
ATOM     33  C   UNL     1      -2.446  -6.164   5.437  0.00  0.00    +0.039 A 
ATOM     34  C   UNL     1      -3.432  -7.042   5.013  0.00  0.00    +0.123 A 
ATOM     35  C   UNL     1      -4.205  -6.741   3.900  0.00  0.00    +0.039 A 
ATOM     36  C   UNL     1      -3.996  -5.568   3.209  0.00  0.00    +0.014 A 
ATOM     37  F   UNL     1      -3.642  -8.194   5.686  0.00  0.00    -0.205 F 
ENDBRANCH  29  31
ENDBRANCH  28  29
ENDBRANCH  27  28
ENDBRANCH  11  27
TORSDOF 10
