REMARK  Name = ZINC39666698
REMARK  12 active torsions:
REMARK  status: ('A' for Active; 'I' for Inactive)
REMARK    1  A    between atoms: C_1  and  C_2
REMARK    2  A    between atoms: C_2  and  C_3
REMARK    3  A    between atoms: C_3  and  C_4
REMARK    4  A    between atoms: C_3  and  C_6
REMARK    5  A    between atoms: C_4  and  C_5
REMARK    6  A    between atoms: C_6  and  N_7
REMARK    7  A    between atoms: C_8  and  C_10
REMARK    8  A    between atoms: C_21  and  C_23
REMARK    9  A    between atoms: C_25  and  O_31
REMARK   10  A    between atoms: C_27  and  O_29
REMARK   11  A    between atoms: O_29  and  C_30
REMARK   12  A    between atoms: O_31  and  C_32
REMARK                            x       y       z     vdW  Elec       q    Type
REMARK                         _______ _______ _______ _____ _____    ______ ____
ROOT
ATOM      1  C   UNL     1       1.264  -4.194   3.626  0.00  0.00    +0.100 C 
ATOM      2  C   UNL     1       0.347  -3.611   4.725  0.00  0.00    +0.121 C 
ATOM      3  N   UNL     1      -0.472  -4.760   5.178  0.00  0.00    -0.296 N 
ATOM      4  C   UNL     1       0.472  -5.903   5.191  0.00  0.00    +0.115 C 
ATOM      5  C   UNL     1       1.346  -5.697   3.937  0.00  0.00    -0.004 C 
ATOM      6  C   UNL     1       0.792  -6.510   2.770  0.00  0.00    -0.010 C 
ATOM      7  C   UNL     1       0.937  -8.002   3.079  0.00  0.00    -0.082 C 
ATOM      8  N   UNL     1       2.352  -8.324   3.298  0.00  0.00    +0.379 N 
ATOM      9  C   UNL     1       2.852  -7.609   4.478  0.00  0.00    -0.082 C 
ATOM     10  C   UNL     1       2.788  -6.099   4.228  0.00  0.00    -0.010 C 
ATOM     11  C   UNL     1      -1.780  -4.764   5.504  0.00  0.00    +0.247 C 
ATOM     12  O   UNL     1      -2.446  -3.758   5.358  0.00  0.00    -0.270 OA
ATOM     13  H   UNL     1       2.452  -9.318   3.441  0.00  0.00    -0.086 HD
ATOM     14  H   UNL     1       2.887  -8.048   2.488  0.00  0.00    -0.086 HD
ENDROOT
BRANCH  11  15
ATOM     15  C   UNL     1      -2.404  -5.993   6.040  0.00  0.00    +0.044 A 
ATOM     16  C   UNL     1      -1.614  -6.976   6.637  0.00  0.00    +0.059 A 
ATOM     17  C   UNL     1      -2.203  -8.125   7.138  0.00  0.00    +0.124 A 
ATOM     18  C   UNL     1      -3.576  -8.301   7.045  0.00  0.00    +0.091 A 
ATOM     19  C   UNL     1      -4.365  -7.326   6.452  0.00  0.00    +0.124 A 
ATOM     20  C   UNL     1      -3.785  -6.171   5.954  0.00  0.00    +0.059 A 
BRANCH  19  21
ATOM     21  O   UNL     1      -5.710  -7.503   6.364  0.00  0.00    -0.495 OA
ATOM     22  C   UNL     1      -6.241  -8.715   6.903  0.00  0.00    +0.277 C 
ENDBRANCH  19  21
BRANCH  17  23
ATOM     23  O   UNL     1      -1.434  -9.083   7.720  0.00  0.00    -0.495 OA
ATOM     24  C   UNL     1      -2.106 -10.243   8.215  0.00  0.00    +0.277 C 
ENDBRANCH  17  23
ENDBRANCH  11  15
BRANCH   1  26
ATOM     25  N   UNL     1       1.453  -3.872   1.181  0.00  0.00    -0.315 N 
ATOM     26  C   UNL     1       0.657  -3.972   2.265  0.00  0.00    +0.218 C 
ATOM     27  O   UNL     1      -0.546  -3.884   2.144  0.00  0.00    -0.275 OA
ATOM     28  H   UNL     1       2.415  -3.942   1.278  0.00  0.00    +0.149 HD
BRANCH  25  29
ATOM     29  C   UNL     1       0.864  -3.656  -0.143  0.00  0.00    +0.107 C 
BRANCH  29  30
ATOM     30  C   UNL     1       1.976  -3.579  -1.190  0.00  0.00    +0.006 C 
BRANCH  30  32
ATOM     31  C   UNL     1       3.860  -4.828  -2.255  0.00  0.00    +0.004 C 
ATOM     32  C   UNL     1       2.687  -4.931  -1.279  0.00  0.00    +0.002 C 
ENDBRANCH  30  32
BRANCH  30  33
ATOM     33  C   UNL     1       1.372  -3.231  -2.552  0.00  0.00    +0.002 C 
ATOM     34  C   UNL     1       0.741  -1.838  -2.488  0.00  0.00    +0.004 C 
ENDBRANCH  30  33
ENDBRANCH  29  30
ENDBRANCH  25  29
ENDBRANCH   1  26
TORSDOF 8
