REMARK  Name = ZINC09201843
REMARK  11 active torsions:
REMARK  status: ('A' for Active; 'I' for Inactive)
REMARK    1  A    between atoms: C_1  and  C_2
REMARK    2  A    between atoms: C_2  and  O_3
REMARK    3  A    between atoms: O_3  and  C_4
REMARK    4  A    between atoms: C_7  and  S_10
REMARK    5  A    between atoms: S_10  and  N_13
REMARK    6  A    between atoms: N_13  and  C_14
REMARK    7  A    between atoms: C_18  and  C_20
REMARK    8  A    between atoms: N_22  and  C_23
REMARK    9  A    between atoms: C_23  and  C_25
REMARK   10  A    between atoms: C_23  and  C_26
REMARK   11  A    between atoms: C_29  and  N_32
REMARK                            x       y       z     vdW  Elec       q    Type
REMARK                         _______ _______ _______ _____ _____    ______ ____
ROOT
ATOM      1  C   UNL     1       1.936 -10.440   3.686  0.00  0.00    +0.049 A 
ATOM      2  C   UNL     1       0.638 -10.065   4.012  0.00  0.00    +0.024 A 
ATOM      3  C   UNL     1       0.074  -8.940   3.441  0.00  0.00    +0.003 A 
ATOM      4  C   UNL     1       0.797  -8.178   2.547  0.00  0.00    +0.013 A 
ATOM      5  C   UNL     1       2.100  -8.549   2.208  0.00  0.00    +0.038 A 
ATOM      6  C   UNL     1       2.669  -9.684   2.784  0.00  0.00    +0.037 A 
ENDROOT
BRANCH   5   7
ATOM      7  C   UNL     1       2.875  -7.737   1.245  0.00  0.00    +0.245 C 
ATOM      8  O   UNL     1       4.011  -8.059   0.955  0.00  0.00    -0.270 OA
ATOM      9  N   UNL     1       2.322  -6.641   0.689  0.00  0.00    -0.305 N 
ATOM     10  H   UNL     1       1.416  -6.384   0.921  0.00  0.00    +0.150 HD
BRANCH   9  11
ATOM     11  C   UNL     1       3.091  -5.836  -0.265  0.00  0.00    +0.100 C 
ATOM     12  C   UNL     1       2.952  -6.436  -1.665  0.00  0.00    +0.033 C 
BRANCH  11  13
ATOM     13  C   UNL     1       2.565  -4.424  -0.269  0.00  0.00    -0.027 A 
ATOM     14  C   UNL     1       3.445  -3.360  -0.346  0.00  0.00    +0.007 A 
ATOM     15  C   UNL     1       2.966  -2.065  -0.351  0.00  0.00    +0.026 A 
ATOM     16  C   UNL     1       1.600  -1.831  -0.278  0.00  0.00    +0.047 A 
ATOM     17  C   UNL     1       0.719  -2.901  -0.195  0.00  0.00    +0.026 A 
ATOM     18  C   UNL     1       1.203  -4.194  -0.196  0.00  0.00    +0.007 A 
BRANCH  16  19
ATOM     19  N   UNL     1       1.111  -0.517  -0.282  0.00  0.00    -0.306 N 
ATOM     20  C   UNL     1      -0.205  -0.137  -0.216  0.00  0.00    +0.112 A 
ATOM     21  C   UNL     1      -0.224   1.209  -0.248  0.00  0.00    +0.130 A 
ATOM     22  N   UNL     1       1.042   1.644  -0.331  0.00  0.00    -0.244 NA
ATOM     23  C   UNL     1       1.851   0.620  -0.353  0.00  0.00    +0.204 A 
ENDBRANCH  16  19
ENDBRANCH  11  13
ENDBRANCH   9  11
ENDBRANCH   5   7
BRANCH   1  24
ATOM     24  N   UNL     1       2.502 -11.578   4.266  0.00  0.00    -0.216 N 
ATOM     25  H   UNL     1       2.977 -12.218   3.715  0.00  0.00    +0.174 HD
BRANCH  24  26
ATOM     26  S   UNL     1       2.362 -11.832   5.896  0.00  0.00    +0.072 S 
ATOM     27  O   UNL     1       0.979 -11.723   6.207  0.00  0.00    -0.150 OA
ATOM     28  O   UNL     1       3.119 -12.998   6.192  0.00  0.00    -0.150 OA
BRANCH  26  32
ATOM     29  C   UNL     1       4.431  -8.381   7.974  0.00  0.00    +0.121 A 
ATOM     30  C   UNL     1       3.061  -8.342   7.758  0.00  0.00    +0.047 A 
ATOM     31  C   UNL     1       2.432  -9.396   7.124  0.00  0.00    +0.032 A 
ATOM     32  C   UNL     1       3.167 -10.489   6.705  0.00  0.00    +0.109 A 
ATOM     33  C   UNL     1       4.531 -10.534   6.924  0.00  0.00    +0.032 A 
ATOM     34  C   UNL     1       5.166  -9.480   7.553  0.00  0.00    +0.047 A 
BRANCH  29  35
ATOM     35  O   UNL     1       5.052  -7.346   8.597  0.00  0.00    -0.492 OA
BRANCH  35  37
ATOM     36  C   UNL     1       6.982  -6.204   9.498  0.00  0.00    +0.048 C 
ATOM     37  C   UNL     1       6.464  -7.455   8.786  0.00  0.00    +0.225 C 
ENDBRANCH  35  37
ENDBRANCH  29  35
ENDBRANCH  26  32
ENDBRANCH  24  26
ENDBRANCH   1  24
TORSDOF 9
