REMARK  Name = ZINC08775511
REMARK  12 active torsions:
REMARK  status: ('A' for Active; 'I' for Inactive)
REMARK    1  A    between atoms: C_1  and  C_2
REMARK    2  A    between atoms: C_4  and  C_33
REMARK    3  A    between atoms: C_5  and  C_32
REMARK    4  A    between atoms: C_6  and  S_9
REMARK    5  A    between atoms: C_7  and  C_8
REMARK    6  A    between atoms: S_9  and  N_12
REMARK    7  A    between atoms: C_15  and  C_18
REMARK    8  A    between atoms: C_18  and  O_20
REMARK    9  A    between atoms: O_20  and  C_21
REMARK   10  A    between atoms: C_21  and  C_23
REMARK   11  A    between atoms: C_21  and  C_24
REMARK   12  A    between atoms: N_26  and  C_27
REMARK                            x       y       z     vdW  Elec       q    Type
REMARK                         _______ _______ _______ _____ _____    ______ ____
ROOT
ATOM      1  N   UNL     1       0.461   3.661  -1.097  0.00  0.00    -0.177 NA
ATOM      2  C   UNL     1       1.256   3.669   0.138  0.00  0.00    +0.110 C 
ATOM      3  C   UNL     1       1.889   2.287   0.326  0.00  0.00    +0.032 C 
ATOM      4  C   UNL     1       0.793   1.219   0.290  0.00  0.00    +0.100 C 
ATOM      5  C   UNL     1       0.093   1.249  -1.070  0.00  0.00    +0.032 C 
ATOM      6  C   UNL     1      -0.561   2.620  -1.274  0.00  0.00    +0.110 C 
ENDROOT
BRANCH   1   7
ATOM      7  S   UNL     1       0.710   4.805  -2.269  0.00  0.00    +0.061 S 
ATOM      8  O   UNL     1      -0.528   4.968  -2.947  0.00  0.00    -0.153 OA
ATOM      9  O   UNL     1       1.385   5.888  -1.642  0.00  0.00    -0.153 OA
BRANCH   7  15
ATOM     10  C   UNL     1       1.743   2.531  -6.860  0.00  0.00    +0.044 C 
ATOM     11  C   UNL     1       2.253   3.077  -5.552  0.00  0.00    -0.045 A 
ATOM     12  C   UNL     1       3.605   3.039  -5.267  0.00  0.00    +0.007 A 
ATOM     13  C   UNL     1       4.074   3.540  -4.067  0.00  0.00    -0.045 A 
ATOM     14  C   UNL     1       3.189   4.079  -3.151  0.00  0.00    -0.021 A 
ATOM     15  C   UNL     1       1.837   4.118  -3.436  0.00  0.00    +0.112 A 
ATOM     16  C   UNL     1       1.369   3.612  -4.634  0.00  0.00    -0.021 A 
ATOM     17  C   UNL     1      -0.106   3.649  -4.942  0.00  0.00    +0.046 C 
ATOM     18  C   UNL     1       3.700   4.625  -1.843  0.00  0.00    +0.046 C 
ATOM     19  C   UNL     1       5.548   3.499  -3.757  0.00  0.00    +0.044 C 
ENDBRANCH   7  15
ENDBRANCH   1   7
BRANCH   4  20
ATOM     20  C   UNL     1       1.408  -0.139   0.509  0.00  0.00    +0.311 C 
ATOM     21  O   UNL     1       2.600  -0.243   0.675  0.00  0.00    -0.251 OA
BRANCH  20  22
ATOM     22  O   UNL     1       0.631  -1.234   0.518  0.00  0.00    -0.452 OA
BRANCH  22  23
ATOM     23  C   UNL     1       1.291  -2.509   0.734  0.00  0.00    +0.258 C 
ATOM     24  C   UNL     1       1.709  -3.101  -0.614  0.00  0.00    +0.062 C 
BRANCH  23  25
ATOM     25  C   UNL     1       0.344  -3.455   1.426  0.00  0.00    +0.254 C 
ATOM     26  O   UNL     1      -0.805  -3.122   1.628  0.00  0.00    -0.272 OA
ATOM     27  N   UNL     1       0.773  -4.670   1.820  0.00  0.00    -0.309 N 
ATOM     28  H   UNL     1       1.691  -4.936   1.658  0.00  0.00    +0.149 HD
BRANCH  27  29
ATOM     29  C   UNL     1      -0.148  -5.590   2.493  0.00  0.00    +0.073 C 
ATOM     30  C   UNL     1      -0.135  -5.332   4.014  0.00  0.00    +0.022 C 
ATOM     31  C   UNL     1      -0.267  -6.743   4.639  0.00  0.00    +0.002 C 
ATOM     32  C   UNL     1       0.593  -7.617   3.693  0.00  0.00    +0.002 C 
ATOM     33  C   UNL     1       0.315  -7.043   2.289  0.00  0.00    +0.022 C 
ENDBRANCH  27  29
ENDBRANCH  23  25
ENDBRANCH  22  23
ENDBRANCH  20  22
ENDBRANCH   4  20
TORSDOF 7
