REMARK  Name = ZINC35805098
REMARK  18 active torsions:
REMARK  status: ('A' for Active; 'I' for Inactive)
REMARK    1  A    between atoms: C_1  and  C_2
REMARK    2  A    between atoms: C_2  and  C_3
REMARK    3  A    between atoms: C_3  and  C_4
REMARK    4  A    between atoms: C_4  and  N_5
REMARK    5  A    between atoms: N_5  and  C_6
REMARK    6  A    between atoms: C_6  and  C_7
REMARK    7  A    between atoms: N_9  and  C_10
REMARK    8  A    between atoms: N_9  and  C_22
REMARK    9  A    between atoms: C_10  and  C_11
REMARK   10  A    between atoms: C_11  and  C_12
REMARK   11  A    between atoms: C_15  and  O_20
REMARK   12  A    between atoms: C_16  and  O_18
REMARK   13  A    between atoms: O_18  and  C_19
REMARK   14  A    between atoms: O_20  and  C_21
REMARK   15  A    between atoms: C_22  and  C_23
REMARK   16  A    between atoms: C_26  and  C_28
REMARK   17  A    between atoms: N_31  and  C_32
REMARK   18  A    between atoms: C_37  and  C_38
REMARK                            x       y       z     vdW  Elec       q    Type
REMARK                         _______ _______ _______ _____ _____    ______ ____
ROOT
ATOM      1  C   UNL     1      -3.233  -4.211  -1.704  0.00  0.00    +0.233 C 
ATOM      2  O   UNL     1      -2.531  -4.943  -1.038  0.00  0.00    -0.274 OA
ATOM      3  N   UNL     1      -3.780  -4.661  -2.850  0.00  0.00    -0.295 N 
ENDROOT
BRANCH   1   4
ATOM      4  C   UNL     1      -3.493  -2.798  -1.248  0.00  0.00    +0.205 C 
BRANCH   4   5
ATOM      5  N   UNL     1      -2.792  -2.555   0.015  0.00  0.00    -0.277 N 
ATOM      6  C   UNL     1      -3.409  -2.806   1.187  0.00  0.00    +0.307 C 
ATOM      7  O   UNL     1      -4.547  -3.235   1.195  0.00  0.00    -0.252 OA
ATOM      8  N   UNL     1      -2.765  -2.583   2.349  0.00  0.00    -0.269 N 
ATOM      9  H   UNL     1      -1.831  -2.320   2.343  0.00  0.00    +0.156 HD
BRANCH   8  10
ATOM     10  C   UNL     1      -3.442  -2.731   3.564  0.00  0.00    +0.038 A 
ATOM     11  C   UNL     1      -4.824  -2.595   3.612  0.00  0.00    +0.023 A 
ATOM     12  C   UNL     1      -5.490  -2.743   4.813  0.00  0.00    +0.002 A 
ATOM     13  C   UNL     1      -4.782  -3.025   5.967  0.00  0.00    +0.000 A 
ATOM     14  C   UNL     1      -3.407  -3.160   5.923  0.00  0.00    +0.005 A 
ATOM     15  C   UNL     1      -2.736  -3.020   4.724  0.00  0.00    -0.029 A 
ATOM     16  C   UNL     1      -1.238  -3.174   4.676  0.00  0.00    +0.045 C 
ENDBRANCH   8  10
BRANCH   5  17
ATOM     17  C   UNL     1      -1.421  -2.039   0.005  0.00  0.00    +0.110 C 
BRANCH  17  18
ATOM     18  C   UNL     1      -1.451  -0.510   0.024  0.00  0.00    +0.019 C 
BRANCH  18  20
ATOM     19  C   UNL     1      -0.050   1.559   0.032  0.00  0.00    +0.004 C 
ATOM     20  C   UNL     1      -0.019   0.029   0.014  0.00  0.00    -0.002 C 
ENDBRANCH  18  20
ENDBRANCH  17  18
ENDBRANCH   5  17
ENDBRANCH   4   5
ENDBRANCH   1   4
BRANCH   3  21
ATOM     21  C   UNL     1      -3.527  -6.034  -3.293  0.00  0.00    +0.113 C 
BRANCH  21  22
ATOM     22  C   UNL     1      -4.599  -6.961  -2.717  0.00  0.00    +0.054 C 
BRANCH  22  23
ATOM     23  C   UNL     1      -4.340  -8.374  -3.172  0.00  0.00    -0.042 A 
ATOM     24  C   UNL     1      -4.897  -8.832  -4.352  0.00  0.00    +0.007 A 
ATOM     25  C   UNL     1      -4.661 -10.127  -4.774  0.00  0.00    +0.049 A 
ATOM     26  C   UNL     1      -3.865 -10.969  -4.014  0.00  0.00    +0.161 A 
ATOM     27  C   UNL     1      -3.304 -10.508  -2.827  0.00  0.00    +0.162 A 
ATOM     28  C   UNL     1      -3.540  -9.207  -2.413  0.00  0.00    +0.053 A 
BRANCH  27  29
ATOM     29  O   UNL     1      -2.522 -11.331  -2.078  0.00  0.00    -0.491 OA
ATOM     30  C   UNL     1      -1.979 -10.789  -0.872  0.00  0.00    +0.277 C 
ENDBRANCH  27  29
BRANCH  26  31
ATOM     31  O   UNL     1      -3.633 -12.244  -4.427  0.00  0.00    -0.491 OA
ATOM     32  C   UNL     1      -4.242 -12.649  -5.655  0.00  0.00    +0.277 C 
ENDBRANCH  26  31
ENDBRANCH  22  23
ENDBRANCH  21  22
ENDBRANCH   3  21
BRANCH   3  33
ATOM     33  C   UNL     1      -4.627  -3.776  -3.654  0.00  0.00    +0.150 C 
BRANCH  33  34
ATOM     34  C   UNL     1      -3.774  -3.031  -4.649  0.00  0.00    +0.007 A 
ATOM     35  C   UNL     1      -3.437  -3.380  -5.915  0.00  0.00    +0.013 A 
ATOM     36  C   UNL     1      -2.634  -2.530  -6.652  0.00  0.00    +0.011 A 
ATOM     37  C   UNL     1      -2.207  -1.374  -6.088  0.00  0.00    -0.013 A 
ATOM     38  S   UNL     1      -2.951  -1.457  -4.468  0.00  0.00    -0.097 S 
ATOM     39  C   UNL     1      -1.335  -0.296  -6.678  0.00  0.00    +0.051 C 
ENDBRANCH  33  34
ENDBRANCH   3  33
TORSDOF 13
