REMARK  Name = ZINC39488196
REMARK  8 active torsions:
REMARK  status: ('A' for Active; 'I' for Inactive)
REMARK    1  A    between atoms: C_1  and  C_2
REMARK    2  A    between atoms: C_2  and  C_29
REMARK    3  A    between atoms: N_4  and  C_22
REMARK    4  A    between atoms: N_7  and  C_8
REMARK    5  A    between atoms: C_8  and  C_9
REMARK    6  A    between atoms: C_9  and  C_16
REMARK    7  A    between atoms: C_27  and  O_28
REMARK    8  A    between atoms: C_34  and  O_35
REMARK                            x       y       z     vdW  Elec       q    Type
REMARK                         _______ _______ _______ _____ _____    ______ ____
ROOT
ATOM      1  C   UNL     1       1.320   1.809  -0.421  0.00  0.00    +0.039 C 
ATOM      2  C   UNL     1       0.933   0.330  -0.376  0.00  0.00    +0.081 C 
ATOM      3  C   UNL     1       1.875  -0.503  -1.268  0.00  0.00    +0.146 C 
ATOM      4  N   UNL     1       2.520  -1.432  -0.329  0.00  0.00    -0.250 N 
ATOM      5  C   UNL     1       2.054  -1.204   0.906  0.00  0.00    +0.310 C 
ATOM      6  O   UNL     1       2.420  -1.833   1.880  0.00  0.00    -0.252 OA
ATOM      7  N   UNL     1       1.148  -0.219   0.971  0.00  0.00    -0.274 N 
ENDROOT
BRANCH   4   8
ATOM      8  C   UNL     1       3.471  -2.403  -0.671  0.00  0.00    +0.079 A 
ATOM      9  C   UNL     1       4.822  -2.090  -0.651  0.00  0.00    +0.027 A 
ATOM     10  C   UNL     1       5.758  -3.049  -0.989  0.00  0.00    +0.002 A 
ATOM     11  C   UNL     1       5.352  -4.321  -1.347  0.00  0.00    +0.004 A 
ATOM     12  C   UNL     1       4.007  -4.640  -1.369  0.00  0.00    +0.047 A 
ATOM     13  C   UNL     1       3.062  -3.686  -1.026  0.00  0.00    +0.138 A 
BRANCH  13  14
ATOM     14  O   UNL     1       1.739  -4.000  -1.042  0.00  0.00    -0.505 OA
ATOM     15  H   UNL     1       1.307  -3.841  -1.893  0.00  0.00    +0.292 HD
ENDBRANCH  13  14
ENDBRANCH   4   8
BRANCH   2  16
ATOM     16  C   UNL     1      -0.501   0.146  -0.799  0.00  0.00    +0.019 A 
ATOM     17  C   UNL     1      -1.388  -0.512   0.030  0.00  0.00    +0.009 A 
ATOM     18  C   UNL     1      -2.704  -0.681  -0.357  0.00  0.00    +0.001 A 
ATOM     19  C   UNL     1      -3.136  -0.192  -1.577  0.00  0.00    +0.004 A 
ATOM     20  C   UNL     1      -2.254   0.468  -2.410  0.00  0.00    +0.046 A 
ATOM     21  C   UNL     1      -0.934   0.643  -2.020  0.00  0.00    +0.122 A 
BRANCH  21  22
ATOM     22  O   UNL     1      -0.065   1.296  -2.836  0.00  0.00    -0.506 OA
ATOM     23  H   UNL     1       0.399   0.720  -3.458  0.00  0.00    +0.292 HD
ENDBRANCH  21  22
ENDBRANCH   2  16
BRANCH   7  24
ATOM     24  C   UNL     1       0.478   0.239   2.191  0.00  0.00    +0.117 C 
BRANCH  24  25
ATOM     25  C   UNL     1       1.453   1.069   3.028  0.00  0.00    -0.008 C 
ATOM     26  C   UNL     1       0.826   1.376   4.391  0.00  0.00    +0.027 C 
ATOM     27  C   UNL     1      -0.441   2.210   4.188  0.00  0.00    +0.120 C 
ATOM     28  N   UNL     1      -0.100   3.459   3.494  0.00  0.00    -0.145 NA
ATOM     29  C   UNL     1       0.460   3.191   2.163  0.00  0.00    +0.120 C 
ATOM     30  C   UNL     1       1.754   2.386   2.306  0.00  0.00    +0.027 C 
ATOM     31  F   UNL     1      -1.133   4.245   3.415  0.00  0.00    -0.133 F 
BRANCH  25  32
ATOM     32  C   UNL     1       2.752   0.286   3.226  0.00  0.00    -0.003 C 
ATOM     33  C   UNL     1       2.487  -0.923   4.124  0.00  0.00    +0.004 C 
ATOM     34  C   UNL     1       3.786  -1.706   4.322  0.00  0.00    +0.000 C 
ATOM     35  C   UNL     1       4.831  -0.802   4.980  0.00  0.00    +0.000 C 
ATOM     36  C   UNL     1       5.097   0.407   4.081  0.00  0.00    +0.000 C 
ATOM     37  C   UNL     1       3.797   1.190   3.883  0.00  0.00    +0.004 C 
ENDBRANCH  25  32
ENDBRANCH  24  25
ENDBRANCH   7  24
TORSDOF 7
