REMARK  Name = ZINC40167894
REMARK  10 active torsions:
REMARK  status: ('A' for Active; 'I' for Inactive)
REMARK    1  A    between atoms: C_1  and  C_2
REMARK    2  A    between atoms: C_2  and  C_3
REMARK    3  A    between atoms: C_3  and  C_5
REMARK    4  A    between atoms: C_3  and  O_18
REMARK    5  A    between atoms: N_7  and  C_8
REMARK    6  A    between atoms: C_9  and  C_15
REMARK    7  A    between atoms: C_10  and  C_14
REMARK    8  A    between atoms: C_11  and  C_13
REMARK    9  A    between atoms: O_18  and  C_19
REMARK   10  A    between atoms: C_29  and  C_30
REMARK                            x       y       z     vdW  Elec       q    Type
REMARK                         _______ _______ _______ _____ _____    ______ ____
ROOT
ATOM      1  C   UNL     1       0.343   0.007   1.315  0.00  0.00    +0.259 C 
ENDROOT
BRANCH   1   2
ATOM      2  C   UNL     1       0.036  -1.465   1.407  0.00  0.00    +0.258 C 
ATOM      3  O   UNL     1       0.916  -2.280   1.231  0.00  0.00    -0.271 OA
ATOM      4  N   UNL     1      -1.218  -1.876   1.684  0.00  0.00    -0.276 N 
ATOM      5  H   UNL     1      -1.937  -1.229   1.749  0.00  0.00    +0.155 HD
BRANCH   4   6
ATOM      6  C   UNL     1      -1.479  -3.224   1.877  0.00  0.00    +0.084 A 
ATOM      7  C   UNL     1      -2.696  -3.825   2.162  0.00  0.00    +0.068 A 
ATOM      8  C   UNL     1      -2.687  -5.262   2.315  0.00  0.00    -0.027 A 
ATOM      9  C   UNL     1      -1.492  -5.861   2.163  0.00  0.00    -0.008 A 
ATOM     10  S   UNL     1      -0.396  -4.504   1.811  0.00  0.00    -0.078 S 
ATOM     11  C   UNL     1      -1.162  -7.328   2.262  0.00  0.00    +0.052 C 
ATOM     12  C   UNL     1      -3.939  -6.041   2.626  0.00  0.00    +0.045 C 
BRANCH   7  13
ATOM     13  C   UNL     1      -3.928  -3.043   2.301  0.00  0.00    +0.244 C 
ATOM     14  O   UNL     1      -4.627  -2.829   1.327  0.00  0.00    -0.270 OA
ATOM     15  N   UNL     1      -4.287  -2.560   3.507  0.00  0.00    -0.325 N 
ATOM     16  H   UNL     1      -3.731  -2.730   4.283  0.00  0.00    +0.145 HD
ATOM     17  H   UNL     1      -5.102  -2.042   3.599  0.00  0.00    +0.145 HD
ENDBRANCH   7  13
ENDBRANCH   4   6
ENDBRANCH   1   2
BRANCH   1  19
ATOM     18  C   UNL     1      -0.201   2.124   0.104  0.00  0.00    +0.008 C 
ATOM     19  C   UNL     1      -0.377   0.604   0.104  0.00  0.00    +0.051 C 
ENDBRANCH   1  19
BRANCH   1  20
ATOM     20  O   UNL     1       1.752   0.192   1.171  0.00  0.00    -0.472 OA
BRANCH  20  21
ATOM     21  C   UNL     1       2.292   1.303   1.741  0.00  0.00    +0.212 A 
ATOM     22  C   UNL     1       2.199   1.505   3.142  0.00  0.00    +0.235 A 
ATOM     23  O   UNL     1       1.640   0.696   3.864  0.00  0.00    -0.283 OA
ATOM     24  C   UNL     1       2.806   2.732   3.692  0.00  0.00    +0.068 A 
ATOM     25  C   UNL     1       2.763   3.013   5.057  0.00  0.00    +0.015 A 
ATOM     26  C   UNL     1       3.342   4.170   5.532  0.00  0.00    +0.001 A 
ATOM     27  C   UNL     1       3.964   5.051   4.658  0.00  0.00    +0.004 A 
ATOM     28  C   UNL     1       4.013   4.785   3.307  0.00  0.00    +0.047 A 
ATOM     29  C   UNL     1       3.435   3.623   2.807  0.00  0.00    +0.140 A 
ATOM     30  O   UNL     1       3.473   3.345   1.488  0.00  0.00    -0.451 OA
ATOM     31  C   UNL     1       2.930   2.229   0.972  0.00  0.00    +0.181 A 
BRANCH  31  32
ATOM     32  C   UNL     1       3.023   2.002  -0.483  0.00  0.00    +0.021 A 
ATOM     33  C   UNL     1       2.734   3.037  -1.376  0.00  0.00    +0.012 A 
ATOM     34  C   UNL     1       2.823   2.817  -2.734  0.00  0.00    +0.001 A 
ATOM     35  C   UNL     1       3.198   1.574  -3.214  0.00  0.00    +0.000 A 
ATOM     36  C   UNL     1       3.487   0.544  -2.336  0.00  0.00    +0.001 A 
ATOM     37  C   UNL     1       3.408   0.752  -0.975  0.00  0.00    +0.012 A 
ENDBRANCH  31  32
ENDBRANCH  20  21
ENDBRANCH   1  20
TORSDOF 7
