REMARK  Name = ZINC09199599
REMARK  9 active torsions:
REMARK  status: ('A' for Active; 'I' for Inactive)
REMARK    1  A    between atoms: C_1  and  C_2
REMARK    2  A    between atoms: C_2  and  C_3
REMARK    3  A    between atoms: C_2  and  C_4
REMARK    4  A    between atoms: C_2  and  C_5
REMARK    5  A    between atoms: C_8  and  C_11
REMARK    6  A    between atoms: C_14  and  S_17
REMARK    7  A    between atoms: S_17  and  C_18
REMARK    8  A    between atoms: C_18  and  C_19
REMARK    9  A    between atoms: C_22  and  C_25
REMARK                            x       y       z     vdW  Elec       q    Type
REMARK                         _______ _______ _______ _____ _____    ______ ____
ROOT
ATOM      1  C   UNL     1      -0.582  -2.109  -0.004  0.00  0.00    +0.162 A 
ATOM      2  N   UNL     1      -1.086  -0.829   0.013  0.00  0.00    -0.316 N 
ATOM      3  H   UNL     1      -2.020  -0.567   0.029  0.00  0.00    +0.169 HD
ATOM      4  C   UNL     1       0.002  -0.004   0.002  0.00  0.00    +0.190 A 
ATOM      5  N   UNL     1       1.071  -0.769  -0.012  0.00  0.00    -0.122 NA
ATOM      6  N   UNL     1       0.727  -2.007  -0.015  0.00  0.00    -0.129 NA
ENDROOT
BRANCH   1  10
ATOM      7  C   UNL     1      -2.835  -5.710  -0.002  0.00  0.00    -0.042 A 
ATOM      8  C   UNL     1      -1.452  -5.763  -0.016  0.00  0.00    +0.005 A 
ATOM      9  C   UNL     1      -0.715  -4.597  -0.017  0.00  0.00    +0.012 A 
ATOM     10  C   UNL     1      -1.366  -3.362  -0.004  0.00  0.00    +0.019 A 
ATOM     11  C   UNL     1      -2.761  -3.317   0.016  0.00  0.00    +0.012 A 
ATOM     12  C   UNL     1      -3.487  -4.490   0.011  0.00  0.00    +0.005 A 
BRANCH   7  14
ATOM     13  C   UNL     1      -3.281  -7.809   1.241  0.00  0.00    +0.015 C 
ATOM     14  C   UNL     1      -3.634  -6.988  -0.001  0.00  0.00    -0.013 C 
ATOM     15  C   UNL     1      -5.127  -6.655   0.016  0.00  0.00    +0.015 C 
ATOM     16  C   UNL     1      -3.305  -7.796  -1.257  0.00  0.00    +0.015 C 
ENDBRANCH   7  14
ENDBRANCH   1  10
BRANCH   4  17
ATOM     17  S   UNL     1      -0.022   1.758   0.012  0.00  0.00    -0.081 S 
BRANCH  17  18
ATOM     18  C   UNL     1       1.756   2.096  -0.004  0.00  0.00    +0.112 C 
BRANCH  18  19
ATOM     19  C   UNL     1       1.984   3.586   0.002  0.00  0.00    -0.037 A 
ATOM     20  C   UNL     1       2.082   4.272  -1.195  0.00  0.00    +0.006 A 
ATOM     21  C   UNL     1       2.286   5.637  -1.197  0.00  0.00    +0.019 A 
ATOM     22  C   UNL     1       2.404   6.323   0.013  0.00  0.00    +0.052 A 
ATOM     23  C   UNL     1       2.308   5.624   1.218  0.00  0.00    +0.019 A 
ATOM     24  C   UNL     1       2.099   4.260   1.205  0.00  0.00    +0.006 A 
BRANCH  22  25
ATOM     25  C   UNL     1       2.620   7.739   0.019  0.00  0.00    +0.099 C 
ATOM     26  N   UNL     1       2.792   8.862   0.023  0.00  0.00    -0.191 NA
ENDBRANCH  22  25
ENDBRANCH  18  19
ENDBRANCH  17  18
ENDBRANCH   4  17
TORSDOF 6
