REMARK  Name = ZINC01408977
REMARK  8 active torsions:
REMARK  status: ('A' for Active; 'I' for Inactive)
REMARK    1  A    between atoms: C_1  and  O_2
REMARK    2  A    between atoms: O_2  and  C_3
REMARK    3  A    between atoms: C_5  and  C_13
REMARK    4  A    between atoms: C_7  and  O_11
REMARK    5  A    between atoms: C_8  and  O_9
REMARK    6  A    between atoms: O_9  and  C_10
REMARK    7  A    between atoms: O_11  and  C_12
REMARK    8  A    between atoms: C_18  and  C_30
REMARK                            x       y       z     vdW  Elec       q    Type
REMARK                         _______ _______ _______ _____ _____    ______ ____
ROOT
ATOM      1  C   UNL     1      -6.394  -0.437   0.883  0.00  0.00    +0.136 C 
ATOM      2  C   UNL     1      -5.191   0.272   0.358  0.00  0.00    +0.036 C 
ATOM      3  C   UNL     1      -4.199   0.526   1.236  0.00  0.00    +0.163 C 
ATOM      4  C   UNL     1      -2.929   1.227   0.853  0.00  0.00    +0.088 C 
ATOM      5  C   UNL     1      -2.645   0.968  -0.630  0.00  0.00    +0.032 C 
ATOM      6  C   UNL     1      -3.856   1.439  -1.434  0.00  0.00    +0.059 C 
ATOM      7  C   UNL     1      -5.090   0.663  -0.997  0.00  0.00    +0.017 C 
ATOM      8  N   UNL     1      -5.985   0.492  -1.902  0.00  0.00    -0.316 N 
ATOM      9  C   UNL     1      -7.063  -0.281  -2.072  0.00  0.00    +0.052 A 
ATOM     10  C   UNL     1      -7.335  -0.843  -3.327  0.00  0.00    +0.025 A 
ATOM     11  C   UNL     1      -8.460  -1.611  -3.523  0.00  0.00    +0.002 A 
ATOM     12  C   UNL     1      -9.346  -1.844  -2.484  0.00  0.00    +0.002 A 
ATOM     13  C   UNL     1      -9.093  -1.315  -1.232  0.00  0.00    +0.025 A 
ATOM     14  C   UNL     1      -7.963  -0.555  -1.014  0.00  0.00    +0.049 A 
ATOM     15  N   UNL     1      -7.628  -0.069   0.236  0.00  0.00    -0.331 N 
ATOM     16  O   UNL     1      -4.355   0.131   2.518  0.00  0.00    -0.292 OA
ATOM     17  H   UNL     1      -8.328   0.615   0.737  0.00  0.00    +0.147 HD
ATOM     18  H   UNL     1      -5.953   1.089  -2.826  0.00  0.00    +0.152 HD
ENDROOT
BRANCH   1  21
ATOM     19  C   UNL     1      -7.045  -4.159   0.800  0.00  0.00    +0.165 A 
ATOM     20  C   UNL     1      -7.231  -2.793   0.956  0.00  0.00    +0.055 A 
ATOM     21  C   UNL     1      -6.188  -1.920   0.712  0.00  0.00    -0.016 A 
ATOM     22  C   UNL     1      -4.957  -2.403   0.306  0.00  0.00    +0.055 A 
ATOM     23  C   UNL     1      -4.762  -3.767   0.153  0.00  0.00    +0.165 A 
ATOM     24  C   UNL     1      -5.808  -4.649   0.398  0.00  0.00    +0.204 A 
BRANCH  19  26
ATOM     25  C   UNL     1      -9.315  -4.444   1.451  0.00  0.00    +0.277 C 
ATOM     26  O   UNL     1      -8.072  -5.017   1.041  0.00  0.00    -0.491 OA
ENDBRANCH  19  26
BRANCH  24  27
ATOM     27  O   UNL     1      -5.622  -5.988   0.244  0.00  0.00    -0.488 OA
ATOM     28  C   UNL     1      -5.894  -6.537  -1.047  0.00  0.00    +0.277 C 
ENDBRANCH  24  27
BRANCH  23  29
ATOM     29  O   UNL     1      -3.550  -4.241  -0.240  0.00  0.00    -0.491 OA
ATOM     30  C   UNL     1      -2.508  -3.282  -0.429  0.00  0.00    +0.277 C 
ENDBRANCH  23  29
ENDBRANCH   1  21
BRANCH   5  31
ATOM     31  C   UNL     1      -1.421   1.738  -1.055  0.00  0.00    -0.044 A 
ATOM     32  C   UNL     1      -0.330   1.068  -1.576  0.00  0.00    +0.004 A 
ATOM     33  C   UNL     1       0.791   1.774  -1.971  0.00  0.00    +0.000 A 
ATOM     34  C   UNL     1       0.822   3.150  -1.840  0.00  0.00    +0.000 A 
ATOM     35  C   UNL     1      -0.267   3.819  -1.315  0.00  0.00    +0.000 A 
ATOM     36  C   UNL     1      -1.388   3.113  -0.920  0.00  0.00    +0.004 A 
ENDBRANCH   5  31
TORSDOF 5
