REMARK  Name = ZINC12035283
REMARK  13 active torsions:
REMARK  status: ('A' for Active; 'I' for Inactive)
REMARK    1  A    between atoms: C_1  and  C_2
REMARK    2  A    between atoms: C_2  and  C_3
REMARK    3  A    between atoms: C_2  and  C_4
REMARK    4  A    between atoms: C_4  and  C_5
REMARK    5  A    between atoms: C_8  and  C_11
REMARK    6  A    between atoms: C_11  and  N_65
REMARK    7  A    between atoms: C_17  and  C_21
REMARK    8  A    between atoms: C_21  and  C_23
REMARK    9  A    between atoms: C_21  and  N_26
REMARK   10  A    between atoms: C_23  and  C_24
REMARK   11  A    between atoms: C_23  and  C_25
REMARK   12  A    between atoms: N_26  and  S_27
REMARK   13  A    between atoms: S_27  and  C_30
REMARK                            x       y       z     vdW  Elec       q    Type
REMARK                         _______ _______ _______ _____ _____    ______ ____
ROOT
ATOM      1  C   UNL     1      -3.293   7.749   2.331  0.00  0.00    -0.071 C 
ATOM      2  C   UNL     1      -4.233   8.757   1.663  0.00  0.00    +0.058 C 
ATOM      3  C   UNL     1      -4.687   9.757   2.695  0.00  0.00    +0.132 A 
ATOM      4  N   UNL     1      -5.893  10.197   2.900  0.00  0.00    -0.134 NA
ATOM      5  N   UNL     1      -5.878  11.071   3.847  0.00  0.00    -0.133 NA
ATOM      6  C   UNL     1      -4.657  11.219   4.290  0.00  0.00    +0.152 A 
ATOM      7  N   UNL     1      -3.872  10.381   3.580  0.00  0.00    -0.315 N 
ATOM      8  C   UNL     1      -2.432  10.164   3.726  0.00  0.00    +0.106 C 
ATOM      9  C   UNL     1      -1.853   9.710   2.382  0.00  0.00    -0.056 C 
ATOM     10  N   UNL     1      -1.895   8.232   2.305  0.00  0.00    +0.384 N 
ATOM     11  H   UNL     1      -1.397   7.845   3.116  0.00  0.00    -0.081 HD
ENDROOT
BRANCH  10  12
ATOM     12  C   UNL     1      -1.229   7.773   1.073  0.00  0.00    -0.043 C 
BRANCH  12  16
ATOM     13  C   UNL     1      -0.864   3.520   1.218  0.00  0.00    -0.047 A 
ATOM     14  C   UNL     1       0.128   4.318   1.756  0.00  0.00    +0.004 A 
ATOM     15  C   UNL     1       0.012   5.694   1.706  0.00  0.00    +0.002 A 
ATOM     16  C   UNL     1      -1.101   6.273   1.125  0.00  0.00    -0.064 A 
ATOM     17  C   UNL     1      -2.096   5.475   0.591  0.00  0.00    +0.002 A 
ATOM     18  C   UNL     1      -1.977   4.098   0.638  0.00  0.00    +0.004 A 
BRANCH  13  19
ATOM     19  C   UNL     1      -0.735   2.019   1.269  0.00  0.00    +0.038 C 
BRANCH  19  21
ATOM     20  C   UNL     1       0.002  -0.004   0.002  0.00  0.00    +0.007 C 
ATOM     21  C   UNL     1      -0.019   1.526   0.010  0.00  0.00    -0.013 C 
ATOM     22  C   UNL     1       1.417   2.055  -0.000  0.00  0.00    +0.007 C 
ENDBRANCH  19  21
ENDBRANCH  13  19
ENDBRANCH  12  16
ENDBRANCH  10  12
BRANCH   6  23
ATOM     23  C   UNL     1      -4.210  12.151   5.386  0.00  0.00    +0.146 C 
BRANCH  23  24
ATOM     24  C   UNL     1      -4.629  11.581   6.743  0.00  0.00    +0.009 C 
ATOM     25  C   UNL     1      -6.137  11.319   6.742  0.00  0.00    +0.009 C 
ATOM     26  C   UNL     1      -3.884  10.269   6.998  0.00  0.00    +0.009 C 
ENDBRANCH  23  24
BRANCH  23  27
ATOM     27  N   UNL     1      -4.831  13.464   5.195  0.00  0.00    -0.184 NA
ATOM     28  H   UNL     1      -5.731  13.527   4.839  0.00  0.00    +0.148 HD
BRANCH  27  29
ATOM     29  S   UNL     1      -3.997  14.840   5.587  0.00  0.00    +0.027 S 
ATOM     30  O   UNL     1      -4.895  15.903   5.301  0.00  0.00    -0.158 OA
ATOM     31  O   UNL     1      -3.535  14.619   6.913  0.00  0.00    -0.158 OA
ATOM     32  C   UNL     1      -2.595  14.879   4.436  0.00  0.00    +0.214 C 
ENDBRANCH  27  29
ENDBRANCH  23  27
ENDBRANCH   6  23
TORSDOF 8
