REMARK  Name = ZINC13508521
REMARK  11 active torsions:
REMARK  status: ('A' for Active; 'I' for Inactive)
REMARK    1  A    between atoms: C_1  and  O_2
REMARK    2  A    between atoms: O_2  and  C_3
REMARK    3  A    between atoms: C_3  and  C_4
REMARK    4  A    between atoms: C_4  and  N_5
REMARK    5  A    between atoms: C_6  and  C_8
REMARK    6  A    between atoms: C_8  and  C_10
REMARK    7  A    between atoms: C_8  and  N_15
REMARK    8  A    between atoms: N_15  and  C_16
REMARK    9  A    between atoms: C_16  and  C_17
REMARK   10  A    between atoms: C_26  and  C_28
REMARK   11  A    between atoms: C_28  and  N_29
REMARK                            x       y       z     vdW  Elec       q    Type
REMARK                         _______ _______ _______ _____ _____    ______ ____
ROOT
ATOM      1  N   UNL     1      -0.851   1.730  -5.180  0.00  0.00    -0.278 N 
ATOM      2  C   UNL     1      -0.559   2.519  -6.233  0.00  0.00    +0.238 C 
ATOM      3  O   UNL     1      -0.107   3.630  -6.051  0.00  0.00    -0.274 OA
ENDROOT
BRANCH   1   4
ATOM      4  C   UNL     1      -0.530   2.172  -3.821  0.00  0.00    +0.228 C 
BRANCH   4   5
ATOM      5  C   UNL     1      -1.737   1.996  -2.936  0.00  0.00    +0.134 A 
ATOM      6  C   UNL     1      -2.232   2.916  -2.090  0.00  0.00    +0.047 A 
ATOM      7  C   UNL     1      -3.362   2.335  -1.468  0.00  0.00    +0.041 A 
ATOM      8  C   UNL     1      -3.484   1.092  -1.967  0.00  0.00    +0.195 A 
ATOM      9  O   UNL     1      -2.497   0.892  -2.856  0.00  0.00    -0.465 OA
ENDBRANCH   4   5
BRANCH   4  11
ATOM     10  N   UNL     1       0.892   1.368  -1.964  0.00  0.00    -0.311 N 
ATOM     11  C   UNL     1       0.612   1.350  -3.282  0.00  0.00    +0.241 C 
ATOM     12  O   UNL     1       1.280   0.672  -4.034  0.00  0.00    -0.273 OA
ATOM     13  H   UNL     1       0.359   1.911  -1.362  0.00  0.00    +0.149 HD
BRANCH  10  14
ATOM     14  C   UNL     1       2.003   0.569  -1.440  0.00  0.00    +0.132 C 
BRANCH  14  15
ATOM     15  C   UNL     1       2.104   0.767   0.074  0.00  0.00    +0.178 C 
BRANCH  15  17
ATOM     16  C   UNL     1       0.926   0.380   2.125  0.00  0.00    +0.194 C 
ATOM     17  O   UNL     1       0.932   0.244   0.703  0.00  0.00    -0.381 OA
ENDBRANCH  15  17
ENDBRANCH  14  15
ENDBRANCH  10  14
ENDBRANCH   4  11
ENDBRANCH   1   4
BRANCH   1  18
ATOM     18  C   UNL     1      -1.490   0.429  -5.395  0.00  0.00    +0.144 C 
BRANCH  18  19
ATOM     19  C   UNL     1      -0.431  -0.628  -5.572  0.00  0.00    -0.026 A 
ATOM     20  C   UNL     1       0.301  -0.681  -6.744  0.00  0.00    +0.009 A 
ATOM     21  C   UNL     1       1.277  -1.645  -6.910  0.00  0.00    +0.050 A 
ATOM     22  C   UNL     1       1.517  -2.569  -5.905  0.00  0.00    +0.166 A 
ATOM     23  C   UNL     1       0.776  -2.519  -4.727  0.00  0.00    +0.167 A 
ATOM     24  C   UNL     1      -0.197  -1.546  -4.566  0.00  0.00    +0.054 A 
ATOM     25  O   UNL     1       1.196  -3.524  -3.905  0.00  0.00    -0.453 OA
ATOM     26  C   UNL     1       1.916  -4.439  -4.752  0.00  0.00    +0.466 C 
ATOM     27  O   UNL     1       2.401  -3.605  -5.821  0.00  0.00    -0.453 OA
ENDBRANCH  18  19
ENDBRANCH   1  18
BRANCH   2  28
ATOM     28  C   UNL     1      -0.794   2.021  -7.636  0.00  0.00    +0.241 C 
BRANCH  28  29
ATOM     29  N   UNL     1      -0.957   3.164  -8.538  0.00  0.00    -0.235 N 
ATOM     30  C   UNL     1      -2.136   3.792  -8.864  0.00  0.00    +0.090 A 
ATOM     31  C   UNL     1      -3.463   3.611  -8.491  0.00  0.00    +0.029 A 
ATOM     32  C   UNL     1      -4.430   4.432  -9.000  0.00  0.00    +0.002 A 
ATOM     33  C   UNL     1      -4.099   5.451  -9.884  0.00  0.00    +0.002 A 
ATOM     34  C   UNL     1      -2.804   5.653 -10.261  0.00  0.00    +0.032 A 
ATOM     35  C   UNL     1      -1.793   4.826  -9.753  0.00  0.00    +0.113 A 
ATOM     36  N   UNL     1      -0.458   4.782  -9.936  0.00  0.00    -0.129 NA
ATOM     37  N   UNL     1       0.057   3.828  -9.244  0.00  0.00    -0.064 NA
ENDBRANCH  28  29
ENDBRANCH   2  28
TORSDOF 10
