REMARK  Name = ZINC12071305
REMARK  11 active torsions:
REMARK  status: ('A' for Active; 'I' for Inactive)
REMARK    1  A    between atoms: C_1  and  C_2
REMARK    2  A    between atoms: C_2  and  C_3
REMARK    3  A    between atoms: C_3  and  C_4
REMARK    4  A    between atoms: C_4  and  O_5
REMARK    5  A    between atoms: O_5  and  C_6
REMARK    6  A    between atoms: C_9  and  C_12
REMARK    7  A    between atoms: N_14  and  C_15
REMARK    8  A    between atoms: C_15  and  C_16
REMARK    9  A    between atoms: C_16  and  N_17
REMARK   10  A    between atoms: N_24  and  C_27
REMARK   11  A    between atoms: C_27  and  C_28
REMARK                            x       y       z     vdW  Elec       q    Type
REMARK                         _______ _______ _______ _____ _____    ______ ____
ROOT
ATOM      1  N   UNL     1       3.925  -6.230  -0.068  0.00  0.00    -0.245 N 
ATOM      2  C   UNL     1       3.927  -7.020  -1.173  0.00  0.00    +0.165 A 
ATOM      3  C   UNL     1       3.954  -8.347  -0.717  0.00  0.00    +0.103 A 
ATOM      4  C   UNL     1       3.967  -8.305   0.690  0.00  0.00    +0.150 A 
ATOM      5  N   UNL     1       3.956  -7.055   1.063  0.00  0.00    -0.177 NA
ATOM      6  C   UNL     1       3.963  -9.418  -1.713  0.00  0.00    +0.265 A 
ATOM      7  O   UNL     1       3.987 -10.590  -1.381  0.00  0.00    -0.267 OA
ATOM      8  N   UNL     1       3.944  -9.058  -3.018  0.00  0.00    -0.294 N 
ATOM      9  C   UNL     1       3.918  -7.747  -3.365  0.00  0.00    +0.204 A 
ATOM     10  N   UNL     1       3.911  -6.782  -2.494  0.00  0.00    -0.218 NA
ENDROOT
BRANCH   1  11
ATOM     11  C   UNL     1       3.900  -4.765  -0.060  0.00  0.00    +0.164 C 
BRANCH  11  12
ATOM     12  C   UNL     1       2.450  -4.279  -0.043  0.00  0.00    +0.128 C 
BRANCH  12  15
ATOM     13  C   UNL     1       1.247  -2.160  -0.021  0.00  0.00    +0.244 C 
ATOM     14  O   UNL     1       0.204  -2.785  -0.014  0.00  0.00    -0.270 OA
ATOM     15  N   UNL     1       2.425  -2.814  -0.036  0.00  0.00    -0.310 N 
ATOM     16  H   UNL     1       3.257  -2.316  -0.041  0.00  0.00    +0.149 HD
BRANCH  13  20
ATOM     17  C   UNL     1       1.177   2.086   0.002  0.00  0.00    +0.121 A 
ATOM     18  C   UNL     1      -0.017   1.373   0.010  0.00  0.00    +0.046 A 
ATOM     19  C   UNL     1       0.002  -0.004   0.002  0.00  0.00    +0.016 A 
ATOM     20  C   UNL     1       1.223  -0.684  -0.013  0.00  0.00    +0.037 A 
ATOM     21  C   UNL     1       2.420   0.036  -0.021  0.00  0.00    +0.016 A 
ATOM     22  C   UNL     1       2.393   1.413  -0.013  0.00  0.00    +0.046 A 
BRANCH  17  23
ATOM     23  O   UNL     1       1.154   3.443   0.009  0.00  0.00    -0.492 OA
BRANCH  23  24
ATOM     24  C   UNL     1       2.416   4.113   0.001  0.00  0.00    +0.229 C 
BRANCH  24  25
ATOM     25  C   UNL     1       2.190   5.626   0.011  0.00  0.00    +0.041 C 
BRANCH  25  27
ATOM     26  C   UNL     1       3.316   7.856   0.013  0.00  0.00    +0.004 C 
ATOM     27  C   UNL     1       3.542   6.343   0.002  0.00  0.00    -0.000 C 
ENDBRANCH  25  27
ENDBRANCH  24  25
ENDBRANCH  23  24
ENDBRANCH  17  23
ENDBRANCH  13  20
ENDBRANCH  12  15
ENDBRANCH  11  12
ENDBRANCH   1  11
BRANCH   8  28
ATOM     28  C   UNL     1       3.952 -10.089  -4.059  0.00  0.00    +0.161 C 
BRANCH  28  29
ATOM     29  C   UNL     1       5.375 -10.418  -4.429  0.00  0.00    -0.028 A 
ATOM     30  C   UNL     1       6.003  -9.722  -5.445  0.00  0.00    +0.006 A 
ATOM     31  C   UNL     1       7.310 -10.021  -5.782  0.00  0.00    +0.015 A 
ATOM     32  C   UNL     1       7.986 -11.023  -5.110  0.00  0.00    +0.018 A 
ATOM     33  C   UNL     1       7.355 -11.722  -4.097  0.00  0.00    +0.015 A 
ATOM     34  C   UNL     1       6.050 -11.420  -3.757  0.00  0.00    +0.006 A 
ATOM     35 BR   UNL     1       9.772 -11.436  -5.575  0.00  0.00    -0.050 Br
ENDBRANCH  28  29
ENDBRANCH   8  28
TORSDOF 10
