REMARK  Name = ZINC13810612
REMARK  10 active torsions:
REMARK  status: ('A' for Active; 'I' for Inactive)
REMARK    1  A    between atoms: C_1  and  C_2
REMARK    2  A    between atoms: C_4  and  O_29
REMARK    3  A    between atoms: C_6  and  O_28
REMARK    4  A    between atoms: C_7  and  C_8
REMARK    5  A    between atoms: N_9  and  N_10
REMARK    6  A    between atoms: C_11  and  C_13
REMARK    7  A    between atoms: C_20  and  C_24
REMARK    8  A    between atoms: C_24  and  C_25
REMARK    9  A    between atoms: C_24  and  C_26
REMARK   10  A    between atoms: C_24  and  C_27
REMARK                            x       y       z     vdW  Elec       q    Type
REMARK                         _______ _______ _______ _____ _____    ______ ____
ROOT
ATOM      1  N   UNL     1       1.492   2.250   4.699  0.00  0.00    -0.204 N 
ATOM      2  C   UNL     1       2.211   2.767   5.715  0.00  0.00    +0.276 C 
ATOM      3  O   UNL     1       3.423   2.757   5.666  0.00  0.00    -0.270 OA
ATOM      4  H   UNL     1       0.526   2.192   4.769  0.00  0.00    +0.177 HD
ENDROOT
BRANCH   2   5
ATOM      5  C   UNL     1       1.510   3.358   6.911  0.00  0.00    +0.297 C 
ATOM      6  C   UNL     1       0.733   4.612   6.488  0.00  0.00    +0.283 C 
ATOM      7  O   UNL     1       0.092   5.155   7.647  0.00  0.00    -0.484 OA
ATOM      8  C   UNL     1       0.851   5.260   8.773  0.00  0.00    +0.162 A 
ATOM      9  C   UNL     1       0.427   6.085   9.804  0.00  0.00    +0.050 A 
ATOM     10  C   UNL     1       1.185   6.200  10.954  0.00  0.00    +0.008 A 
ATOM     11  C   UNL     1       2.366   5.493  11.080  0.00  0.00    -0.038 A 
ATOM     12  C   UNL     1       2.794   4.670  10.056  0.00  0.00    +0.053 A 
ATOM     13  C   UNL     1       2.039   4.551   8.899  0.00  0.00    +0.163 A 
ATOM     14  O   UNL     1       2.475   3.739   7.897  0.00  0.00    -0.472 OA
BRANCH  11  15
ATOM     15  C   UNL     1       3.188   5.620  12.337  0.00  0.00    -0.013 C 
ATOM     16  C   UNL     1       2.497   6.584  13.303  0.00  0.00    +0.015 C 
ATOM     17  C   UNL     1       3.325   4.247  12.998  0.00  0.00    +0.015 C 
ATOM     18  C   UNL     1       4.577   6.158  11.986  0.00  0.00    +0.015 C 
ENDBRANCH  11  15
ENDBRANCH   2   5
BRANCH   1  20
ATOM     19  C   UNL     1       1.441   1.400   2.522  0.00  0.00    +0.142 C 
ATOM     20  N   UNL     1       2.139   1.795   3.543  0.00  0.00    -0.187 NA
BRANCH  19  27
ATOM     21  C   UNL     1      -0.255  -0.904   2.111  0.00  0.00    +0.044 C 
ATOM     22  C   UNL     1      -0.854   0.462   2.323  0.00  0.00    -0.035 A 
ATOM     23  C   UNL     1      -2.223   0.624   2.317  0.00  0.00    +0.049 A 
ATOM     24  C   UNL     1      -2.779   1.881   2.517  0.00  0.00    +0.121 A 
ATOM     25  C   UNL     1      -1.962   2.985   2.713  0.00  0.00    +0.091 A 
ATOM     26  C   UNL     1      -0.586   2.836   2.716  0.00  0.00    +0.129 A 
ATOM     27  C   UNL     1      -0.022   1.567   2.520  0.00  0.00    +0.039 A 
BRANCH  26  28
ATOM     28  O   UNL     1       0.215   3.916   2.908  0.00  0.00    -0.506 OA
ATOM     29  H   UNL     1       0.403   4.415   2.101  0.00  0.00    +0.292 HD
ENDBRANCH  26  28
BRANCH  24  30
ATOM     30  O   UNL     1      -4.129   2.031   2.515  0.00  0.00    -0.507 OA
ATOM     31  H   UNL     1      -4.503   2.217   1.643  0.00  0.00    +0.292 HD
ENDBRANCH  24  30
ENDBRANCH  19  27
ENDBRANCH   1  20
TORSDOF 6
