REMARK  Name = ZINC66883778
REMARK  5 active torsions:
REMARK  status: ('A' for Active; 'I' for Inactive)
REMARK    1  A    between atoms: C_1  and  C_2
REMARK    2  A    between atoms: C_2  and  C_4
REMARK    3  A    between atoms: C_2  and  O_14
REMARK    4  A    between atoms: O_14  and  C_15
REMARK    5  A    between atoms: C_15  and  C_17
REMARK                            x       y       z     vdW  Elec       q    Type
REMARK                         _______ _______ _______ _____ _____    ______ ____
ROOT
ATOM      1  C   UNL     1      -0.019   1.526   0.010  0.00  0.00    +0.057 C 
ATOM      2  C   UNL     1       0.002  -0.004   0.002  0.00  0.00    +0.204 C 
ENDROOT
BRANCH   2   3
ATOM      3  C   UNL     1       0.707  -0.490  -1.238  0.00  0.00    -0.004 A 
ATOM      4  C   UNL     1       2.085  -0.608  -1.247  0.00  0.00    +0.011 A 
ATOM      5  C   UNL     1       2.735  -1.052  -2.382  0.00  0.00    +0.050 A 
ATOM      6  C   UNL     1       2.008  -1.381  -3.516  0.00  0.00    +0.162 A 
ATOM      7  C   UNL     1       0.623  -1.264  -3.507  0.00  0.00    +0.162 A 
ATOM      8  C   UNL     1      -0.024  -0.822  -2.362  0.00  0.00    +0.056 A 
ATOM      9  O   UNL     1      -0.111  -1.589  -4.606  0.00  0.00    -0.485 OA
ATOM     10  C   UNL     1       0.595  -1.677  -5.848  0.00  0.00    +0.270 C 
ATOM     11  C   UNL     1       1.877  -2.489  -5.616  0.00  0.00    +0.270 C 
ATOM     12  O   UNL     1       2.663  -1.813  -4.628  0.00  0.00    -0.485 OA
ENDBRANCH   2   3
BRANCH   2  13
ATOM     13  O   UNL     1       0.693  -0.477   1.160  0.00  0.00    -0.452 OA
BRANCH  13  14
ATOM     14  C   UNL     1      -0.044  -0.697   2.265  0.00  0.00    +0.360 C 
ATOM     15  O   UNL     1      -1.241  -0.493   2.247  0.00  0.00    -0.243 OA
BRANCH  14  16
ATOM     16  C   UNL     1       0.604  -1.188   3.502  0.00  0.00    +0.167 A 
ATOM     17  C   UNL     1      -0.167  -1.419   4.641  0.00  0.00    +0.073 A 
ATOM     18  C   UNL     1       0.456  -1.879   5.793  0.00  0.00    +0.025 A 
ATOM     19  C   UNL     1       1.824  -2.092   5.765  0.00  0.00    +0.041 A 
ATOM     20  C   UNL     1       2.528  -1.841   4.596  0.00  0.00    +0.130 A 
ATOM     21  N   UNL     1       1.913  -1.410   3.516  0.00  0.00    -0.227 NA
ATOM     22 CL   UNL     1       4.244  -2.105   4.556  0.00  0.00    -0.062 Cl
ATOM     23 CL   UNL     1      -1.879  -1.135   4.619  0.00  0.00    -0.081 Cl
ENDBRANCH  14  16
ENDBRANCH  13  14
ENDBRANCH   2  13
TORSDOF 4
