REMARK  Name = ZINC09684726
REMARK  7 active torsions:
REMARK  status: ('A' for Active; 'I' for Inactive)
REMARK    1  A    between atoms: C_4  and  C_7
REMARK    2  A    between atoms: C_7  and  S_8
REMARK    3  A    between atoms: S_8  and  N_11
REMARK    4  A    between atoms: C_16  and  C_18
REMARK    5  A    between atoms: C_16  and  C_24
REMARK    6  A    between atoms: C_16  and  N_57
REMARK    7  A    between atoms: C_25  and  N_34
REMARK                            x       y       z     vdW  Elec       q    Type
REMARK                         _______ _______ _______ _____ _____    ______ ____
ROOT
ATOM      1  C   UNL     1      -0.029   1.552  -0.047  0.00  0.00    +0.002 C 
ENDROOT
BRANCH   1   2
ATOM      2  C   UNL     1      -0.598   2.022   1.266  0.00  0.00    +0.045 A 
ATOM      3  C   UNL     1       0.222   2.535   2.233  0.00  0.00    +0.104 A 
ATOM      4  N   UNL     1      -0.321   2.957   3.423  0.00  0.00    -0.296 N 
ATOM      5  H   UNL     1       0.273   3.333   4.134  0.00  0.00    +0.172 HD
ATOM      6  C   UNL     1      -1.646   2.867   3.636  0.00  0.00    +0.328 A 
ATOM      7  O   UNL     1      -2.109   3.245   4.695  0.00  0.00    -0.247 OA
ATOM      8  N   UNL     1      -2.467   2.365   2.696  0.00  0.00    -0.275 N 
ATOM      9  H   UNL     1      -3.449   2.302   2.877  0.00  0.00    +0.173 HD
ATOM     10  C   UNL     1      -1.978   1.945   1.512  0.00  0.00    +0.258 A 
ATOM     11  O   UNL     1      -2.728   1.496   0.663  0.00  0.00    -0.267 OA
BRANCH   3  12
ATOM     12  N   UNL     1       1.573   2.626   2.018  0.00  0.00    -0.344 N 
ATOM     13  H   UNL     1       1.964   2.240   1.219  0.00  0.00    +0.144 HD
ATOM     14  H   UNL     1       2.138   3.078   2.664  0.00  0.00    +0.144 HD
ENDBRANCH   3  12
ENDBRANCH   1   2
BRANCH   1  20
ATOM     15  N   UNL     1      -1.260   3.755  -3.400  0.00  0.00    -0.184 NA
ATOM     16  C   UNL     1      -1.670   4.261  -2.082  0.00  0.00    +0.090 C 
ATOM     17  C   UNL     1      -0.751   3.649  -1.019  0.00  0.00    -0.060 C 
ATOM     18  C   UNL     1      -0.216   1.767  -2.452  0.00  0.00    -0.060 C 
ATOM     19  C   UNL     1      -1.113   2.302  -3.573  0.00  0.00    +0.090 C 
ATOM     20  N   UNL     1      -0.788   2.176  -1.150  0.00  0.00    +0.389 N 
ATOM     21  H   UNL     1      -1.764   1.862  -1.103  0.00  0.00    -0.080 HD
BRANCH  15  22
ATOM     22  S   UNL     1      -0.972   4.794  -4.657  0.00  0.00    +0.036 S 
ATOM     23  O   UNL     1      -1.216   4.024  -5.827  0.00  0.00    -0.158 OA
ATOM     24  O   UNL     1      -1.760   5.940  -4.368  0.00  0.00    -0.158 OA
BRANCH  22  25
ATOM     25  C   UNL     1       0.791   5.199  -4.532  0.00  0.00    +0.220 C 
BRANCH  25  29
ATOM     26  C   UNL     1       1.859   7.893  -7.671  0.00  0.00    +0.000 A 
ATOM     27  C   UNL     1       1.423   8.386  -6.456  0.00  0.00    +0.000 A 
ATOM     28  C   UNL     1       1.077   7.514  -5.440  0.00  0.00    +0.005 A 
ATOM     29  C   UNL     1       1.168   6.150  -5.640  0.00  0.00    -0.025 A 
ATOM     30  C   UNL     1       1.610   5.657  -6.853  0.00  0.00    +0.005 A 
ATOM     31  C   UNL     1       1.951   6.528  -7.871  0.00  0.00    +0.000 A 
ENDBRANCH  25  29
ENDBRANCH  22  25
ENDBRANCH  15  22
ENDBRANCH   1  20
BRANCH   1  32
ATOM     32  C   UNL     1      -0.167   0.054  -0.147  0.00  0.00    -0.056 A 
ATOM     33  C   UNL     1      -1.334  -0.501  -0.638  0.00  0.00    +0.002 A 
ATOM     34  C   UNL     1      -1.459  -1.874  -0.734  0.00  0.00    +0.000 A 
ATOM     35  C   UNL     1      -0.420  -2.693  -0.330  0.00  0.00    +0.000 A 
ATOM     36  C   UNL     1       0.745  -2.138   0.165  0.00  0.00    +0.000 A 
ATOM     37  C   UNL     1       0.871  -0.764   0.257  0.00  0.00    +0.002 A 
ENDBRANCH   1  32
TORSDOF 7
