REMARK  Name = ZINC39674475
REMARK  11 active torsions:
REMARK  status: ('A' for Active; 'I' for Inactive)
REMARK    1  A    between atoms: C_1  and  C_2
REMARK    2  A    between atoms: C_4  and  C_9
REMARK    3  A    between atoms: C_5  and  C_8
REMARK    4  A    between atoms: C_9  and  C_11
REMARK    5  A    between atoms: C_9  and  N_12
REMARK    6  A    between atoms: C_13  and  C_15
REMARK    7  A    between atoms: C_26  and  C_28
REMARK    8  A    between atoms: C_30  and  O_36
REMARK    9  A    between atoms: C_33  and  O_34
REMARK   10  A    between atoms: O_34  and  C_35
REMARK   11  A    between atoms: O_36  and  C_37
REMARK                            x       y       z     vdW  Elec       q    Type
REMARK                         _______ _______ _______ _____ _____    ______ ____
ROOT
ATOM      1  C   UNL     1      -3.108  -0.734  -5.542  0.00  0.00    +0.100 C 
ATOM      2  C   UNL     1      -3.853  -2.031  -5.154  0.00  0.00    +0.121 C 
ATOM      3  N   UNL     1      -4.606  -2.409  -6.373  0.00  0.00    -0.296 N 
ATOM      4  C   UNL     1      -3.678  -2.106  -7.489  0.00  0.00    +0.115 C 
ATOM      5  C   UNL     1      -2.994  -0.788  -7.075  0.00  0.00    -0.004 C 
ATOM      6  C   UNL     1      -1.527  -0.800  -7.495  0.00  0.00    -0.010 C 
ATOM      7  C   UNL     1      -1.439  -0.795  -9.024  0.00  0.00    -0.082 C 
ATOM      8  N   UNL     1      -2.110   0.400  -9.550  0.00  0.00    +0.379 N 
ATOM      9  C   UNL     1      -3.540   0.358  -9.221  0.00  0.00    -0.082 C 
ATOM     10  C   UNL     1      -3.717   0.401  -7.700  0.00  0.00    -0.010 C 
ATOM     11  C   UNL     1      -5.853  -2.914  -6.450  0.00  0.00    +0.250 C 
ATOM     12  O   UNL     1      -6.524  -3.034  -5.443  0.00  0.00    -0.270 OA
ATOM     13  H   UNL     1      -1.696   1.224  -9.141  0.00  0.00    -0.086 HD
ATOM     14  H   UNL     1      -1.998   0.433 -10.553  0.00  0.00    -0.086 HD
ENDROOT
BRANCH  11  15
ATOM     15  C   UNL     1      -6.404  -3.321  -7.757  0.00  0.00    +0.082 A 
ATOM     16  C   UNL     1      -5.569  -3.877  -8.729  0.00  0.00    +0.062 A 
ATOM     17  C   UNL     1      -6.093  -4.257  -9.951  0.00  0.00    +0.121 A 
ATOM     18  C   UNL     1      -7.447  -4.086 -10.214  0.00  0.00    +0.049 A 
ATOM     19  C   UNL     1      -8.279  -3.538  -9.259  0.00  0.00    +0.050 A 
ATOM     20  C   UNL     1      -7.769  -3.158  -8.027  0.00  0.00    +0.132 A 
BRANCH  20  21
ATOM     21  O   UNL     1      -8.590  -2.623  -7.087  0.00  0.00    -0.494 OA
ATOM     22  C   UNL     1      -9.970  -2.486  -7.432  0.00  0.00    +0.277 C 
ENDBRANCH  20  21
BRANCH  17  23
ATOM     23  O   UNL     1      -5.281  -4.798 -10.898  0.00  0.00    -0.495 OA
ATOM     24  C   UNL     1      -5.887  -5.168 -12.138  0.00  0.00    +0.277 C 
ENDBRANCH  17  23
ENDBRANCH  11  15
BRANCH   1  26
ATOM     25  N   UNL     1      -1.157   0.469  -4.611  0.00  0.00    -0.309 N 
ATOM     26  C   UNL     1      -1.738  -0.709  -4.915  0.00  0.00    +0.219 C 
ATOM     27  O   UNL     1      -1.158  -1.748  -4.682  0.00  0.00    -0.275 OA
ATOM     28  H   UNL     1      -1.621   1.300  -4.797  0.00  0.00    +0.149 HD
BRANCH  25  29
ATOM     29  C   UNL     1       0.174   0.494  -4.001  0.00  0.00    +0.100 C 
ATOM     30  C   UNL     1       1.239   0.419  -5.098  0.00  0.00    +0.033 C 
BRANCH  29  33
ATOM     31  C   UNL     1       1.130   3.520  -4.840  0.00  0.00    +0.039 C 
ATOM     32  C   UNL     1       0.153   3.198  -3.707  0.00  0.00    +0.154 C 
ATOM     33  C   UNL     1       0.346   1.772  -3.221  0.00  0.00    -0.001 C 
ATOM     34  C   UNL     1       0.702   1.914  -1.943  0.00  0.00    +0.063 C 
ATOM     35  N   UNL     1       0.748   3.220  -1.599  0.00  0.00    -0.159 NA
ATOM     36  N   UNL     1       0.458   4.003  -2.512  0.00  0.00    -0.180 NA
ATOM     37  C   UNL     1       1.010   0.772  -1.009  0.00  0.00    +0.067 C 
ENDBRANCH  29  33
ENDBRANCH  25  29
ENDBRANCH   1  26
TORSDOF 6
