REMARK  Name = ZINC39995865
REMARK  8 active torsions:
REMARK  status: ('A' for Active; 'I' for Inactive)
REMARK    1  A    between atoms: C_1  and  C_2
REMARK    2  A    between atoms: C_2  and  C_4
REMARK    3  A    between atoms: C_2  and  S_15
REMARK    4  A    between atoms: N_6  and  C_7
REMARK    5  A    between atoms: C_8  and  C_12
REMARK    6  A    between atoms: S_15  and  C_16
REMARK    7  A    between atoms: C_20  and  C_25
REMARK    8  A    between atoms: N_21  and  C_22
REMARK                            x       y       z     vdW  Elec       q    Type
REMARK                         _______ _______ _______ _____ _____    ______ ____
ROOT
ATOM      1  C   UNL     1       2.289  -0.046  -1.358  0.00  0.00    +0.238 C 
ATOM      2  N   UNL     1       2.919  -0.840  -0.290  0.00  0.00    -0.237 N 
ATOM      3  N   UNL     1       3.625   0.063   0.514  0.00  0.00    -0.169 NA
ATOM      4  C   UNL     1       3.502   1.287   0.072  0.00  0.00    +0.147 C 
ATOM      5  N   UNL     1       2.703   1.338  -1.076  0.00  0.00    -0.282 N 
ATOM      6  H   UNL     1       2.857  -1.800  -0.167  0.00  0.00    +0.171 HD
ENDROOT
BRANCH   4   7
ATOM      7  C   UNL     1       4.097   2.407   0.672  0.00  0.00    +0.022 C 
ATOM      8  C   UNL     1       4.865   2.433   1.836  0.00  0.00    +0.006 A 
ATOM      9  C   UNL     1       5.273   1.421   2.732  0.00  0.00    +0.010 A 
ATOM     10  C   UNL     1       6.037   1.741   3.808  0.00  0.00    +0.001 A 
ATOM     11  C   UNL     1       6.436   3.056   4.056  0.00  0.00    +0.002 A 
ATOM     12  C   UNL     1       6.081   4.078   3.238  0.00  0.00    +0.026 A 
ATOM     13  C   UNL     1       5.283   3.821   2.094  0.00  0.00    +0.043 A 
ATOM     14  N   UNL     1       4.814   4.624   1.159  0.00  0.00    -0.380 N 
ATOM     15  C   UNL     1       4.044   3.840   0.188  0.00  0.00    +0.152 C 
ATOM     16  H   UNL     1       4.958   5.582   1.118  0.00  0.00    +0.160 HD
ENDBRANCH   4   7
BRANCH   5  17
ATOM     17  C   UNL     1       2.347   2.532  -1.847  0.00  0.00    +0.078 C 
ATOM     18  C   UNL     1       1.405   2.349  -3.039  0.00  0.00    +0.024 C 
ATOM     19  C   UNL     1       2.889   2.640  -3.273  0.00  0.00    +0.024 C 
ENDBRANCH   5  17
BRANCH   1  20
ATOM     20  S   UNL     1       0.483  -0.197  -1.279  0.00  0.00    -0.106 S 
BRANCH  20  22
ATOM     21  C   UNL     1       0.292   1.562   0.806  0.00  0.00    +0.029 C 
ATOM     22  C   UNL     1       0.095   0.083   0.471  0.00  0.00    +0.133 C 
BRANCH  22  23
ATOM     23  C   UNL     1      -1.337  -0.306   0.736  0.00  0.00    +0.230 C 
ATOM     24  O   UNL     1      -2.125  -0.379  -0.182  0.00  0.00    -0.274 OA
ATOM     25  N   UNL     1      -1.740  -0.572   1.994  0.00  0.00    -0.278 N 
ATOM     26  H   UNL     1      -1.110  -0.514   2.728  0.00  0.00    +0.155 HD
BRANCH  25  27
ATOM     27  C   UNL     1      -3.058  -0.930   2.238  0.00  0.00    +0.084 A 
ATOM     28  C   UNL     1      -3.648  -1.231   3.457  0.00  0.00    +0.065 A 
ATOM     29  C   UNL     1      -5.051  -1.575   3.428  0.00  0.00    +0.022 A 
ATOM     30  C   UNL     1      -5.633  -1.565   2.215  0.00  0.00    +0.048 A 
ATOM     31  S   UNL     1      -4.306  -1.090   1.128  0.00  0.00    -0.081 S 
BRANCH  28  32
ATOM     32  C   UNL     1      -2.887  -1.202   4.710  0.00  0.00    +0.244 C 
ATOM     33  O   UNL     1      -1.706  -0.908   4.698  0.00  0.00    -0.270 OA
ATOM     34  N   UNL     1      -3.495  -1.501   5.875  0.00  0.00    -0.325 N 
ATOM     35  H   UNL     1      -4.436  -1.735   5.885  0.00  0.00    +0.145 HD
ATOM     36  H   UNL     1      -2.991  -1.482   6.704  0.00  0.00    +0.145 HD
ENDBRANCH  28  32
ENDBRANCH  25  27
ENDBRANCH  22  23
ENDBRANCH  20  22
ENDBRANCH   1  20
TORSDOF 7
