REMARK  Name = ZINC20905011
REMARK  12 active torsions:
REMARK  status: ('A' for Active; 'I' for Inactive)
REMARK    1  A    between atoms: C_1  and  C_2
REMARK    2  A    between atoms: C_3  and  C_11
REMARK    3  A    between atoms: C_4  and  C_10
REMARK    4  A    between atoms: N_5  and  C_7
REMARK    5  A    between atoms: C_7  and  C_8
REMARK    6  A    between atoms: C_7  and  C_9
REMARK    7  A    between atoms: N_12  and  N_13
REMARK    8  A    between atoms: C_16  and  S_19
REMARK    9  A    between atoms: S_19  and  C_20
REMARK   10  A    between atoms: C_20  and  C_21
REMARK   11  A    between atoms: N_23  and  C_24
REMARK   12  A    between atoms: C_28  and  C_30
REMARK                            x       y       z     vdW  Elec       q    Type
REMARK                         _______ _______ _______ _____ _____    ______ ____
ROOT
ATOM      1  N   UNL     1       1.619   3.138  -0.530  0.00  0.00    -0.205 N 
ATOM      2  C   UNL     1       1.219   1.813  -0.436  0.00  0.00    +0.232 A 
ATOM      3  N   UNL     1      -0.067   1.354  -0.509  0.00  0.00    -0.186 NA
ATOM      4  C   UNL     1      -0.039  -0.005  -0.372  0.00  0.00    +0.211 A 
ATOM      5  N   UNL     1       1.211  -0.371  -0.221  0.00  0.00    -0.144 NA
ATOM      6  N   UNL     1       2.008   0.780  -0.261  0.00  0.00    -0.245 N 
ATOM      7  H   UNL     1       0.870   3.929  -0.678  0.00  0.00    +0.177 HD
ATOM      8  H   UNL     1       3.095   0.926  -0.176  0.00  0.00    +0.192 HD
ENDROOT
BRANCH   1  10
ATOM      9  C   UNL     1       3.352   4.707  -0.526  0.00  0.00    +0.141 C 
ATOM     10  N   UNL     1       2.978   3.467  -0.438  0.00  0.00    -0.187 NA
BRANCH   9  13
ATOM     11  C   UNL     1       5.734   2.656  -0.103  0.00  0.00    +0.068 C 
ATOM     12  C   UNL     1       5.853   4.152  -0.241  0.00  0.00    +0.069 A 
ATOM     13  C   UNL     1       4.783   5.054  -0.429  0.00  0.00    +0.038 A 
ATOM     14  C   UNL     1       5.324   6.319  -0.510  0.00  0.00    +0.045 A 
ATOM     15  N   UNL     1       6.660   6.196  -0.370  0.00  0.00    -0.265 N 
ATOM     16  N   UNL     1       6.963   4.839  -0.208  0.00  0.00    -0.175 NA
ATOM     17  C   UNL     1       4.563   7.604  -0.715  0.00  0.00    +0.066 C 
BRANCH  15  18
ATOM     18  C   UNL     1       7.629   7.294  -0.391  0.00  0.00    +0.101 C 
ATOM     19  C   UNL     1       8.390   7.327   0.936  0.00  0.00    +0.032 C 
ATOM     20  C   UNL     1       8.617   7.082  -1.540  0.00  0.00    +0.032 C 
ENDBRANCH  15  18
ENDBRANCH   9  13
ENDBRANCH   1  10
BRANCH   4  21
ATOM     21  S   UNL     1      -1.437  -1.077  -0.394  0.00  0.00    -0.075 S 
BRANCH  21  22
ATOM     22  C   UNL     1      -0.726  -2.730  -0.166  0.00  0.00    +0.173 C 
BRANCH  22  23
ATOM     23  C   UNL     1      -1.830  -3.756  -0.165  0.00  0.00    +0.227 C 
ATOM     24  O   UNL     1      -2.983  -3.406  -0.305  0.00  0.00    -0.275 OA
ATOM     25  N   UNL     1      -1.537  -5.062  -0.009  0.00  0.00    -0.285 N 
ATOM     26  H   UNL     1      -0.487  -5.389   0.030  0.00  0.00    +0.155 HD
BRANCH  25  27
ATOM     27  C   UNL     1      -2.567  -6.003   0.102  0.00  0.00    +0.034 A 
ATOM     28  C   UNL     1      -3.759  -5.658   0.727  0.00  0.00    +0.025 A 
ATOM     29  C   UNL     1      -4.776  -6.587   0.831  0.00  0.00    +0.022 A 
ATOM     30  C   UNL     1      -4.604  -7.862   0.322  0.00  0.00    +0.053 A 
ATOM     31  C   UNL     1      -3.416  -8.210  -0.296  0.00  0.00    +0.075 A 
ATOM     32  C   UNL     1      -2.398  -7.283  -0.408  0.00  0.00    +0.037 A 
ATOM     33 CL   UNL     1      -5.882  -9.029   0.460  0.00  0.00    -0.083 Cl
BRANCH  31  34
ATOM     34  C   UNL     1      -3.233  -9.599  -0.850  0.00  0.00    +0.419 C 
ATOM     35  F   UNL     1      -1.962  -9.709  -1.423  0.00  0.00    -0.166 F 
ATOM     36  F   UNL     1      -3.361 -10.533   0.184  0.00  0.00    -0.166 F 
ATOM     37  F   UNL     1      -4.207  -9.845  -1.824  0.00  0.00    -0.166 F 
ENDBRANCH  31  34
ENDBRANCH  25  27
ENDBRANCH  22  23
ENDBRANCH  21  22
ENDBRANCH   4  21
TORSDOF 8
