REMARK  Name = ZINC60015840
REMARK  13 active torsions:
REMARK  status: ('A' for Active; 'I' for Inactive)
REMARK    1  A    between atoms: C_1  and  C_2
REMARK    2  A    between atoms: C_2  and  N_3
REMARK    3  A    between atoms: C_4  and  C_27
REMARK    4  A    between atoms: C_7  and  S_8
REMARK    5  A    between atoms: S_8  and  C_9
REMARK    6  A    between atoms: C_9  and  C_10
REMARK    7  A    between atoms: N_12  and  C_13
REMARK    8  A    between atoms: C_13  and  C_15
REMARK    9  A    between atoms: C_13  and  C_16
REMARK   10  A    between atoms: C_16  and  N_17
REMARK   11  A    between atoms: C_19  and  C_26
REMARK   12  A    between atoms: C_22  and  C_25
REMARK   13  A    between atoms: C_32  and  C_33
REMARK                            x       y       z     vdW  Elec       q    Type
REMARK                         _______ _______ _______ _____ _____    ______ ____
ROOT
ATOM      1  C   UNL     1      -1.461  -0.556   4.800  0.00  0.00    +0.173 C 
ENDROOT
BRANCH   1   2
ATOM      2  C   UNL     1      -2.812  -0.293   5.413  0.00  0.00    +0.223 C 
ATOM      3  O   UNL     1      -3.640   0.351   4.803  0.00  0.00    -0.275 OA
ATOM      4  N   UNL     1      -3.102  -0.772   6.639  0.00  0.00    -0.314 N 
ATOM      5  H   UNL     1      -2.440  -1.287   7.127  0.00  0.00    +0.149 HD
BRANCH   4   6
ATOM      6  C   UNL     1      -4.415  -0.516   7.234  0.00  0.00    +0.053 C 
ATOM      7  C   UNL     1      -5.392  -1.614   6.807  0.00  0.00    +0.026 C 
BRANCH   6   8
ATOM      8  C   UNL     1      -4.292  -0.508   8.759  0.00  0.00    -0.057 C 
BRANCH   8   9
ATOM      9  N   UNL     1      -3.288   0.484   9.164  0.00  0.00    +0.381 N 
ATOM     10  C   UNL     1      -3.064   0.390  10.611  0.00  0.00    -0.076 C 
ATOM     11  C   UNL     1      -1.961   1.366  11.026  0.00  0.00    -0.031 C 
ATOM     12  C   UNL     1      -2.386   2.792  10.666  0.00  0.00    +0.003 C 
ATOM     13  C   UNL     1      -2.689   2.861   9.166  0.00  0.00    -0.031 C 
ATOM     14  C   UNL     1      -3.765   1.829   8.820  0.00  0.00    -0.076 C 
ATOM     15  C   UNL     1      -3.189   4.262   8.809  0.00  0.00    +0.005 C 
ATOM     16  C   UNL     1      -1.731   1.266  12.535  0.00  0.00    +0.005 C 
ATOM     17  H   UNL     1      -2.421   0.302   8.679  0.00  0.00    -0.082 HD
ENDBRANCH   8   9
ENDBRANCH   6   8
ENDBRANCH   4   6
ENDBRANCH   1   2
BRANCH   1  18
ATOM     18  S   UNL     1      -1.380   0.213   3.159  0.00  0.00    -0.077 S 
BRANCH  18  23
ATOM     19  N   UNL     1       0.781   0.182   1.384  0.00  0.00    -0.302 N 
ATOM     20  C   UNL     1       2.054  -0.340   1.379  0.00  0.00    +0.165 A 
ATOM     21  N   UNL     1       2.216  -0.969   2.520  0.00  0.00    -0.128 NA
ATOM     22  N   UNL     1       1.147  -0.877   3.228  0.00  0.00    -0.122 NA
ATOM     23  C   UNL     1       0.238  -0.179   2.584  0.00  0.00    +0.192 A 
BRANCH  20  24
ATOM     24  C   UNL     1       3.050  -0.217   0.295  0.00  0.00    +0.022 A 
ATOM     25  C   UNL     1       2.689  -0.495  -1.024  0.00  0.00    +0.012 A 
ATOM     26  C   UNL     1       3.624  -0.378  -2.032  0.00  0.00    +0.001 A 
ATOM     27  C   UNL     1       4.918   0.015  -1.737  0.00  0.00    +0.000 A 
ATOM     28  C   UNL     1       5.282   0.292  -0.432  0.00  0.00    +0.004 A 
ATOM     29  C   UNL     1       4.355   0.184   0.585  0.00  0.00    -0.040 A 
ATOM     30  C   UNL     1       4.753   0.493   2.005  0.00  0.00    +0.044 C 
ENDBRANCH  20  24
BRANCH  19  32
ATOM     31  C   UNL     1       0.324   2.459   0.615  0.00  0.00    +0.027 C 
ATOM     32  C   UNL     1       0.143   0.968   0.324  0.00  0.00    +0.122 C 
ENDBRANCH  19  32
ENDBRANCH  18  23
ENDBRANCH   1  18
TORSDOF 8
