REMARK  Name = ZINC08934516
REMARK  10 active torsions:
REMARK  status: ('A' for Active; 'I' for Inactive)
REMARK    1  A    between atoms: C_1  and  C_2
REMARK    2  A    between atoms: C_3  and  C_35
REMARK    3  A    between atoms: C_4  and  C_26
REMARK    4  A    between atoms: C_6  and  C_24
REMARK    5  A    between atoms: C_7  and  S_9
REMARK    6  A    between atoms: S_9  and  C_10
REMARK    7  A    between atoms: C_10  and  C_11
REMARK    8  A    between atoms: C_11  and  N_13
REMARK    9  A    between atoms: C_31  and  N_32
REMARK   10  A    between atoms: C_35  and  C_37
REMARK                            x       y       z     vdW  Elec       q    Type
REMARK                         _______ _______ _______ _____ _____    ______ ____
ROOT
ATOM      1  C   UNL     1      -2.468   2.237   2.212  0.00  0.00    +0.061 C 
ATOM      2  C   UNL     1      -2.001   0.920   1.648  0.00  0.00    +0.013 C 
ATOM      3  C   UNL     1      -2.910  -0.010   1.292  0.00  0.00    +0.024 C 
ATOM      4  C   UNL     1      -2.498  -1.342   0.734  0.00  0.00    +0.099 C 
ATOM      5  C   UNL     1      -1.065  -1.312   0.283  0.00  0.00    +0.069 C 
ATOM      6  C   UNL     1      -0.221  -0.323   0.681  0.00  0.00    +0.080 C 
ATOM      7  N   UNL     1      -0.664   0.689   1.501  0.00  0.00    -0.312 N 
ATOM      8  H   UNL     1      -0.023   1.238   1.980  0.00  0.00    +0.152 HD
ENDROOT
BRANCH   4   9
ATOM      9  C   UNL     1      -2.659  -2.397   1.798  0.00  0.00    -0.005 A 
ATOM     10  C   UNL     1      -2.263  -2.135   3.097  0.00  0.00    +0.007 A 
ATOM     11  C   UNL     1      -2.411  -3.102   4.073  0.00  0.00    +0.000 A 
ATOM     12  C   UNL     1      -2.955  -4.331   3.751  0.00  0.00    +0.002 A 
ATOM     13  C   UNL     1      -3.352  -4.593   2.453  0.00  0.00    +0.033 A 
ATOM     14  C   UNL     1      -3.208  -3.624   1.478  0.00  0.00    +0.130 A 
BRANCH  14  15
ATOM     15  N   UNL     1      -3.637  -3.903   0.089  0.00  0.00    +0.057 N 
ATOM     16  O   UNL     1      -4.690  -4.459  -0.118  0.00  0.00    -0.126 OA
ATOM     17  O   UNL     1      -2.935  -3.573  -0.838  0.00  0.00    -0.126 OA
ENDBRANCH  14  15
ENDBRANCH   4   9
BRANCH   3  18
ATOM     18  C   UNL     1      -4.276   0.274   1.446  0.00  0.00    +0.159 C 
ATOM     19  O   UNL     1      -4.631   1.382   1.797  0.00  0.00    -0.293 OA
ATOM     20  C   UNL     1      -5.303  -0.796   1.177  0.00  0.00    +0.091 C 
ENDBRANCH   3  18
BRANCH   5  21
ATOM     21  C   UNL     1      -0.579  -2.344  -0.582  0.00  0.00    +0.098 C 
ATOM     22  N   UNL     1      -0.193  -3.163  -1.268  0.00  0.00    -0.191 NA
ENDBRANCH   5  21
BRANCH   6  23
ATOM     23  S   UNL     1       1.455  -0.333   0.137  0.00  0.00    -0.100 S 
BRANCH  23  24
ATOM     24  C   UNL     1       2.175   1.144   0.904  0.00  0.00    +0.173 C 
BRANCH  24  25
ATOM     25  C   UNL     1       3.627   1.256   0.515  0.00  0.00    +0.249 C 
ATOM     26  O   UNL     1       4.128   0.419  -0.211  0.00  0.00    -0.273 OA
BRANCH  25  27
ATOM     27  N   UNL     1       4.359   2.269   0.965  0.00  0.00    -0.156 NA
ATOM     28  C   UNL     1       5.619   2.412   0.559  0.00  0.00    +0.164 A 
ATOM     29  N   UNL     1       6.352   1.555  -0.196  0.00  0.00    -0.335 N 
ATOM     30  H   UNL     1       5.961   0.722  -0.505  0.00  0.00    +0.168 HD
ATOM     31  C   UNL     1       7.657   1.871  -0.524  0.00  0.00    +0.055 A 
ATOM     32  C   UNL     1       8.581   1.140  -1.284  0.00  0.00    +0.027 A 
ATOM     33  C   UNL     1       9.849   1.627  -1.503  0.00  0.00    +0.002 A 
ATOM     34  C   UNL     1      10.248   2.848  -0.983  0.00  0.00    +0.001 A 
ATOM     35  C   UNL     1       9.354   3.589  -0.231  0.00  0.00    +0.017 A 
ATOM     36  C   UNL     1       8.087   3.103  -0.011  0.00  0.00    +0.039 A 
ATOM     37  S   UNL     1       6.659   3.697   0.858  0.00  0.00    -0.052 S 
ENDBRANCH  25  27
ENDBRANCH  24  25
ENDBRANCH  23  24
ENDBRANCH   6  23
TORSDOF 8
