REMARK  Name = ZINC01027494
REMARK  3 active torsions:
REMARK  status: ('A' for Active; 'I' for Inactive)
REMARK    1  A    between atoms: C_6  and  N_11
REMARK    2  A    between atoms: N_11  and  C_12
REMARK    3  A    between atoms: N_17  and  C_20
REMARK                            x       y       z     vdW  Elec       q    Type
REMARK                         _______ _______ _______ _____ _____    ______ ____
ROOT
ATOM      1  C   UNL     1       4.920  -4.157  -0.076  0.00  0.00    +0.166 C 
ATOM      2  C   UNL     1       6.283  -4.619  -0.630  0.00  0.00    +0.128 C 
ATOM      3  C   UNL     1       6.894  -5.384   0.523  0.00  0.00    +0.228 C 
ATOM      4  O   UNL     1       7.980  -5.923   0.511  0.00  0.00    -0.275 OA
ATOM      5  N   UNL     1       6.046  -5.371   1.559  0.00  0.00    -0.209 N 
ATOM      6  C   UNL     1       4.901  -4.710   1.333  0.00  0.00    +0.247 C 
ATOM      7  O   UNL     1       3.995  -4.574   2.128  0.00  0.00    -0.273 OA
ENDROOT
BRANCH   5   8
ATOM      8  C   UNL     1       6.330  -5.999   2.779  0.00  0.00    +0.045 A 
ATOM      9  C   UNL     1       6.525  -5.222   3.927  0.00  0.00    +0.024 A 
ATOM     10  C   UNL     1       6.802  -5.802   5.125  0.00  0.00    +0.010 A 
ATOM     11  C   UNL     1       6.895  -7.202   5.217  0.00  0.00    -0.018 A 
ATOM     12  C   UNL     1       7.179  -7.834   6.439  0.00  0.00    +0.008 A 
ATOM     13  C   UNL     1       7.262  -9.192   6.493  0.00  0.00    +0.001 A 
ATOM     14  C   UNL     1       7.069  -9.968   5.352  0.00  0.00    +0.001 A 
ATOM     15  C   UNL     1       6.792  -9.391   4.151  0.00  0.00    +0.008 A 
ATOM     16  C   UNL     1       6.699  -7.992   4.056  0.00  0.00    -0.016 A 
ATOM     17  C   UNL     1       6.409  -7.362   2.835  0.00  0.00    +0.032 A 
ENDBRANCH   5   8
BRANCH   1  18
ATOM     18  N   UNL     1       4.840  -2.695  -0.057  0.00  0.00    -0.333 N 
ATOM     19  H   UNL     1       5.653  -2.165  -0.042  0.00  0.00    +0.147 HD
BRANCH  18  25
ATOM     20  C   UNL     1      -0.225   1.149  -0.049  0.00  0.00    +0.001 A 
ATOM     21  C   UNL     1       0.933   1.925  -0.028  0.00  0.00    +0.001 A 
ATOM     22  C   UNL     1       2.164   1.345  -0.026  0.00  0.00    +0.008 A 
ATOM     23  C   UNL     1       2.274  -0.056  -0.044  0.00  0.00    -0.016 A 
ATOM     24  C   UNL     1       3.528  -0.688  -0.041  0.00  0.00    +0.031 A 
ATOM     25  C   UNL     1       3.595  -2.063  -0.059  0.00  0.00    +0.028 A 
ATOM     26  C   UNL     1       2.427  -2.835  -0.081  0.00  0.00    +0.023 A 
ATOM     27  C   UNL     1       1.201  -2.247  -0.083  0.00  0.00    +0.010 A 
ATOM     28  C   UNL     1       1.096  -0.845  -0.065  0.00  0.00    -0.018 A 
ATOM     29  C   UNL     1      -0.157  -0.210  -0.067  0.00  0.00    +0.008 A 
ENDBRANCH  18  25
ENDBRANCH   1  18
TORSDOF 3
