REMARK  Name = ZINC19236988
REMARK  7 active torsions:
REMARK  status: ('A' for Active; 'I' for Inactive)
REMARK    1  A    between atoms: C_1  and  C_2
REMARK    2  A    between atoms: C_7  and  C_8
REMARK    3  A    between atoms: N_16  and  C_19
REMARK    4  A    between atoms: C_26  and  C_28
REMARK    5  A    between atoms: C_26  and  C_29
REMARK    6  A    between atoms: C_29  and  O_31
REMARK    7  A    between atoms: O_31  and  C_32
REMARK                            x       y       z     vdW  Elec       q    Type
REMARK                         _______ _______ _______ _____ _____    ______ ____
ROOT
ATOM      1  C   UNL     1      -2.906   0.812   0.141  0.00  0.00    +0.098 C 
ATOM      2  C   UNL     1      -3.184   0.886  -1.306  0.00  0.00    +0.111 C 
ATOM      3  C   UNL     1      -1.993   0.026  -1.895  0.00  0.00    +0.120 C 
ATOM      4  C   UNL     1      -2.512  -0.010  -3.306  0.00  0.00    +0.232 C 
ATOM      5  O   UNL     1      -2.429  -0.927  -4.095  0.00  0.00    -0.274 OA
ATOM      6  N   UNL     1      -3.097   1.208  -3.512  0.00  0.00    -0.210 N 
ATOM      7  C   UNL     1      -3.332   1.880  -2.345  0.00  0.00    +0.232 C 
ATOM      8  O   UNL     1      -3.606   3.054  -2.213  0.00  0.00    -0.274 OA
ATOM      9  C   UNL     1      -2.149  -1.187  -0.980  0.00  0.00    +0.127 C 
ATOM     10  N   UNL     1      -2.603  -0.649   0.327  0.00  0.00    -0.294 NA
ATOM     11  C   UNL     1      -0.813  -1.917  -0.834  0.00  0.00    +0.040 C 
ATOM     12  H   UNL     1      -1.814  -0.767   1.083  0.00  0.00    +0.124 HD
ENDROOT
BRANCH   1  19
ATOM     13  C   UNL     1      -3.240   3.635   0.654  0.00  0.00    +0.044 C 
ATOM     14  C   UNL     1      -1.873   3.010   0.749  0.00  0.00    -0.046 A 
ATOM     15  C   UNL     1      -0.778   3.787   1.076  0.00  0.00    +0.003 A 
ATOM     16  C   UNL     1       0.477   3.213   1.163  0.00  0.00    +0.000 A 
ATOM     17  C   UNL     1       0.636   1.861   0.922  0.00  0.00    +0.000 A 
ATOM     18  C   UNL     1      -0.459   1.083   0.596  0.00  0.00    +0.005 A 
ATOM     19  C   UNL     1      -1.713   1.659   0.504  0.00  0.00    -0.027 A 
ENDBRANCH   1  19
BRANCH   6  20
ATOM     20  C   UNL     1      -3.408   1.716  -4.782  0.00  0.00    +0.044 A 
ATOM     21  C   UNL     1      -3.116   0.973  -5.918  0.00  0.00    +0.027 A 
ATOM     22  C   UNL     1      -3.429   1.473  -7.168  0.00  0.00    +0.040 A 
ATOM     23  C   UNL     1      -4.021   2.718  -7.288  0.00  0.00    +0.124 A 
ATOM     24  C   UNL     1      -4.308   3.463  -6.156  0.00  0.00    +0.040 A 
ATOM     25  C   UNL     1      -4.002   2.965  -4.905  0.00  0.00    +0.027 A 
ATOM     26  F   UNL     1      -4.321   3.208  -8.511  0.00  0.00    -0.205 F 
ENDBRANCH   6  20
BRANCH   9  27
ATOM     27  C   UNL     1      -3.198  -2.121  -1.526  0.00  0.00    +0.328 C 
ATOM     28  O   UNL     1      -2.875  -3.038  -2.244  0.00  0.00    -0.249 OA
BRANCH  27  29
ATOM     29  O   UNL     1      -4.490  -1.935  -1.215  0.00  0.00    -0.467 OA
ATOM     30  C   UNL     1      -5.445  -2.874  -1.777  0.00  0.00    +0.280 C 
ENDBRANCH  27  29
ENDBRANCH   9  27
TORSDOF 4
