REMARK  Name = ZINC37671754
REMARK  6 active torsions:
REMARK  status: ('A' for Active; 'I' for Inactive)
REMARK    1  A    between atoms: C_1  and  C_2
REMARK    2  A    between atoms: C_2  and  C_3
REMARK    3  A    between atoms: C_2  and  N_4
REMARK    4  A    between atoms: N_4  and  C_5
REMARK    5  A    between atoms: C_5  and  C_6
REMARK    6  A    between atoms: C_9  and  N_12
REMARK                            x       y       z     vdW  Elec       q    Type
REMARK                         _______ _______ _______ _____ _____    ______ ____
ROOT
ATOM      1  N   UNL     1      -1.397  -0.537   0.112  0.00  0.00    -0.309 N 
ATOM      2  C   UNL     1      -2.124  -0.084   1.204  0.00  0.00    +0.108 A 
ATOM      3  C   UNL     1      -2.970   1.049   1.064  0.00  0.00    +0.027 A 
ATOM      4  C   UNL     1      -3.227   1.875  -0.104  0.00  0.00    +0.019 A 
ATOM      5  C   UNL     1      -4.076   2.908  -0.003  0.00  0.00    +0.046 A 
ATOM      6  S   UNL     1      -4.604   2.849   1.700  0.00  0.00    -0.096 S 
ATOM      7  C   UNL     1      -3.670   1.438   2.227  0.00  0.00    +0.024 A 
ATOM      8  C   UNL     1      -3.522   0.744   3.413  0.00  0.00    +0.033 A 
ATOM      9  C   UNL     1      -2.681  -0.336   3.446  0.00  0.00    +0.085 A 
ATOM     10  N   UNL     1      -2.026  -0.711   2.357  0.00  0.00    -0.349 N 
ATOM     11  H   UNL     1      -1.442  -1.484   2.414  0.00  0.00    +0.167 HD
ENDROOT
BRANCH   1  13
ATOM     12  C   UNL     1       0.077   1.405  -0.067  0.00  0.00    +0.028 C 
ATOM     13  C   UNL     1      -0.004  -0.123  -0.064  0.00  0.00    +0.069 C 
ATOM     14  C   UNL     1       0.842  -0.676   1.085  0.00  0.00    +0.028 C 
ENDBRANCH   1  13
BRANCH   1  15
ATOM     15  C   UNL     1      -2.025  -1.431  -0.865  0.00  0.00    +0.141 C 
BRANCH  15  16
ATOM     16  C   UNL     1      -1.710  -2.862  -0.511  0.00  0.00    -0.030 A 
ATOM     17  C   UNL     1      -0.528  -3.436  -0.943  0.00  0.00    +0.007 A 
ATOM     18  C   UNL     1      -0.237  -4.747  -0.621  0.00  0.00    +0.023 A 
ATOM     19  C   UNL     1      -1.133  -5.489   0.139  0.00  0.00    +0.025 A 
ATOM     20  C   UNL     1      -2.319  -4.909   0.571  0.00  0.00    +0.023 A 
ATOM     21  C   UNL     1      -2.601  -3.596   0.250  0.00  0.00    +0.007 A 
BRANCH  19  22
ATOM     22  N   UNL     1      -0.842  -6.815   0.466  0.00  0.00    -0.358 N 
ATOM     23  H   UNL     1      -0.013  -7.219   0.163  0.00  0.00    +0.142 HD
ATOM     24  H   UNL     1      -1.468  -7.332   0.997  0.00  0.00    +0.142 HD
ENDBRANCH  19  22
ENDBRANCH  15  16
ENDBRANCH   1  15
TORSDOF 4
