REMARK  Name = ZINC02106439
REMARK  5 active torsions:
REMARK  status: ('A' for Active; 'I' for Inactive)
REMARK    1  A    between atoms: C_1  and  C_2
REMARK    2  A    between atoms: N_24  and  C_25
REMARK    3  A    between atoms: C_25  and  C_26
REMARK    4  A    between atoms: C_26  and  O_27
REMARK    5  A    between atoms: O_27  and  C_28
REMARK                            x       y       z     vdW  Elec       q    Type
REMARK                         _______ _______ _______ _____ _____    ______ ____
ROOT
ATOM      1  C   UNL     1      -0.945  -8.450  -0.167  0.00  0.00    +0.008 C 
ATOM      2  C   UNL     1      -0.629  -6.978  -0.439  0.00  0.00    -0.009 C 
ATOM      3  C   UNL     1       0.588  -6.548   0.386  0.00  0.00    +0.008 C 
ATOM      4  C   UNL     1       1.059  -5.165  -0.063  0.00  0.00    +0.037 C 
ATOM      5  C   UNL     1      -0.129  -4.206  -0.036  0.00  0.00    -0.023 A 
ATOM      6  C   UNL     1      -1.393  -4.676  -0.024  0.00  0.00    -0.004 A 
ATOM      7  S   UNL     1      -2.422  -3.233   0.005  0.00  0.00    -0.073 S 
ATOM      8  C   UNL     1      -1.148  -1.997   0.000  0.00  0.00    +0.116 A 
ATOM      9  C   UNL     1       0.041  -2.752  -0.022  0.00  0.00    +0.077 A 
ATOM     10  C   UNL     1       1.255  -2.002  -0.028  0.00  0.00    +0.283 A 
ATOM     11  O   UNL     1       2.331  -2.577  -0.045  0.00  0.00    -0.265 OA
ATOM     12  N   UNL     1       1.206  -0.654  -0.015  0.00  0.00    -0.175 N 
ATOM     13  C   UNL     1       0.002  -0.004   0.002  0.00  0.00    +0.167 A 
ATOM     14  N   UNL     1      -1.137  -0.676   0.012  0.00  0.00    -0.220 NA
ATOM     15  C   UNL     1      -0.018   1.465   0.010  0.00  0.00    +0.030 A 
ATOM     16  C   UNL     1      -1.212   2.184   0.020  0.00  0.00    +0.012 A 
ATOM     17  C   UNL     1      -1.176   3.561   0.031  0.00  0.00    +0.001 A 
ATOM     18  C   UNL     1       0.037   4.238   0.022  0.00  0.00    +0.001 A 
ATOM     19  C   UNL     1       1.229   3.546   0.008  0.00  0.00    +0.012 A 
ATOM     20  C   UNL     1       1.215   2.152   0.002  0.00  0.00    +0.027 A 
ATOM     21  C   UNL     1       2.456   1.366  -0.013  0.00  0.00    +0.148 A 
ATOM     22  N   UNL     1       2.408   0.064  -0.021  0.00  0.00    -0.146 NA
ATOM     23  N   UNL     1       3.683   2.013  -0.019  0.00  0.00    -0.325 N 
ATOM     24  C   UNL     1      -1.829  -6.110  -0.034  0.00  0.00    +0.046 C 
ATOM     25  H   UNL     1       3.721   2.982  -0.014  0.00  0.00    +0.148 HD
ENDROOT
BRANCH  23  26
ATOM     26  C   UNL     1       4.923   1.232  -0.034  0.00  0.00    +0.131 C 
BRANCH  26  27
ATOM     27  C   UNL     1       6.123   2.180  -0.038  0.00  0.00    +0.178 C 
BRANCH  27  28
ATOM     28  O   UNL     1       6.154   2.915   1.187  0.00  0.00    -0.381 OA
ATOM     29  C   UNL     1       7.243   3.835   1.286  0.00  0.00    +0.194 C 
ENDBRANCH  27  28
ENDBRANCH  26  27
ENDBRANCH  23  26
TORSDOF 3
