REMARK  Name = ZINC04410285
REMARK  8 active torsions:
REMARK  status: ('A' for Active; 'I' for Inactive)
REMARK    1  A    between atoms: C_1  and  O_2
REMARK    2  A    between atoms: O_2  and  C_3
REMARK    3  A    between atoms: C_6  and  C_13
REMARK    4  A    between atoms: C_7  and  O_11
REMARK    5  A    between atoms: C_8  and  O_9
REMARK    6  A    between atoms: O_9  and  C_10
REMARK    7  A    between atoms: O_11  and  C_12
REMARK    8  A    between atoms: C_21  and  O_25
REMARK                            x       y       z     vdW  Elec       q    Type
REMARK                         _______ _______ _______ _____ _____    ______ ____
ROOT
ATOM      1  C   UNL     1       2.509  -2.494  -4.394  0.00  0.00    -0.031 C 
ATOM      2  C   UNL     1       1.447  -2.948  -5.396  0.00  0.00    +0.011 C 
ATOM      3  C   UNL     1       0.495  -3.948  -4.739  0.00  0.00    +0.005 C 
ATOM      4  C   UNL     1      -0.550  -4.396  -5.763  0.00  0.00    +0.000 C 
ATOM      5  C   UNL     1      -1.338  -3.184  -6.261  0.00  0.00    +0.003 C 
ATOM      6  C   UNL     1      -0.383  -2.176  -6.905  0.00  0.00    +0.035 C 
ATOM      7  C   UNL     1       0.648  -1.730  -5.868  0.00  0.00    +0.066 C 
ATOM      8  C   UNL     1       1.610  -0.714  -6.488  0.00  0.00    +0.016 C 
ATOM      9  C   UNL     1       2.674  -0.339  -5.452  0.00  0.00    -0.079 C 
ATOM     10  N   UNL     1       3.415  -1.538  -5.043  0.00  0.00    +0.384 N 
ATOM     11  H   UNL     1       4.144  -1.277  -4.397  0.00  0.00    -0.085 HD
ATOM     12  H   UNL     1       3.829  -1.969  -5.856  0.00  0.00    -0.085 HD
ENDROOT
BRANCH   1  16
ATOM     13  C   UNL     1       0.608  -0.608  -1.056  0.00  0.00    +0.165 A 
ATOM     14  C   UNL     1       1.477   0.112  -1.863  0.00  0.00    +0.050 A 
ATOM     15  C   UNL     1       2.089  -0.500  -2.940  0.00  0.00    +0.009 A 
ATOM     16  C   UNL     1       1.838  -1.831  -3.217  0.00  0.00    -0.015 A 
ATOM     17  C   UNL     1       0.971  -2.558  -2.416  0.00  0.00    +0.167 A 
ATOM     18  C   UNL     1       0.358  -1.947  -1.327  0.00  0.00    +0.204 A 
BRANCH  13  20
ATOM     19  C   UNL     1       0.308   1.375   0.224  0.00  0.00    +0.277 C 
ATOM     20  O   UNL     1       0.005  -0.004   0.004  0.00  0.00    -0.491 OA
ENDBRANCH  13  20
BRANCH  18  21
ATOM     21  O   UNL     1      -0.489  -2.658  -0.535  0.00  0.00    -0.488 OA
ATOM     22  C   UNL     1      -1.870  -2.663  -0.902  0.00  0.00    +0.277 C 
ENDBRANCH  18  21
BRANCH  17  23
ATOM     23  O   UNL     1       0.725  -3.866  -2.690  0.00  0.00    -0.491 OA
ATOM     24  C   UNL     1       1.582  -4.831  -2.075  0.00  0.00    +0.277 C 
ENDBRANCH  17  23
ENDBRANCH   1  16
BRANCH   7  25
ATOM     25  O   UNL     1      -0.020  -1.137  -4.753  0.00  0.00    -0.388 OA
ATOM     26  H   UNL     1      -0.547  -0.358  -4.980  0.00  0.00    +0.210 HD
ENDBRANCH   7  25
TORSDOF 5
