REMARK  Name = ZINC13064710
REMARK  14 active torsions:
REMARK  status: ('A' for Active; 'I' for Inactive)
REMARK    1  A    between atoms: C_1  and  C_2
REMARK    2  A    between atoms: C_2  and  C_3
REMARK    3  A    between atoms: C_3  and  C_5
REMARK    4  A    between atoms: C_3  and  N_70
REMARK    5  A    between atoms: N_9  and  C_10
REMARK    6  A    between atoms: C_10  and  C_11
REMARK    7  A    between atoms: C_16  and  C_17
REMARK    8  A    between atoms: C_16  and  N_70
REMARK    9  A    between atoms: C_20  and  O_23
REMARK   10  A    between atoms: O_23  and  C_24
REMARK   11  A    between atoms: C_25  and  C_26
REMARK   12  A    between atoms: C_25  and  N_70
REMARK   13  A    between atoms: C_30  and  C_39
REMARK   14  A    between atoms: C_31  and  C_38
REMARK                            x       y       z     vdW  Elec       q    Type
REMARK                         _______ _______ _______ _____ _____    ______ ____
ROOT
ATOM      1  N   UNL     1      -5.258   3.728  -1.472  0.00  0.00    +0.392 N 
ATOM      2  H   UNL     1      -6.117   3.167  -1.478  0.00  0.00    -0.080 HD
ENDROOT
BRANCH   1   3
ATOM      3  C   UNL     1      -4.255   3.080  -2.344  0.00  0.00    +0.003 C 
BRANCH   3   4
ATOM      4  C   UNL     1      -4.980   2.295  -3.406  0.00  0.00    +0.139 A 
ATOM      5  N   UNL     1      -6.129   2.600  -3.958  0.00  0.00    -0.115 NA
ATOM      6  N   UNL     1      -6.413   1.684  -4.819  0.00  0.00    -0.023 NA
ATOM      7  N   UNL     1      -5.476   0.802  -4.829  0.00  0.00    -0.044 NA
ATOM      8  N   UNL     1      -4.571   1.146  -3.976  0.00  0.00    -0.223 N 
BRANCH   8   9
ATOM      9  C   UNL     1      -3.334   0.420  -3.679  0.00  0.00    +0.221 C 
BRANCH   9  10
ATOM     10  C   UNL     1      -3.669  -0.916  -3.068  0.00  0.00    +0.126 A 
ATOM     11  C   UNL     1      -3.743  -2.086  -3.726  0.00  0.00    +0.046 A 
ATOM     12  C   UNL     1      -4.080  -3.073  -2.772  0.00  0.00    +0.041 A 
ATOM     13  C   UNL     1      -4.200  -2.445  -1.588  0.00  0.00    +0.195 A 
ATOM     14  O   UNL     1      -3.950  -1.139  -1.773  0.00  0.00    -0.466 OA
ENDBRANCH   9  10
ENDBRANCH   8   9
ENDBRANCH   3   4
BRANCH   3  16
ATOM     15  C   UNL     1      -2.511   4.823  -1.941  0.00  0.00    +0.002 C 
ATOM     16  C   UNL     1      -3.365   4.133  -3.006  0.00  0.00    -0.011 C 
ENDBRANCH   3  16
ENDBRANCH   1   3
BRANCH   1  17
ATOM     17  C   UNL     1      -5.566   5.083  -1.978  0.00  0.00    -0.042 C 
BRANCH  17  18
ATOM     18  C   UNL     1      -6.471   4.957  -3.176  0.00  0.00    -0.064 A 
ATOM     19  C   UNL     1      -6.119   5.553  -4.373  0.00  0.00    +0.005 A 
ATOM     20  C   UNL     1      -6.944   5.434  -5.474  0.00  0.00    +0.046 A 
ATOM     21  C   UNL     1      -8.132   4.726  -5.376  0.00  0.00    +0.120 A 
ATOM     22  C   UNL     1      -8.486   4.133  -4.173  0.00  0.00    +0.046 A 
ATOM     23  C   UNL     1      -7.655   4.250  -3.076  0.00  0.00    +0.005 A 
BRANCH  21  24
ATOM     24  O   UNL     1      -8.948   4.612  -6.457  0.00  0.00    -0.495 OA
ATOM     25  C   UNL     1      -8.520   5.247  -7.663  0.00  0.00    +0.277 C 
ENDBRANCH  21  24
ENDBRANCH  17  18
ENDBRANCH   1  17
BRANCH   1  26
ATOM     26  C   UNL     1      -4.747   3.810  -0.088  0.00  0.00    -0.036 C 
BRANCH  26  27
ATOM     27  C   UNL     1      -4.660   2.417   0.481  0.00  0.00    +0.001 A 
ATOM     28  C   UNL     1      -3.468   1.770   0.504  0.00  0.00    +0.017 A 
ATOM     29  C   UNL     1      -3.418   0.416   1.059  0.00  0.00    -0.001 A 
ATOM     30  C   UNL     1      -2.221  -0.307   1.095  0.00  0.00    +0.013 A 
ATOM     31  C   UNL     1      -2.208  -1.569   1.619  0.00  0.00    -0.047 A 
ATOM     32  C   UNL     1      -3.372  -2.139   2.117  0.00  0.00    -0.046 A 
ATOM     33  C   UNL     1      -4.562  -1.445   2.092  0.00  0.00    +0.030 A 
ATOM     34  C   UNL     1      -4.601  -0.161   1.558  0.00  0.00    +0.049 A 
ATOM     35  N   UNL     1      -5.779   0.555   1.515  0.00  0.00    -0.322 N 
ATOM     36  H   UNL     1      -6.592   0.157   1.863  0.00  0.00    +0.169 HD
ATOM     37  C   UNL     1      -5.816   1.796   0.999  0.00  0.00    +0.251 A 
ATOM     38  O   UNL     1      -6.875   2.399   0.977  0.00  0.00    -0.268 OA
ATOM     39  C   UNL     1      -3.333  -3.532   2.690  0.00  0.00    +0.044 C 
ATOM     40  C   UNL     1      -0.919  -2.348   1.657  0.00  0.00    +0.044 C 
ENDBRANCH  26  27
ENDBRANCH   1  26
TORSDOF 10
