REMARK  Name = ZINC46550028
REMARK  8 active torsions:
REMARK  status: ('A' for Active; 'I' for Inactive)
REMARK    1  A    between atoms: C_1  and  C_2
REMARK    2  A    between atoms: C_2  and  C_3
REMARK    3  A    between atoms: C_3  and  N_4
REMARK    4  A    between atoms: C_5  and  C_7
REMARK    5  A    between atoms: C_7  and  N_8
REMARK    6  A    between atoms: N_8  and  C_9
REMARK    7  A    between atoms: C_17  and  C_19
REMARK    8  A    between atoms: C_19  and  N_20
REMARK                            x       y       z     vdW  Elec       q    Type
REMARK                         _______ _______ _______ _____ _____    ______ ____
ROOT
ATOM      1  N   UNL     1      -3.925  -4.702   0.014  0.00  0.00    -0.309 N 
ATOM      2  C   UNL     1      -4.142  -3.431  -0.682  0.00  0.00    +0.131 C 
ATOM      3  C   UNL     1      -4.560  -4.948   1.218  0.00  0.00    +0.134 A 
ATOM      4  C   UNL     1      -5.852  -5.544   1.244  0.00  0.00    +0.051 A 
ATOM      5  C   UNL     1      -6.686  -5.972   0.119  0.00  0.00    -0.025 A 
ATOM      6  C   UNL     1      -7.884  -6.515   0.418  0.00  0.00    -0.004 A 
ATOM      7  S   UNL     1      -7.974  -6.490   2.188  0.00  0.00    -0.073 S 
ATOM      8  C   UNL     1      -6.399  -5.748   2.526  0.00  0.00    +0.114 A 
ATOM      9  N   UNL     1      -5.745  -5.401   3.618  0.00  0.00    -0.223 NA
ATOM     10  C   UNL     1      -4.550  -4.851   3.531  0.00  0.00    +0.146 A 
ATOM     11  N   UNL     1      -3.973  -4.637   2.362  0.00  0.00    -0.215 NA
ATOM     12  C   UNL     1      -8.914  -7.026  -0.543  0.00  0.00    +0.043 C 
ATOM     13  C   UNL     1      -8.570  -6.504  -1.945  0.00  0.00    +0.005 C 
ATOM     14  C   UNL     1      -7.081  -6.749  -2.208  0.00  0.00    +0.005 C 
ATOM     15  C   UNL     1      -6.239  -5.820  -1.332  0.00  0.00    +0.037 C 
ENDROOT
BRANCH   1  16
ATOM     16  C   UNL     1      -3.037  -5.712  -0.565  0.00  0.00    +0.201 C 
BRANCH  16  18
ATOM     17  N   UNL     1      -0.637  -6.306  -0.470  0.00  0.00    -0.314 N 
ATOM     18  C   UNL     1      -1.631  -5.490  -0.067  0.00  0.00    +0.230 C 
ATOM     19  O   UNL     1      -1.396  -4.578   0.696  0.00  0.00    -0.274 OA
ATOM     20  H   UNL     1      -0.825  -7.035  -1.081  0.00  0.00    +0.149 HD
BRANCH  17  21
ATOM     21  C   UNL     1       0.729  -6.090   0.014  0.00  0.00    +0.104 C 
BRANCH  21  23
ATOM     22  C   UNL     1       3.083  -6.919  -0.086  0.00  0.00    +0.005 C 
ATOM     23  C   UNL     1       1.657  -7.145  -0.591  0.00  0.00    +0.015 C 
ENDBRANCH  21  23
ENDBRANCH  17  21
ENDBRANCH  16  18
ENDBRANCH   1  16
BRANCH  10  24
ATOM     24  C   UNL     1      -3.823  -4.464   4.793  0.00  0.00    +0.160 C 
BRANCH  24  25
ATOM     25  N   UNL     1      -3.006  -5.594   5.254  0.00  0.00    -0.291 NA
ATOM     26  C   UNL     1      -3.852  -6.720   5.676  0.00  0.00    +0.113 C 
ATOM     27  C   UNL     1      -2.961  -7.894   6.090  0.00  0.00    +0.175 C 
ATOM     28  O   UNL     1      -2.071  -7.468   7.125  0.00  0.00    -0.377 OA
ATOM     29  C   UNL     1      -1.231  -6.374   6.748  0.00  0.00    +0.175 C 
ATOM     30  C   UNL     1      -2.104  -5.184   6.340  0.00  0.00    +0.113 C 
ENDBRANCH  24  25
ENDBRANCH  10  24
TORSDOF 6
