REMARK  Name = ZINC65183850
REMARK  9 active torsions:
REMARK  status: ('A' for Active; 'I' for Inactive)
REMARK    1  A    between atoms: C_1  and  C_2
REMARK    2  A    between atoms: C_5  and  C_24
REMARK    3  A    between atoms: C_6  and  N_8
REMARK    4  A    between atoms: N_8  and  S_9
REMARK    5  A    between atoms: S_9  and  C_12
REMARK    6  A    between atoms: C_13  and  C_23
REMARK    7  A    between atoms: C_18  and  C_20
REMARK    8  A    between atoms: C_20  and  C_21
REMARK    9  A    between atoms: C_20  and  C_22
REMARK                            x       y       z     vdW  Elec       q    Type
REMARK                         _______ _______ _______ _____ _____    ______ ____
ROOT
ATOM      1  S   UNL     1       0.048  -1.979   3.830  0.00  0.00    +0.111 S 
ATOM      2  O   UNL     1       1.284  -1.283   3.906  0.00  0.00    -0.147 OA
ATOM      3  O   UNL     1      -1.206  -1.316   3.918  0.00  0.00    -0.147 OA
ENDROOT
BRANCH   1   4
ATOM      4  C   UNL     1       0.070  -3.186   5.114  0.00  0.00    +0.223 A 
ATOM      5  C   UNL     1      -1.006  -3.748   5.693  0.00  0.00    +0.086 A 
ATOM      6  N   UNL     1      -0.581  -4.616   6.623  0.00  0.00    -0.223 NA
ATOM      7  C   UNL     1       0.721  -4.611   6.640  0.00  0.00    +0.198 A 
ATOM      8  N   UNL     1       1.202  -3.732   5.706  0.00  0.00    -0.186 N 
ATOM      9  N   UNL     1       2.586  -3.628   5.609  0.00  0.00    -0.160 NA
ATOM     10  C   UNL     1       3.373  -4.331   6.365  0.00  0.00    +0.105 A 
ATOM     11  S   UNL     1       2.213  -5.260   7.355  0.00  0.00    -0.033 S 
ATOM     12  C   UNL     1      -2.445  -3.452   5.355  0.00  0.00    +0.069 C 
BRANCH  10  13
ATOM     13  C   UNL     1       4.880  -4.352   6.403  0.00  0.00    +0.040 C 
ATOM     14  C   UNL     1       5.396  -5.492   5.523  0.00  0.00    +0.014 C 
ATOM     15  C   UNL     1       5.422  -3.020   5.881  0.00  0.00    +0.014 C 
ENDBRANCH  10  13
ENDBRANCH   1   4
BRANCH   1  16
ATOM     16  N   UNL     1       0.051  -2.796   2.390  0.00  0.00    -0.096 NA
BRANCH  16  22
ATOM     17  C   UNL     1      -0.018   1.503   0.010  0.00  0.00    +0.044 C 
ATOM     18  C   UNL     1       0.002  -0.004   0.002  0.00  0.00    -0.049 A 
ATOM     19  C   UNL     1       0.006  -0.688  -1.200  0.00  0.00    +0.004 A 
ATOM     20  C   UNL     1       0.024  -2.071  -1.212  0.00  0.00    +0.005 A 
ATOM     21  C   UNL     1       0.039  -2.773  -0.023  0.00  0.00    -0.026 A 
ATOM     22  C   UNL     1       0.036  -2.089   1.186  0.00  0.00    +0.077 A 
ATOM     23  C   UNL     1       0.023  -0.700   1.194  0.00  0.00    +0.030 A 
ATOM     24  C   UNL     1       0.059  -4.280  -0.037  0.00  0.00    +0.046 C 
ENDBRANCH  16  22
ENDBRANCH   1  16
TORSDOF 4
