REMARK  Name = ZINC27515740
REMARK  7 active torsions:
REMARK  status: ('A' for Active; 'I' for Inactive)
REMARK    1  A    between atoms: C_1  and  C_2
REMARK    2  A    between atoms: C_3  and  C_28
REMARK    3  A    between atoms: C_4  and  C_10
REMARK    4  A    between atoms: C_13  and  C_16
REMARK    5  A    between atoms: C_18  and  C_21
REMARK    6  A    between atoms: N_30  and  C_31
REMARK    7  A    between atoms: C_35  and  N_37
REMARK                            x       y       z     vdW  Elec       q    Type
REMARK                         _______ _______ _______ _____ _____    ______ ____
ROOT
ATOM      1  C   UNL     1      -0.710   5.950  -0.068  0.00  0.00    +0.061 C 
ATOM      2  C   UNL     1      -2.127   5.441  -0.006  0.00  0.00    +0.019 C 
ATOM      3  C   UNL     1      -2.357   4.112  -0.040  0.00  0.00    +0.056 C 
ATOM      4  C   UNL     1      -3.796   3.644   0.032  0.00  0.00    +0.142 C 
ATOM      5  N   UNL     1      -4.833   4.685   0.127  0.00  0.00    -0.288 N 
ATOM      6  C   UNL     1      -4.447   5.976   0.144  0.00  0.00    +0.304 C 
ATOM      7  O   UNL     1      -5.295   6.843   0.222  0.00  0.00    -0.252 OA
ATOM      8  N   UNL     1      -3.158   6.334   0.078  0.00  0.00    -0.273 N 
ATOM      9  H   UNL     1      -5.895   4.401   0.182  0.00  0.00    +0.151 HD
ATOM     10  H   UNL     1      -2.951   7.414   0.094  0.00  0.00    +0.156 HD
ENDROOT
BRANCH   4  11
ATOM     11  C   UNL     1      -3.933   2.743   1.233  0.00  0.00    -0.023 A 
ATOM     12  C   UNL     1      -4.098   3.293   2.491  0.00  0.00    +0.006 A 
ATOM     13  C   UNL     1      -4.228   2.475   3.594  0.00  0.00    +0.012 A 
ATOM     14  C   UNL     1      -4.182   1.088   3.439  0.00  0.00    +0.017 A 
ATOM     15  C   UNL     1      -4.010   0.539   2.167  0.00  0.00    +0.012 A 
ATOM     16  C   UNL     1      -3.886   1.370   1.072  0.00  0.00    +0.006 A 
BRANCH  14  17
ATOM     17  C   UNL     1      -4.316   0.205   4.617  0.00  0.00    +0.135 A 
ATOM     18  C   UNL     1      -4.487   0.613   5.900  0.00  0.00    +0.058 A 
ATOM     19  C   UNL     1      -4.567  -0.560   6.693  0.00  0.00    +0.020 A 
ATOM     20  C   UNL     1      -4.441  -1.614   5.845  0.00  0.00    +0.204 A 
ATOM     21  O   UNL     1      -4.295  -1.141   4.597  0.00  0.00    -0.462 OA
BRANCH  19  22
ATOM     22  C   UNL     1      -4.754  -0.623   8.165  0.00  0.00    -0.015 A 
ATOM     23  C   UNL     1      -4.864   0.551   8.906  0.00  0.00    +0.011 A 
ATOM     24  C   UNL     1      -5.042   0.487  10.273  0.00  0.00    +0.039 A 
ATOM     25  C   UNL     1      -5.102  -0.742  10.909  0.00  0.00    +0.123 A 
ATOM     26  C   UNL     1      -4.988  -1.912  10.176  0.00  0.00    +0.039 A 
ATOM     27  C   UNL     1      -4.815  -1.857   8.808  0.00  0.00    +0.011 A 
ATOM     28  F   UNL     1      -5.272  -0.800  12.248  0.00  0.00    -0.205 F 
ENDBRANCH  19  22
ENDBRANCH  14  17
ENDBRANCH   4  11
BRANCH   3  29
ATOM     29  C   UNL     1      -1.289   3.186  -0.133  0.00  0.00    +0.248 C 
ATOM     30  O   UNL     1      -1.012   2.683  -1.206  0.00  0.00    -0.270 OA
ATOM     31  N   UNL     1      -0.581   2.862   0.967  0.00  0.00    -0.282 N 
ATOM     32  H   UNL     1      -0.888   3.244   1.952  0.00  0.00    +0.155 HD
BRANCH  31  33
ATOM     33  C   UNL     1       0.545   2.040   0.856  0.00  0.00    +0.036 A 
ATOM     34  C   UNL     1       0.558   0.998  -0.062  0.00  0.00    +0.023 A 
ATOM     35  C   UNL     1       1.669   0.184  -0.165  0.00  0.00    +0.004 A 
ATOM     36  C   UNL     1       2.769   0.407   0.645  0.00  0.00    +0.033 A 
ATOM     37  C   UNL     1       2.759   1.444   1.560  0.00  0.00    +0.128 A 
ATOM     38  C   UNL     1       1.651   2.261   1.668  0.00  0.00    +0.056 A 
BRANCH  37  39
ATOM     39  N   UNL     1       3.937   1.677   2.425  0.00  0.00    +0.056 N 
ATOM     40  O   UNL     1       3.929   2.590   3.231  0.00  0.00    -0.126 OA
ATOM     41  O   UNL     1       4.915   0.957   2.330  0.00  0.00    -0.126 OA
ENDBRANCH  37  39
ENDBRANCH  31  33
ENDBRANCH   3  29
TORSDOF 6
