REMARK  Name = ZINC02099048
REMARK  7 active torsions:
REMARK  status: ('A' for Active; 'I' for Inactive)
REMARK    1  A    between atoms: C_1  and  O_2
REMARK    2  A    between atoms: O_2  and  C_3
REMARK    3  A    between atoms: C_6  and  O_41
REMARK    4  A    between atoms: C_7  and  C_9
REMARK    5  A    between atoms: N_28  and  C_31
REMARK    6  A    between atoms: C_31  and  C_32
REMARK    7  A    between atoms: O_41  and  C_42
REMARK                            x       y       z     vdW  Elec       q    Type
REMARK                         _______ _______ _______ _____ _____    ______ ____
ROOT
ATOM      1  C   UNL     1      -0.013   1.086   0.008  0.00  0.00    +0.158 C 
ATOM      2  C   UNL     1      -0.710   1.454  -1.282  0.00  0.00    +0.046 A 
ATOM      3  C   UNL     1      -1.685   2.385  -1.364  0.00  0.00    -0.015 A 
ATOM      4  C   UNL     1      -2.091   2.452  -2.753  0.00  0.00    +0.003 A 
ATOM      5  C   UNL     1      -3.045   3.222  -3.426  0.00  0.00    +0.010 A 
ATOM      6  C   UNL     1      -3.163   3.019  -4.779  0.00  0.00    +0.001 A 
ATOM      7  C   UNL     1      -2.381   2.099  -5.457  0.00  0.00    +0.002 A 
ATOM      8  C   UNL     1      -1.431   1.323  -4.816  0.00  0.00    +0.026 A 
ATOM      9  C   UNL     1      -1.288   1.507  -3.442  0.00  0.00    +0.047 A 
ATOM     10  N   UNL     1      -0.467   0.923  -2.521  0.00  0.00    -0.356 N 
ATOM     11  H   UNL     1       0.189   0.235  -2.714  0.00  0.00    +0.166 HD
ATOM     12  C   UNL     1      -2.217   3.174  -0.195  0.00  0.00    +0.069 C 
ATOM     13  C   UNL     1      -1.208   3.088   0.959  0.00  0.00    +0.167 C 
ATOM     14  N   UNL     1      -0.772   1.701   1.117  0.00  0.00    -0.276 N 
ATOM     15  C   UNL     1      -1.031   0.974   2.206  0.00  0.00    +0.234 C 
ATOM     16  O   UNL     1      -0.689  -0.189   2.204  0.00  0.00    -0.274 OA
ATOM     17  C   UNL     1      -1.714   1.497   3.428  0.00  0.00    +0.204 C 
ATOM     18  N   UNL     1      -2.044   2.908   3.308  0.00  0.00    -0.287 N 
ATOM     19  C   UNL     1      -1.825   3.629   2.209  0.00  0.00    +0.237 C 
ATOM     20  O   UNL     1      -2.141   4.800   2.225  0.00  0.00    -0.274 OA
ENDROOT
BRANCH   1  25
ATOM     21  C   UNL     1       3.056   3.090  -0.911  0.00  0.00    +0.121 A 
ATOM     22  C   UNL     1       3.993   2.588  -0.019  0.00  0.00    +0.049 A 
ATOM     23  C   UNL     1       3.632   1.603   0.879  0.00  0.00    +0.049 A 
ATOM     24  C   UNL     1       2.334   1.115   0.889  0.00  0.00    +0.126 A 
ATOM     25  C   UNL     1       1.398   1.617  -0.003  0.00  0.00    +0.024 A 
ATOM     26  C   UNL     1       1.760   2.598  -0.905  0.00  0.00    +0.055 A 
BRANCH  21  28
ATOM     27  C   UNL     1       4.765   4.516  -1.750  0.00  0.00    +0.277 C 
ATOM     28  O   UNL     1       3.411   4.060  -1.796  0.00  0.00    -0.495 OA
ENDBRANCH  21  28
BRANCH  24  29
ATOM     29  O   UNL     1       1.979   0.145   1.774  0.00  0.00    -0.495 OA
ATOM     30  C   UNL     1       2.994  -0.325   2.663  0.00  0.00    +0.277 C 
ENDBRANCH  24  29
ENDBRANCH   1  25
BRANCH  18  31
ATOM     31  C   UNL     1      -2.657   3.574   4.459  0.00  0.00    +0.143 C 
BRANCH  31  32
ATOM     32  C   UNL     1      -1.577   4.146   5.342  0.00  0.00    -0.026 A 
ATOM     33  C   UNL     1      -1.047   3.382   6.365  0.00  0.00    +0.009 A 
ATOM     34  C   UNL     1      -0.052   3.900   7.174  0.00  0.00    +0.050 A 
ATOM     35  C   UNL     1       0.406   5.191   6.968  0.00  0.00    +0.166 A 
ATOM     36  C   UNL     1      -0.132   5.962   5.941  0.00  0.00    +0.167 A 
ATOM     37  C   UNL     1      -1.124   5.434   5.131  0.00  0.00    +0.054 A 
ATOM     38  O   UNL     1       0.480   7.182   5.945  0.00  0.00    -0.453 OA
ATOM     39  C   UNL     1       1.105   7.295   7.237  0.00  0.00    +0.466 C 
ATOM     40  O   UNL     1       1.355   5.928   7.616  0.00  0.00    -0.453 OA
ENDBRANCH  31  32
ENDBRANCH  18  31
TORSDOF 5
