REMARK  Name = ZINC00725096
REMARK  10 active torsions:
REMARK  status: ('A' for Active; 'I' for Inactive)
REMARK    1  A    between atoms: C_1  and  C_2
REMARK    2  A    between atoms: C_3  and  N_15
REMARK    3  A    between atoms: N_6  and  C_9
REMARK    4  A    between atoms: N_7  and  C_8
REMARK    5  A    between atoms: N_15  and  C_16
REMARK    6  A    between atoms: C_16  and  N_18
REMARK    7  A    between atoms: N_18  and  C_19
REMARK    8  A    between atoms: C_19  and  C_21
REMARK    9  A    between atoms: C_19  and  N_25
REMARK   10  A    between atoms: C_26  and  C_28
REMARK                            x       y       z     vdW  Elec       q    Type
REMARK                         _______ _______ _______ _____ _____    ______ ____
ROOT
ATOM      1  C   UNL     1      -0.291   0.036   0.139  0.00  0.00    +0.136 C 
ATOM      2  S   UNL     1       0.968  -0.579  -0.845  0.00  0.00    -0.019 S 
ENDROOT
BRANCH   1   3
ATOM      3  N   UNL     1      -1.246  -0.791   0.606  0.00  0.00    -0.291 N 
ATOM      4  H   UNL     1      -1.921  -0.457   1.218  0.00  0.00    +0.154 HD
BRANCH   3   7
ATOM      5  C   UNL     1      -3.614  -2.156  -0.777  0.00  0.00    +0.067 C 
ATOM      6  C   UNL     1      -2.291  -2.775  -0.406  0.00  0.00    +0.059 A 
ATOM      7  C   UNL     1      -1.266  -2.143   0.205  0.00  0.00    +0.120 A 
ATOM      8  C   UNL     1      -0.214  -3.079   0.379  0.00  0.00    +0.293 A 
ATOM      9  O   UNL     1       0.865  -2.859   0.900  0.00  0.00    -0.264 OA
ATOM     10  N   UNL     1      -0.624  -4.256  -0.136  0.00  0.00    -0.216 N 
ATOM     11  N   UNL     1      -1.921  -4.077  -0.633  0.00  0.00    -0.282 N 
ATOM     12  C   UNL     1      -2.743  -5.103  -1.279  0.00  0.00    +0.171 C 
BRANCH  10  13
ATOM     13  C   UNL     1       0.114  -5.443  -0.167  0.00  0.00    +0.067 A 
ATOM     14  C   UNL     1      -0.457  -6.630   0.274  0.00  0.00    +0.028 A 
ATOM     15  C   UNL     1       0.272  -7.802   0.237  0.00  0.00    +0.002 A 
ATOM     16  C   UNL     1       1.574  -7.793  -0.229  0.00  0.00    +0.000 A 
ATOM     17  C   UNL     1       2.148  -6.612  -0.663  0.00  0.00    +0.002 A 
ATOM     18  C   UNL     1       1.422  -5.438  -0.634  0.00  0.00    +0.028 A 
ENDBRANCH  10  13
ENDBRANCH   3   7
ENDBRANCH   1   3
BRANCH   1  19
ATOM     19  N   UNL     1      -0.326   1.348   0.447  0.00  0.00    -0.305 N 
ATOM     20  H   UNL     1      -1.041   1.697   1.001  0.00  0.00    +0.150 HD
BRANCH  19  21
ATOM     21  C   UNL     1       0.713   2.248  -0.061  0.00  0.00    +0.211 C 
BRANCH  21  22
ATOM     22  C   UNL     1       1.188   3.166   1.067  0.00  0.00    +0.225 C 
ATOM     23 CL   UNL     1       1.861   2.168   2.410  0.00  0.00    -0.080 Cl
ATOM     24 CL   UNL     1       2.467   4.273   0.442  0.00  0.00    -0.080 Cl
ATOM     25 CL   UNL     1      -0.202   4.137   1.677  0.00  0.00    -0.080 Cl
ENDBRANCH  21  22
BRANCH  21  26
ATOM     26  N   UNL     1       0.167   3.058  -1.153  0.00  0.00    -0.287 N 
ATOM     27  C   UNL     1       0.500   2.782  -2.429  0.00  0.00    +0.281 C 
ATOM     28  O   UNL     1       1.255   1.860  -2.675  0.00  0.00    -0.267 OA
ATOM     29  H   UNL     1      -0.435   3.793  -0.957  0.00  0.00    +0.151 HD
BRANCH  27  30
ATOM     30  C   UNL     1      -0.047   3.593  -3.522  0.00  0.00    +0.189 A 
ATOM     31  C   UNL     1       0.208   3.423  -4.852  0.00  0.00    +0.054 A 
ATOM     32  C   UNL     1      -0.519   4.413  -5.532  0.00  0.00    +0.042 A 
ATOM     33  C   UNL     1      -1.177   5.135  -4.598  0.00  0.00    +0.196 A 
ATOM     34  O   UNL     1      -0.894   4.635  -3.388  0.00  0.00    -0.458 OA
ENDBRANCH  27  30
ENDBRANCH  21  26
ENDBRANCH  19  21
ENDBRANCH   1  19
TORSDOF 8
