REMARK  Name = ZINC27751389
REMARK  12 active torsions:
REMARK  status: ('A' for Active; 'I' for Inactive)
REMARK    1  A    between atoms: C_1  and  C_2
REMARK    2  A    between atoms: C_3  and  C_21
REMARK    3  A    between atoms: C_4  and  C_10
REMARK    4  A    between atoms: C_12  and  O_19
REMARK    5  A    between atoms: C_13  and  O_17
REMARK    6  A    between atoms: O_17  and  C_18
REMARK    7  A    between atoms: O_19  and  C_20
REMARK    8  A    between atoms: N_23  and  C_24
REMARK    9  A    between atoms: C_26  and  O_32
REMARK   10  A    between atoms: C_29  and  O_30
REMARK   11  A    between atoms: O_30  and  C_31
REMARK   12  A    between atoms: O_32  and  C_33
REMARK                            x       y       z     vdW  Elec       q    Type
REMARK                         _______ _______ _______ _____ _____    ______ ____
ROOT
ATOM      1  C   UNL     1      -4.288   3.458   7.232  0.00  0.00    +0.061 C 
ATOM      2  C   UNL     1      -2.906   3.978   6.929  0.00  0.00    +0.019 C 
ATOM      3  C   UNL     1      -2.259   3.540   5.829  0.00  0.00    +0.056 C 
ATOM      4  C   UNL     1      -0.874   4.092   5.558  0.00  0.00    +0.143 C 
ATOM      5  N   UNL     1      -0.342   5.064   6.528  0.00  0.00    -0.288 N 
ATOM      6  C   UNL     1      -1.107   5.400   7.585  0.00  0.00    +0.304 C 
ATOM      7  O   UNL     1      -0.677   6.201   8.392  0.00  0.00    -0.252 OA
ATOM      8  N   UNL     1      -2.326   4.880   7.776  0.00  0.00    -0.273 N 
ATOM      9  H   UNL     1       0.659   5.496   6.381  0.00  0.00    +0.151 HD
ATOM     10  H   UNL     1      -2.866   5.219   8.672  0.00  0.00    +0.156 HD
ENDROOT
BRANCH   4  11
ATOM     11  C   UNL     1       0.084   2.931   5.491  0.00  0.00    -0.005 A 
ATOM     12  C   UNL     1       0.755   2.522   6.629  0.00  0.00    +0.056 A 
ATOM     13  C   UNL     1       1.635   1.455   6.569  0.00  0.00    +0.162 A 
ATOM     14  C   UNL     1       1.843   0.795   5.361  0.00  0.00    +0.163 A 
ATOM     15  C   UNL     1       1.168   1.208   4.224  0.00  0.00    +0.065 A 
ATOM     16  C   UNL     1       0.286   2.272   4.292  0.00  0.00    +0.027 A 
ATOM     17 BR   UNL     1      -0.640   2.830   2.740  0.00  0.00    -0.050 Br
BRANCH  14  18
ATOM     18  O   UNL     1       2.707  -0.254   5.297  0.00  0.00    -0.491 OA
ATOM     19  C   UNL     1       2.871  -0.883   4.025  0.00  0.00    +0.277 C 
ENDBRANCH  14  18
BRANCH  13  20
ATOM     20  O   UNL     1       2.296   1.052   7.688  0.00  0.00    -0.491 OA
ATOM     21  C   UNL     1       2.034   1.776   8.891  0.00  0.00    +0.277 C 
ENDBRANCH  13  20
ENDBRANCH   4  11
BRANCH   3  22
ATOM     22  C   UNL     1      -2.857   2.600   4.953  0.00  0.00    +0.248 C 
ATOM     23  O   UNL     1      -2.561   1.422   5.031  0.00  0.00    -0.270 OA
ATOM     24  N   UNL     1      -3.752   3.011   4.034  0.00  0.00    -0.279 N 
ATOM     25  H   UNL     1      -3.983   4.082   3.930  0.00  0.00    +0.155 HD
BRANCH  24  26
ATOM     26  C   UNL     1      -4.389   2.075   3.210  0.00  0.00    +0.079 A 
ATOM     27  C   UNL     1      -3.765   0.873   2.912  0.00  0.00    +0.072 A 
ATOM     28  C   UNL     1      -4.399  -0.052   2.097  0.00  0.00    +0.122 A 
ATOM     29  C   UNL     1      -5.655   0.224   1.578  0.00  0.00    +0.049 A 
ATOM     30  C   UNL     1      -6.282   1.420   1.877  0.00  0.00    +0.051 A 
ATOM     31  C   UNL     1      -5.651   2.350   2.688  0.00  0.00    +0.141 A 
BRANCH  31  32
ATOM     32  O   UNL     1      -6.266   3.528   2.978  0.00  0.00    -0.493 OA
ATOM     33  C   UNL     1      -7.559   3.742   2.408  0.00  0.00    +0.277 C 
ENDBRANCH  31  32
BRANCH  28  34
ATOM     34  O   UNL     1      -3.788  -1.232   1.805  0.00  0.00    -0.495 OA
ATOM     35  C   UNL     1      -4.498  -2.138   0.959  0.00  0.00    +0.277 C 
ENDBRANCH  28  34
ENDBRANCH  24  26
ENDBRANCH   3  22
TORSDOF 7
