REMARK  Name = ZINC64480175
REMARK  5 active torsions:
REMARK  status: ('A' for Active; 'I' for Inactive)
REMARK    1  A    between atoms: C_1  and  C_2
REMARK    2  A    between atoms: C_5  and  C_8
REMARK    3  A    between atoms: N_21  and  C_22
REMARK    4  A    between atoms: C_22  and  C_23
REMARK    5  A    between atoms: C_23  and  C_24
REMARK                            x       y       z     vdW  Elec       q    Type
REMARK                         _______ _______ _______ _____ _____    ______ ____
ROOT
ATOM      1  C   UNL     1       0.059  -4.275  -0.021  0.00  0.00    +0.211 C 
ATOM      2  N   UNL     1       0.750  -4.749  -1.223  0.00  0.00    -0.335 N 
ATOM      3  C   UNL     1       2.018  -5.057  -1.192  0.00  0.00    +0.193 C 
ATOM      4  N   UNL     1       2.728  -5.037  -0.050  0.00  0.00    -0.186 NA
ATOM      5  C   UNL     1       2.124  -4.932   1.113  0.00  0.00    +0.199 C 
ATOM      6  N   UNL     1       0.764  -4.762   1.169  0.00  0.00    -0.215 N 
ATOM      7  C   UNL     1       0.064  -5.046   2.325  0.00  0.00    +0.249 C 
ATOM      8  O   UNL     1      -1.290  -5.010   2.318  0.00  0.00    -0.270 OA
ATOM      9  C   UNL     1       0.722  -5.359   3.462  0.00  0.00    +0.090 C 
ATOM     10  C   UNL     1       2.194  -5.427   3.435  0.00  0.00    +0.031 C 
ATOM     11  N   UNL     1       2.847  -4.963   2.279  0.00  0.00    -0.287 N 
ATOM     12  C   UNL     1       2.886  -5.913   4.476  0.00  0.00    +0.033 C 
ATOM     13  N   UNL     1       2.649  -5.416  -2.367  0.00  0.00    -0.315 N 
ATOM     14  H   UNL     1       3.773  -4.676   2.304  0.00  0.00    +0.155 HD
ATOM     15  H   UNL     1       2.151  -5.435  -3.199  0.00  0.00    +0.149 HD
ATOM     16  H   UNL     1       0.258  -4.834  -2.055  0.00  0.00    +0.164 HD
ENDROOT
BRANCH   1  21
ATOM     17  C   UNL     1      -0.018   1.503   0.010  0.00  0.00    +0.044 C 
ATOM     18  C   UNL     1       0.002  -0.004   0.002  0.00  0.00    -0.050 A 
ATOM     19  C   UNL     1       0.006  -0.689  -1.199  0.00  0.00    +0.004 A 
ATOM     20  C   UNL     1       0.025  -2.071  -1.206  0.00  0.00    +0.007 A 
ATOM     21  C   UNL     1       0.040  -2.768  -0.013  0.00  0.00    -0.007 A 
ATOM     22  C   UNL     1       0.037  -2.084   1.188  0.00  0.00    +0.007 A 
ATOM     23  C   UNL     1       0.023  -0.702   1.195  0.00  0.00    +0.004 A 
ENDBRANCH   1  21
BRANCH  13  24
ATOM     24  C   UNL     1       4.071  -5.767  -2.357  0.00  0.00    +0.109 C 
BRANCH  24  25
ATOM     25  C   UNL     1       4.519  -6.122  -3.776  0.00  0.00    +0.052 C 
BRANCH  25  26
ATOM     26  C   UNL     1       5.982  -6.483  -3.765  0.00  0.00    -0.040 C 
ATOM     27  C   UNL     1       6.513  -7.724  -3.681  0.00  0.00    -0.001 A 
ATOM     28  C   UNL     1       5.910  -9.058  -3.576  0.00  0.00    +0.010 A 
ATOM     29  C   UNL     1       6.719 -10.139  -3.506  0.00  0.00    +0.001 A 
ATOM     30  C   UNL     1       8.116 -10.018  -3.530  0.00  0.00    +0.002 A 
ATOM     31  C   UNL     1       8.743  -8.827  -3.624  0.00  0.00    +0.026 A 
ATOM     32  C   UNL     1       7.990  -7.623  -3.705  0.00  0.00    +0.043 A 
ATOM     33  N   UNL     1       8.358  -6.368  -3.800  0.00  0.00    -0.380 N 
ATOM     34  C   UNL     1       7.154  -5.531  -3.854  0.00  0.00    +0.144 C 
ATOM     35  H   UNL     1       9.272  -6.047  -3.834  0.00  0.00    +0.160 HD
ENDBRANCH  25  26
ENDBRANCH  24  25
ENDBRANCH  13  24
TORSDOF 4
