REMARK  Name = ZINC19315227
REMARK  10 active torsions:
REMARK  status: ('A' for Active; 'I' for Inactive)
REMARK    1  A    between atoms: C_1  and  C_2
REMARK    2  A    between atoms: C_2  and  N_3
REMARK    3  A    between atoms: N_3  and  C_4
REMARK    4  A    between atoms: N_3  and  C_6
REMARK    5  A    between atoms: C_4  and  C_5
REMARK    6  A    between atoms: C_9  and  C_12
REMARK    7  A    between atoms: C_15  and  S_17
REMARK    8  A    between atoms: S_17  and  C_18
REMARK    9  A    between atoms: C_18  and  C_19
REMARK   10  A    between atoms: N_24  and  C_27
REMARK                            x       y       z     vdW  Elec       q    Type
REMARK                         _______ _______ _______ _____ _____    ______ ____
ROOT
ATOM      1  S   UNL     1      -3.050   6.578   6.884  0.00  0.00    -0.056 S 
ENDROOT
BRANCH   1   5
ATOM      2  C   UNL     1      -2.259  10.373   6.742  0.00  0.00    +0.249 A 
ATOM      3  N   UNL     1      -2.365  10.073   5.470  0.00  0.00    -0.106 NA
ATOM      4  N   UNL     1      -2.632   8.820   5.348  0.00  0.00    -0.101 NA
ATOM      5  C   UNL     1      -2.707   8.271   6.537  0.00  0.00    +0.278 A 
ATOM      6  O   UNL     1      -2.479   9.240   7.444  0.00  0.00    -0.411 OA
BRANCH   2  10
ATOM      7  C   UNL     1      -1.403  14.208   8.357  0.00  0.00    +0.030 A 
ATOM      8  C   UNL     1      -1.484  14.038   6.979  0.00  0.00    +0.024 A 
ATOM      9  C   UNL     1      -1.762  12.796   6.452  0.00  0.00    +0.015 A 
ATOM     10  C   UNL     1      -1.961  11.706   7.303  0.00  0.00    +0.039 A 
ATOM     11  C   UNL     1      -1.883  11.882   8.687  0.00  0.00    +0.015 A 
ATOM     12  C   UNL     1      -1.600  13.126   9.207  0.00  0.00    +0.024 A 
BRANCH   7  13
ATOM     13  N   UNL     1      -1.122  15.468   8.887  0.00  0.00    -0.330 N 
BRANCH  13  15
ATOM     14  C   UNL     1       0.406  15.417  10.796  0.00  0.00    +0.024 C 
ATOM     15  C   UNL     1      -1.036  15.649  10.339  0.00  0.00    +0.102 C 
ENDBRANCH  13  15
BRANCH  13  16
ATOM     16  C   UNL     1      -0.914  16.610   7.993  0.00  0.00    +0.102 C 
ATOM     17  C   UNL     1      -2.253  17.301   7.729  0.00  0.00    +0.024 C 
ENDBRANCH  13  16
ENDBRANCH   7  13
ENDBRANCH   2  10
ENDBRANCH   1   5
BRANCH   1  18
ATOM     18  C   UNL     1      -3.240   5.944   5.199  0.00  0.00    +0.174 C 
BRANCH  18  19
ATOM     19  C   UNL     1      -3.547   4.469   5.249  0.00  0.00    +0.226 C 
ATOM     20  O   UNL     1      -3.630   3.903   6.318  0.00  0.00    -0.275 OA
ATOM     21  N   UNL     1      -3.731   3.780   4.105  0.00  0.00    -0.298 N 
ATOM     22  C   UNL     1      -4.032   2.341   4.131  0.00  0.00    +0.123 C 
ATOM     23  C   UNL     1      -3.057   1.623   3.191  0.00  0.00    +0.103 C 
ATOM     24  N   UNL     1      -3.114   2.246   1.862  0.00  0.00    -0.295 NA
ATOM     25  C   UNL     1      -2.676   3.647   1.911  0.00  0.00    +0.103 C 
ATOM     26  C   UNL     1      -3.635   4.448   2.798  0.00  0.00    +0.123 C 
BRANCH  24  27
ATOM     27  C   UNL     1      -2.324   1.481   0.888  0.00  0.00    +0.079 C 
ATOM     28  C   UNL     1      -2.466   2.127  -0.502  0.00  0.00    +0.043 C 
ATOM     29  C   UNL     1      -1.891   1.137  -1.555  0.00  0.00    +0.167 C 
ATOM     30  S   UNL     1      -2.536  -0.462  -0.903  0.00  0.00    -0.029 S 
ATOM     31  O   UNL     1      -3.782  -0.745  -1.524  0.00  0.00    -0.174 OA
ATOM     32  O   UNL     1      -1.497  -1.431  -0.946  0.00  0.00    -0.174 OA
ATOM     33  C   UNL     1      -2.834   0.020   0.846  0.00  0.00    +0.184 C 
ENDBRANCH  24  27
ENDBRANCH  18  19
ENDBRANCH   1  18
TORSDOF 8
