REMARK  Name = ZINC37328330
REMARK  5 active torsions:
REMARK  status: ('A' for Active; 'I' for Inactive)
REMARK    1  A    between atoms: C_4  and  N_7
REMARK    2  A    between atoms: N_10  and  C_13
REMARK    3  A    between atoms: C_13  and  C_15
REMARK    4  A    between atoms: C_13  and  C_17
REMARK    5  A    between atoms: C_15  and  N_16
REMARK                            x       y       z     vdW  Elec       q    Type
REMARK                         _______ _______ _______ _____ _____    ______ ____
ROOT
ATOM      1  N   UNL     1       4.330   0.272  -0.154  0.00  0.00    -0.327 N 
ATOM      2  C   UNL     1       5.719   0.661  -0.440  0.00  0.00    +0.120 C 
ATOM      3  C   UNL     1       6.274  -0.272  -1.521  0.00  0.00    +0.104 C 
ATOM      4  N   UNL     1       6.094  -1.667  -1.099  0.00  0.00    -0.294 NA
ATOM      5  C   UNL     1       4.671  -2.003  -0.961  0.00  0.00    +0.104 C 
ATOM      6  C   UNL     1       4.052  -1.140   0.150  0.00  0.00    +0.120 C 
ENDROOT
BRANCH   1  10
ATOM      7  C   UNL     1       1.269   3.094  -0.186  0.00  0.00    +0.000 A 
ATOM      8  C   UNL     1       0.971   1.755  -0.013  0.00  0.00    +0.002 A 
ATOM      9  C   UNL     1       1.984   0.816  -0.001  0.00  0.00    +0.023 A 
ATOM     10  C   UNL     1       3.303   1.218  -0.165  0.00  0.00    +0.030 A 
ATOM     11  C   UNL     1       3.599   2.564  -0.339  0.00  0.00    +0.023 A 
ATOM     12  C   UNL     1       2.581   3.498  -0.349  0.00  0.00    +0.002 A 
ENDBRANCH   1  10
BRANCH   4  13
ATOM     13  C   UNL     1       6.766  -2.588  -2.026  0.00  0.00    +0.076 C 
BRANCH  13  14
ATOM     14  C   UNL     1       6.241  -2.367  -3.421  0.00  0.00    +0.006 A 
ATOM     15  C   UNL     1       6.930  -2.149  -4.567  0.00  0.00    +0.014 A 
ATOM     16  C   UNL     1       6.231  -1.971  -5.747  0.00  0.00    +0.028 A 
ATOM     17  C   UNL     1       4.876  -2.019  -5.721  0.00  0.00    +0.078 A 
ATOM     18  S   UNL     1       4.550  -2.332  -3.994  0.00  0.00    -0.080 S 
ATOM     19 CL   UNL     1       3.750  -1.832  -7.030  0.00  0.00    -0.076 Cl
ENDBRANCH  13  14
BRANCH  13  20
ATOM     20  C   UNL     1       6.489  -4.031  -1.600  0.00  0.00    -0.062 C 
BRANCH  20  21
ATOM     21  N   UNL     1       6.892  -4.214  -0.199  0.00  0.00    +0.379 N 
ATOM     22  H   UNL     1       6.365  -3.584   0.387  0.00  0.00    -0.090 HD
ATOM     23  H   UNL     1       6.710  -5.166   0.082  0.00  0.00    -0.090 HD
ATOM     24  H   UNL     1       7.877  -4.018  -0.104  0.00  0.00    -0.090 HD
ENDBRANCH  20  21
ENDBRANCH  13  20
ENDBRANCH   4  13
TORSDOF 5
