REMARK  Name = ZINC05656039
REMARK  8 active torsions:
REMARK  status: ('A' for Active; 'I' for Inactive)
REMARK    1  A    between atoms: C_1  and  C_2
REMARK    2  A    between atoms: C_2  and  C_4
REMARK    3  A    between atoms: C_2  and  O_17
REMARK    4  A    between atoms: N_6  and  C_7
REMARK    5  A    between atoms: C_7  and  C_8
REMARK    6  A    between atoms: O_17  and  C_18
REMARK    7  A    between atoms: C_18  and  C_20
REMARK    8  A    between atoms: C_24  and  N_26
REMARK                            x       y       z     vdW  Elec       q    Type
REMARK                         _______ _______ _______ _____ _____    ______ ____
ROOT
ATOM      1  C   UNL     1      -5.359   4.227  -1.368  0.00  0.00    +0.062 C 
ATOM      2  C   UNL     1      -4.914   3.948   0.069  0.00  0.00    +0.259 C 
ENDROOT
BRANCH   2   3
ATOM      3  C   UNL     1      -5.988   3.172   0.786  0.00  0.00    +0.254 C 
ATOM      4  O   UNL     1      -5.742   2.074   1.239  0.00  0.00    -0.272 OA
ATOM      5  N   UNL     1      -7.222   3.697   0.923  0.00  0.00    -0.308 N 
ATOM      6  H   UNL     1      -7.418   4.575   0.560  0.00  0.00    +0.149 HD
BRANCH   5   7
ATOM      7  C   UNL     1      -8.266   2.942   1.620  0.00  0.00    +0.139 C 
BRANCH   7   8
ATOM      8  C   UNL     1      -9.541   3.745   1.636  0.00  0.00    -0.027 A 
ATOM      9  C   UNL     1      -9.798   4.610   2.683  0.00  0.00    +0.009 A 
ATOM     10  C   UNL     1     -10.963   5.354   2.700  0.00  0.00    +0.050 A 
ATOM     11  C   UNL     1     -11.883   5.223   1.672  0.00  0.00    +0.166 A 
ATOM     12  C   UNL     1     -11.627   4.348   0.619  0.00  0.00    +0.167 A 
ATOM     13  C   UNL     1     -10.454   3.611   0.607  0.00  0.00    +0.054 A 
ATOM     14  O   UNL     1     -12.672   4.400  -0.256  0.00  0.00    -0.453 OA
ATOM     15  C   UNL     1     -13.755   5.008   0.473  0.00  0.00    +0.466 C 
ATOM     16  O   UNL     1     -13.089   5.824   1.455  0.00  0.00    -0.453 OA
ENDBRANCH   7   8
ENDBRANCH   5   7
ENDBRANCH   2   3
BRANCH   2  17
ATOM     17  O   UNL     1      -3.686   3.175   0.053  0.00  0.00    -0.449 OA
BRANCH  17  18
ATOM     18  C   UNL     1      -2.528   3.864   0.046  0.00  0.00    +0.340 C 
ATOM     19  O   UNL     1      -2.545   5.079   0.051  0.00  0.00    -0.245 OA
BRANCH  18  20
ATOM     20  C   UNL     1      -1.239   3.143   0.030  0.00  0.00    +0.061 A 
ATOM     21  C   UNL     1      -1.218   1.747   0.017  0.00  0.00    +0.016 A 
ATOM     22  C   UNL     1      -0.013   1.076   0.008  0.00  0.00    +0.022 A 
ATOM     23  C   UNL     1       1.178   1.782   0.000  0.00  0.00    +0.062 A 
ATOM     24  C   UNL     1       1.167   3.173   0.007  0.00  0.00    +0.044 A 
ATOM     25  C   UNL     1      -0.039   3.856   0.022  0.00  0.00    +0.039 A 
ATOM     26 CL   UNL     1       2.689   0.928  -0.018  0.00  0.00    -0.082 Cl
BRANCH  24  27
ATOM     27  N   UNL     1       2.371   3.882  -0.001  0.00  0.00    -0.357 N 
ATOM     28  H   UNL     1       3.215   3.403  -0.011  0.00  0.00    +0.142 HD
ATOM     29  H   UNL     1       2.364   4.852   0.004  0.00  0.00    +0.142 HD
ENDBRANCH  24  27
ENDBRANCH  18  20
ENDBRANCH  17  18
ENDBRANCH   2  17
TORSDOF 7
