REMARK  Name = ZINC64166855
REMARK  9 active torsions:
REMARK  status: ('A' for Active; 'I' for Inactive)
REMARK    1  A    between atoms: C_6  and  C_11
REMARK    2  A    between atoms: N_13  and  C_14
REMARK    3  A    between atoms: C_14  and  C_15
REMARK    4  A    between atoms: N_20  and  C_22
REMARK    5  A    between atoms: C_22  and  C_23
REMARK    6  A    between atoms: C_26  and  C_29
REMARK    7  A    between atoms: C_30  and  C_31
REMARK    8  A    between atoms: C_31  and  C_32
REMARK    9  A    between atoms: C_32  and  O_33
REMARK                            x       y       z     vdW  Elec       q    Type
REMARK                         _______ _______ _______ _____ _____    ______ ____
ROOT
ATOM      1  C   UNL     1       3.338  -6.180  -2.688  0.00  0.00    -0.011 C 
ATOM      2  C   UNL     1       1.810  -6.224  -2.775  0.00  0.00    +0.001 C 
ATOM      3  C   UNL     1       1.354  -7.684  -2.841  0.00  0.00    -0.018 C 
ATOM      4  C   UNL     1       2.023  -8.368  -4.036  0.00  0.00    -0.078 C 
ATOM      5  N   UNL     1       3.482  -8.316  -3.880  0.00  0.00    +0.383 N 
ATOM      6  C   UNL     1       3.935  -6.920  -3.887  0.00  0.00    -0.073 C 
ATOM      7  H   UNL     1       3.741  -8.748  -3.006  0.00  0.00    -0.081 HD
ENDROOT
BRANCH   1   8
ATOM      8  C   UNL     1       3.809  -4.725  -2.700  0.00  0.00    +0.106 C 
BRANCH   8  11
ATOM      9  C   UNL     1       3.631  -2.749  -1.285  0.00  0.00    +0.239 C 
ATOM     10  O   UNL     1       4.291  -2.141  -2.101  0.00  0.00    -0.273 OA
ATOM     11  N   UNL     1       3.335  -4.048  -1.491  0.00  0.00    -0.313 N 
ATOM     12  H   UNL     1       2.807  -4.534  -0.838  0.00  0.00    +0.149 HD
BRANCH   9  18
ATOM     13  C   UNL     1      -0.016   1.348   0.009  0.00  0.00    +0.001 A 
ATOM     14  C   UNL     1       1.166   2.101   0.002  0.00  0.00    +0.002 A 
ATOM     15  C   UNL     1       2.391   1.535  -0.013  0.00  0.00    +0.026 A 
ATOM     16  C   UNL     1       2.529   0.120  -0.022  0.00  0.00    +0.043 A 
ATOM     17  N   UNL     1       3.587  -0.654  -0.037  0.00  0.00    -0.370 N 
ATOM     18  C   UNL     1       3.143  -2.053  -0.041  0.00  0.00    +0.190 C 
ATOM     19  C   UNL     1       1.631  -2.008  -0.025  0.00  0.00    +0.016 C 
ATOM     20  C   UNL     1       1.295  -0.698  -0.014  0.00  0.00    -0.004 A 
ATOM     21  C   UNL     1       0.002  -0.004   0.002  0.00  0.00    +0.010 A 
ATOM     22  H   UNL     1       4.509  -0.353  -0.045  0.00  0.00    +0.161 HD
ENDBRANCH   9  18
ENDBRANCH   8  11
ENDBRANCH   1   8
BRANCH   5  23
ATOM     23  C   UNL     1       4.117  -9.041  -4.989  0.00  0.00    -0.043 C 
BRANCH  23  24
ATOM     24  C   UNL     1       3.758 -10.503  -4.904  0.00  0.00    -0.064 A 
ATOM     25  C   UNL     1       4.557 -11.367  -4.177  0.00  0.00    +0.003 A 
ATOM     26  C   UNL     1       4.234 -12.706  -4.096  0.00  0.00    +0.017 A 
ATOM     27  C   UNL     1       3.098 -13.188  -4.748  0.00  0.00    +0.025 A 
ATOM     28  C   UNL     1       2.297 -12.310  -5.479  0.00  0.00    +0.017 A 
ATOM     29  C   UNL     1       2.628 -10.973  -5.548  0.00  0.00    +0.003 A 
BRANCH  27  30
ATOM     30  C   UNL     1       2.757 -14.576  -4.667  0.00  0.00    -0.066 C 
ATOM     31  C   UNL     1       2.478 -15.714  -4.601  0.00  0.00    -0.095 C 
BRANCH  31  32
ATOM     32  C   UNL     1       2.127 -17.142  -4.519  0.00  0.00    +0.117 C 
BRANCH  32  33
ATOM     33  C   UNL     1       0.848 -17.400  -5.317  0.00  0.00    +0.168 C 
BRANCH  33  34
ATOM     34  O   UNL     1       0.508 -18.785  -5.237  0.00  0.00    -0.394 OA
ATOM     35  H   UNL     1      -0.295 -19.022  -5.721  0.00  0.00    +0.209 HD
ENDBRANCH  33  34
ENDBRANCH  32  33
ENDBRANCH  31  32
ENDBRANCH  27  30
ENDBRANCH  23  24
ENDBRANCH   5  23
TORSDOF 9
