REMARK  Name = ZINC12549752
REMARK  12 active torsions:
REMARK  status: ('A' for Active; 'I' for Inactive)
REMARK    1  A    between atoms: C_1  and  C_2
REMARK    2  A    between atoms: C_5  and  S_28
REMARK    3  A    between atoms: C_7  and  N_8
REMARK    4  A    between atoms: C_9  and  C_11
REMARK    5  A    between atoms: C_11  and  C_13
REMARK    6  A    between atoms: C_11  and  N_16
REMARK    7  A    between atoms: C_13  and  C_14
REMARK    8  A    between atoms: C_13  and  C_15
REMARK    9  A    between atoms: N_16  and  S_17
REMARK   10  A    between atoms: S_17  and  C_20
REMARK   11  A    between atoms: C_21  and  C_22
REMARK   12  A    between atoms: S_28  and  N_31
REMARK                            x       y       z     vdW  Elec       q    Type
REMARK                         _______ _______ _______ _____ _____    ______ ____
ROOT
ATOM      1  N   UNL     1       2.835  -1.419   3.755  0.00  0.00    -0.284 N 
ATOM      2  C   UNL     1       2.650  -0.147   3.350  0.00  0.00    +0.236 C 
ATOM      3  O   UNL     1       2.384   0.715   4.161  0.00  0.00    -0.274 OA
ATOM      4  H   UNL     1       2.973  -2.121   3.100  0.00  0.00    +0.155 HD
ENDROOT
BRANCH   1  11
ATOM      5  C   UNL     1       2.350  -4.116   4.520  0.00  0.00    +0.045 C 
ATOM      6  C   UNL     1       2.593  -3.031   5.537  0.00  0.00    -0.029 A 
ATOM      7  C   UNL     1       2.586  -3.332   6.885  0.00  0.00    +0.007 A 
ATOM      8  C   UNL     1       2.809  -2.337   7.818  0.00  0.00    +0.029 A 
ATOM      9  C   UNL     1       3.041  -1.038   7.406  0.00  0.00    +0.107 A 
ATOM     10  C   UNL     1       3.056  -0.731   6.060  0.00  0.00    +0.052 A 
ATOM     11  C   UNL     1       2.826  -1.727   5.120  0.00  0.00    +0.038 A 
BRANCH   9  12
ATOM     12  S   UNL     1       3.327   0.227   8.600  0.00  0.00    +0.061 S 
ATOM     13  O   UNL     1       2.977   1.457   7.980  0.00  0.00    -0.153 OA
ATOM     14  O   UNL     1       2.727  -0.214   9.810  0.00  0.00    -0.153 OA
BRANCH  12  15
ATOM     15  N   UNL     1       4.959   0.282   8.873  0.00  0.00    -0.177 NA
ATOM     16  C   UNL     1       5.569  -0.536   9.930  0.00  0.00    +0.109 C 
ATOM     17  C   UNL     1       6.707  -1.362   9.312  0.00  0.00    +0.017 C 
ATOM     18  C   UNL     1       7.685  -0.422   8.602  0.00  0.00    +0.003 C 
ATOM     19  C   UNL     1       6.958   0.315   7.475  0.00  0.00    +0.017 C 
ATOM     20  C   UNL     1       5.824   1.156   8.068  0.00  0.00    +0.109 C 
ENDBRANCH  12  15
ENDBRANCH   9  12
ENDBRANCH   1  11
BRANCH   2  21
ATOM     21  C   UNL     1       2.774   0.205   1.890  0.00  0.00    +0.165 C 
BRANCH  21  22
ATOM     22  C   UNL     1       4.182  -0.138   1.401  0.00  0.00    +0.010 C 
ATOM     23  C   UNL     1       4.303   0.204  -0.086  0.00  0.00    +0.009 C 
ATOM     24  C   UNL     1       5.209   0.672   2.194  0.00  0.00    +0.009 C 
ENDBRANCH  21  22
BRANCH  21  25
ATOM     25  N   UNL     1       2.530   1.639   1.711  0.00  0.00    -0.178 NA
ATOM     26  H   UNL     1       3.142   2.286   2.094  0.00  0.00    +0.149 HD
BRANCH  25  27
ATOM     27  S   UNL     1       1.210   2.153   0.854  0.00  0.00    +0.052 S 
ATOM     28  O   UNL     1       1.242   1.470  -0.392  0.00  0.00    -0.154 OA
ATOM     29  O   UNL     1       1.194   3.571   0.945  0.00  0.00    -0.154 OA
BRANCH  27  30
ATOM     30  C   UNL     1      -0.221   1.578   1.707  0.00  0.00    +0.153 C 
ATOM     31  C   UNL     1      -1.066   2.446   2.245  0.00  0.00    +0.028 C 
BRANCH  31  32
ATOM     32  C   UNL     1      -2.269   1.964   2.955  0.00  0.00    -0.024 A 
ATOM     33  C   UNL     1      -2.522   0.595   3.055  0.00  0.00    +0.008 A 
ATOM     34  C   UNL     1      -3.644   0.151   3.724  0.00  0.00    +0.001 A 
ATOM     35  C   UNL     1      -4.524   1.060   4.285  0.00  0.00    +0.000 A 
ATOM     36  C   UNL     1      -4.281   2.418   4.185  0.00  0.00    +0.001 A 
ATOM     37  C   UNL     1      -3.160   2.875   3.524  0.00  0.00    +0.008 A 
ENDBRANCH  31  32
ENDBRANCH  27  30
ENDBRANCH  25  27
ENDBRANCH  21  25
ENDBRANCH   2  21
TORSDOF 9
