REMARK  Name = ZINC06197148
REMARK  13 active torsions:
REMARK  status: ('A' for Active; 'I' for Inactive)
REMARK    1  A    between atoms: C_1  and  C_2
REMARK    2  A    between atoms: C_2  and  O_3
REMARK    3  A    between atoms: O_3  and  C_4
REMARK    4  A    between atoms: C_9  and  C_10
REMARK    5  A    between atoms: C_12  and  C_28
REMARK    6  A    between atoms: C_19  and  C_26
REMARK    7  A    between atoms: C_20  and  C_22
REMARK    8  A    between atoms: C_22  and  O_24
REMARK    9  A    between atoms: O_24  and  C_25
REMARK   10  A    between atoms: C_28  and  C_30
REMARK   11  A    between atoms: C_33  and  O_37
REMARK   12  A    between atoms: C_34  and  C_36
REMARK   13  A    between atoms: O_37  and  C_38
REMARK                            x       y       z     vdW  Elec       q    Type
REMARK                         _______ _______ _______ _____ _____    ______ ____
ROOT
ATOM      1  C   UNL     1       1.387   3.636  -0.351  0.00  0.00    +0.155 C 
ATOM      2  C   UNL     1       1.129   2.155  -0.201  0.00  0.00    +0.077 C 
ATOM      3  C   UNL     1       2.326   1.574   0.052  0.00  0.00    +0.250 C 
ATOM      4  C   UNL     1       3.376   2.612   0.066  0.00  0.00    +0.293 C 
ATOM      5  O   UNL     1       4.557   2.406   0.263  0.00  0.00    -0.266 OA
ATOM      6  N   UNL     1       2.831   3.820  -0.165  0.00  0.00    -0.232 N 
ATOM      7  C   UNL     1       3.511   5.022  -0.218  0.00  0.00    +0.169 A 
ATOM      8  N   UNL     1       4.806   5.250  -0.055  0.00  0.00    -0.229 NA
ATOM      9  C   UNL     1       5.305   6.454  -0.140  0.00  0.00    +0.062 A 
ATOM     10  C   UNL     1       4.430   7.501  -0.398  0.00  0.00    +0.120 A 
ATOM     11  S   UNL     1       2.882   6.614  -0.510  0.00  0.00    -0.045 S 
ATOM     12  C   UNL     1       6.781   6.700   0.042  0.00  0.00    +0.067 C 
ATOM     13  O   UNL     1       2.528   0.252   0.256  0.00  0.00    -0.282 OA
ENDROOT
BRANCH   1  19
ATOM     14  C   UNL     1      -0.330   4.489  -1.966  0.00  0.00    +0.126 A 
ATOM     15  C   UNL     1      -0.703   4.913  -3.234  0.00  0.00    +0.046 A 
ATOM     16  C   UNL     1       0.229   4.943  -4.253  0.00  0.00    +0.004 A 
ATOM     17  C   UNL     1       1.533   4.551  -4.011  0.00  0.00    +0.001 A 
ATOM     18  C   UNL     1       1.908   4.133  -2.748  0.00  0.00    +0.009 A 
ATOM     19  C   UNL     1       0.979   4.097  -1.726  0.00  0.00    +0.020 A 
BRANCH  14  20
ATOM     20  O   UNL     1      -1.245   4.459  -0.962  0.00  0.00    -0.492 OA
BRANCH  20  22
ATOM     21  C   UNL     1      -3.388   4.984   0.025  0.00  0.00    +0.048 C 
ATOM     22  C   UNL     1      -2.542   4.986  -1.250  0.00  0.00    +0.225 C 
ENDBRANCH  20  22
ENDBRANCH  14  20
ENDBRANCH   1  19
BRANCH  10  23
ATOM     23  C   UNL     1       4.699   8.931  -0.539  0.00  0.00    +0.347 C 
ATOM     24  O   UNL     1       5.836   9.350  -0.427  0.00  0.00    -0.244 OA
BRANCH  23  25
ATOM     25  O   UNL     1       3.687   9.786  -0.792  0.00  0.00    -0.464 OA
ATOM     26  C   UNL     1       4.022  11.170  -0.917  0.00  0.00    +0.280 C 
ENDBRANCH  23  25
ENDBRANCH  10  23
BRANCH   2  27
ATOM     27  C   UNL     1      -0.167   1.478  -0.303  0.00  0.00    +0.195 C 
ATOM     28  O   UNL     1      -0.384   0.714  -1.224  0.00  0.00    -0.287 OA
BRANCH  27  29
ATOM     29  C   UNL     1      -1.212   1.729   0.710  0.00  0.00    +0.023 A 
ATOM     30  C   UNL     1      -0.985   2.646   1.740  0.00  0.00    +0.015 A 
ATOM     31  C   UNL     1      -1.963   2.880   2.679  0.00  0.00    +0.046 A 
ATOM     32  C   UNL     1      -3.173   2.198   2.610  0.00  0.00    +0.123 A 
ATOM     33  C   UNL     1      -3.402   1.282   1.590  0.00  0.00    -0.008 A 
ATOM     34  C   UNL     1      -2.430   1.045   0.644  0.00  0.00    +0.018 A 
ATOM     35  C   UNL     1      -4.715   0.545   1.520  0.00  0.00    +0.047 C 
BRANCH  32  36
ATOM     36  O   UNL     1      -4.133   2.428   3.541  0.00  0.00    -0.495 OA
ATOM     37  C   UNL     1      -3.877   3.460   4.496  0.00  0.00    +0.277 C 
ENDBRANCH  32  36
ENDBRANCH  27  29
ENDBRANCH   2  27
TORSDOF 8
