REMARK  Name = ZINC12417752
REMARK  3 active torsions:
REMARK  status: ('A' for Active; 'I' for Inactive)
REMARK    1  A    between atoms: C_1  and  C_2
REMARK    2  A    between atoms: C_8  and  N_10
REMARK    3  A    between atoms: C_11  and  C_13
REMARK                            x       y       z     vdW  Elec       q    Type
REMARK                         _______ _______ _______ _____ _____    ______ ____
ROOT
ATOM      1  C   UNL     1       2.352   8.195   0.023  0.00  0.00    +0.037 A 
ATOM      2  C   UNL     1       3.569   7.514   0.008  0.00  0.00    +0.014 A 
ATOM      3  C   UNL     1       3.595   6.132   0.001  0.00  0.00    +0.013 A 
ATOM      4  C   UNL     1       2.403   5.412   0.008  0.00  0.00    +0.033 A 
ATOM      5  C   UNL     1       1.172   6.092   0.023  0.00  0.00    +0.034 A 
ATOM      6  C   UNL     1       1.151   7.483   0.030  0.00  0.00    +0.025 A 
ATOM      7  C   UNL     1      -0.095   5.331   0.032  0.00  0.00    +0.195 C 
ATOM      8  O   UNL     1      -1.157   5.919   0.045  0.00  0.00    -0.287 OA
ATOM      9  C   UNL     1      -0.067   3.853   0.022  0.00  0.00    +0.033 A 
ATOM     10  C   UNL     1      -1.256   3.130   0.030  0.00  0.00    +0.012 A 
ATOM     11  C   UNL     1      -1.222   1.746   0.017  0.00  0.00    +0.001 A 
ATOM     12  C   UNL     1      -0.013   1.076   0.008  0.00  0.00    +0.001 A 
ATOM     13  C   UNL     1       1.179   1.780   0.000  0.00  0.00    +0.012 A 
ATOM     14  C   UNL     1       1.163   3.172   0.007  0.00  0.00    +0.033 A 
ATOM     15  C   UNL     1       2.430   3.932   0.000  0.00  0.00    +0.195 C 
ATOM     16  O   UNL     1       3.492   3.342  -0.013  0.00  0.00    -0.287 OA
ENDROOT
BRANCH   1  18
ATOM     17  N   UNL     1       3.492  10.363   0.022  0.00  0.00    -0.308 N 
ATOM     18  C   UNL     1       2.333   9.675   0.030  0.00  0.00    +0.244 C 
ATOM     19  O   UNL     1       1.273  10.269   0.043  0.00  0.00    -0.270 OA
ATOM     20  H   UNL     1       4.338   9.889   0.012  0.00  0.00    +0.149 HD
BRANCH  17  27
ATOM     21  C   UNL     1       4.925  11.837   2.062  0.00  0.00    +0.009 C 
ATOM     22  C   UNL     1       4.780  12.352   0.629  0.00  0.00    +0.006 C 
ATOM     23  C   UNL     1       5.960  11.861  -0.212  0.00  0.00    +0.005 C 
ATOM     24  C   UNL     1       5.814  12.376  -1.646  0.00  0.00    +0.000 C 
ATOM     25  C   UNL     1       4.507  11.852  -2.245  0.00  0.00    +0.002 C 
ATOM     26  C   UNL     1       3.327  12.343  -1.404  0.00  0.00    +0.022 C 
ATOM     27  C   UNL     1       3.473  11.828   0.029  0.00  0.00    +0.076 C 
ENDBRANCH  17  27
ENDBRANCH   1  18
TORSDOF 2
