REMARK  Name = ZINC25372975
REMARK  11 active torsions:
REMARK  status: ('A' for Active; 'I' for Inactive)
REMARK    1  A    between atoms: C_1  and  C_2
REMARK    2  A    between atoms: C_5  and  O_27
REMARK    3  A    between atoms: C_6  and  C_8
REMARK    4  A    between atoms: C_8  and  C_10
REMARK    5  A    between atoms: C_8  and  N_11
REMARK    6  A    between atoms: N_11  and  C_12
REMARK    7  A    between atoms: C_12  and  C_14
REMARK    8  A    between atoms: C_12  and  C_15
REMARK    9  A    between atoms: N_20  and  C_21
REMARK   10  A    between atoms: C_21  and  C_22
REMARK   11  A    between atoms: O_27  and  C_28
REMARK                            x       y       z     vdW  Elec       q    Type
REMARK                         _______ _______ _______ _____ _____    ______ ____
ROOT
ATOM      1  C   UNL     1      -4.441   5.269  -4.513  0.00  0.00    +0.014 C 
ATOM      2  C   UNL     1      -4.818   3.976  -5.238  0.00  0.00    -0.004 C 
ENDROOT
BRANCH   1   3
ATOM      3  C   UNL     1      -4.039   4.951  -3.095  0.00  0.00    +0.206 C 
ATOM      4  O   UNL     1      -4.653   5.434  -2.168  0.00  0.00    -0.277 OA
ATOM      5  N   UNL     1      -2.998   4.130  -2.859  0.00  0.00    -0.242 N 
ATOM      6  C   UNL     1      -2.638   3.845  -1.591  0.00  0.00    +0.306 C 
ATOM      7  O   UNL     1      -3.253   4.329  -0.662  0.00  0.00    -0.252 OA
ATOM      8  N   UNL     1      -1.596   3.023  -1.355  0.00  0.00    -0.294 N 
ATOM      9  H   UNL     1      -2.441   3.691  -3.700  0.00  0.00    +0.159 HD
ATOM     10  H   UNL     1      -1.039   2.585  -2.196  0.00  0.00    +0.151 HD
BRANCH   8  11
ATOM     11  C   UNL     1      -1.206   2.714   0.023  0.00  0.00    +0.148 C 
BRANCH  11  12
ATOM     12  C   UNL     1      -0.022   1.781   0.012  0.00  0.00    +0.007 A 
ATOM     13  C   UNL     1       1.300   2.079   0.001  0.00  0.00    +0.013 A 
ATOM     14  C   UNL     1       2.220   1.048  -0.013  0.00  0.00    +0.008 A 
ATOM     15  C   UNL     1       1.773  -0.232  -0.016  0.00  0.00    +0.045 A 
ATOM     16  S   UNL     1       0.002  -0.004   0.002  0.00  0.00    -0.100 S 
ENDBRANCH  11  12
ENDBRANCH   8  11
ENDBRANCH   1   3
BRANCH   1  17
ATOM     17  N   UNL     1      -5.595   6.179  -4.502  0.00  0.00    +0.391 N 
ATOM     18  H   UNL     1      -5.502   6.857  -3.640  0.00  0.00    -0.084 HD
ATOM     19  H   UNL     1      -6.513   5.582  -4.401  0.00  0.00    -0.084 HD
BRANCH  17  20
ATOM     20  C   UNL     1      -5.656   6.966  -5.740  0.00  0.00    -0.039 C 
ATOM     21  C   UNL     1      -4.764   8.202  -5.604  0.00  0.00    -0.009 C 
BRANCH  20  27
ATOM     22  C   UNL     1     -10.229   8.033  -4.013  0.00  0.00    +0.044 C 
ATOM     23  C   UNL     1      -9.267   7.909  -5.165  0.00  0.00    -0.050 A 
ATOM     24  C   UNL     1      -9.690   8.191  -6.451  0.00  0.00    +0.007 A 
ATOM     25  C   UNL     1      -8.810   8.079  -7.510  0.00  0.00    +0.046 A 
ATOM     26  C   UNL     1      -7.500   7.682  -7.282  0.00  0.00    +0.122 A 
ATOM     27  C   UNL     1      -7.078   7.399  -5.991  0.00  0.00    -0.020 A 
ATOM     28  C   UNL     1      -7.964   7.508  -4.936  0.00  0.00    +0.009 A 
BRANCH  26  29
ATOM     29  O   UNL     1      -6.632   7.570  -8.322  0.00  0.00    -0.495 OA
ATOM     30  C   UNL     1      -7.136   7.877  -9.623  0.00  0.00    +0.277 C 
ENDBRANCH  26  29
ENDBRANCH  20  27
ENDBRANCH  17  20
ENDBRANCH   1  17
TORSDOF 7
