REMARK  Name = ZINC06301619
REMARK  9 active torsions:
REMARK  status: ('A' for Active; 'I' for Inactive)
REMARK    1  A    between atoms: C_1  and  C_2
REMARK    2  A    between atoms: C_4  and  C_35
REMARK    3  A    between atoms: C_7  and  C_14
REMARK    4  A    between atoms: C_14  and  C_16
REMARK    5  A    between atoms: C_14  and  N_66
REMARK    6  A    between atoms: N_20  and  C_21
REMARK    7  A    between atoms: C_27  and  N_66
REMARK    8  A    between atoms: C_28  and  C_29
REMARK    9  A    between atoms: C_28  and  N_66
REMARK                            x       y       z     vdW  Elec       q    Type
REMARK                         _______ _______ _______ _____ _____    ______ ____
ROOT
ATOM      1  C   UNL     1       3.498   0.747  -0.023  0.00  0.00    +0.039 C 
ENDROOT
BRANCH   1   8
ATOM      2  C   UNL     1       7.232   2.050   6.903  0.00  0.00    +0.044 C 
ATOM      3  C   UNL     1       6.622   1.591   5.604  0.00  0.00    -0.048 A 
ATOM      4  C   UNL     1       6.878   0.307   5.141  0.00  0.00    +0.007 A 
ATOM      5  C   UNL     1       6.334  -0.129   3.966  0.00  0.00    -0.041 A 
ATOM      6  C   UNL     1       5.513   0.725   3.222  0.00  0.00    +0.002 A 
ATOM      7  C   UNL     1       4.911   0.289   1.961  0.00  0.00    +0.018 A 
ATOM      8  C   UNL     1       4.129   1.162   1.281  0.00  0.00    +0.011 A 
ATOM      9  C   UNL     1       3.898   2.458   1.792  0.00  0.00    +0.251 A 
ATOM     10  O   UNL     1       3.188   3.226   1.166  0.00  0.00    -0.268 OA
ATOM     11  N   UNL     1       4.443   2.865   2.952  0.00  0.00    -0.322 N 
ATOM     12  H   UNL     1       4.264   3.763   3.274  0.00  0.00    +0.169 HD
ATOM     13  C   UNL     1       5.252   2.027   3.688  0.00  0.00    +0.050 A 
ATOM     14  C   UNL     1       5.816   2.449   4.888  0.00  0.00    +0.029 A 
ATOM     15  C   UNL     1       6.619  -1.524   3.473  0.00  0.00    +0.044 C 
ENDBRANCH   1   8
BRANCH   1  16
ATOM     16  C   UNL     1       2.000   0.694   0.138  0.00  0.00    +0.143 A 
ATOM     17  N   UNL     1       1.178   1.714   0.148  0.00  0.00    -0.115 NA
ATOM     18  N   UNL     1      -0.018   1.260   0.307  0.00  0.00    -0.023 NA
ATOM     19  N   UNL     1       0.021  -0.023   0.400  0.00  0.00    -0.044 NA
ATOM     20  N   UNL     1       1.248  -0.410   0.300  0.00  0.00    -0.227 N 
BRANCH  20  21
ATOM     21  C   UNL     1       1.731  -1.793   0.352  0.00  0.00    +0.111 C 
ATOM     22  C   UNL     1       1.092  -2.599  -0.780  0.00  0.00    +0.027 C 
ATOM     23  C   UNL     1       1.596  -4.043  -0.725  0.00  0.00    +0.002 C 
ATOM     24  C   UNL     1       1.218  -4.665   0.621  0.00  0.00    +0.000 C 
ATOM     25  C   UNL     1       1.857  -3.858   1.753  0.00  0.00    +0.002 C 
ATOM     26  C   UNL     1       1.353  -2.414   1.698  0.00  0.00    +0.027 C 
ENDBRANCH  20  21
ENDBRANCH   1  16
BRANCH   1  28
ATOM     27  C   UNL     1       3.187   1.386  -2.338  0.00  0.00    -0.094 C 
ATOM     28  N   UNL     1       3.834   1.746  -1.059  0.00  0.00    +0.390 N 
ATOM     29  H   UNL     1       3.490   2.666  -0.759  0.00  0.00    -0.080 HD
BRANCH  28  30
ATOM     30  C   UNL     1       5.300   1.816  -1.236  0.00  0.00    -0.042 C 
BRANCH  30  31
ATOM     31  C   UNL     1       5.627   2.986  -2.128  0.00  0.00    -0.064 A 
ATOM     32  C   UNL     1       5.717   2.809  -3.495  0.00  0.00    +0.002 A 
ATOM     33  C   UNL     1       6.012   3.883  -4.314  0.00  0.00    +0.000 A 
ATOM     34  C   UNL     1       6.226   5.133  -3.763  0.00  0.00    +0.000 A 
ATOM     35  C   UNL     1       6.141   5.309  -2.395  0.00  0.00    +0.000 A 
ATOM     36  C   UNL     1       5.841   4.236  -1.577  0.00  0.00    +0.002 A 
ENDBRANCH  30  31
ENDBRANCH  28  30
ENDBRANCH   1  28
TORSDOF 6
