REMARK  Name = ZINC35523174
REMARK  5 active torsions:
REMARK  status: ('A' for Active; 'I' for Inactive)
REMARK    1  A    between atoms: N_8  and  C_19
REMARK    2  A    between atoms: C_9  and  C_11
REMARK    3  A    between atoms: C_19  and  C_20
REMARK    4  A    between atoms: N_25  and  C_28
REMARK    5  A    between atoms: C_31  and  N_34
REMARK                            x       y       z     vdW  Elec       q    Type
REMARK                         _______ _______ _______ _____ _____    ______ ____
ROOT
ATOM      1  C   UNL     1      -0.007   1.375   0.028  0.00  0.00    +0.019 A 
ATOM      2  C   UNL     1       1.333   1.817   0.029  0.00  0.00    +0.021 A 
ATOM      3  C   UNL     1       2.113   0.726   0.005  0.00  0.00    +0.009 A 
ATOM      4  N   UNL     1       1.305  -0.381  -0.015  0.00  0.00    -0.353 N 
ATOM      5  C   UNL     1       0.010   0.025   0.003  0.00  0.00    +0.086 A 
ATOM      6  C   UNL     1       1.827  -1.753  -0.052  0.00  0.00    +0.103 C 
ATOM      7  C   UNL     1       3.302  -1.687  -0.469  0.00  0.00    -0.055 C 
ATOM      8  N   UNL     1       4.015  -0.717   0.371  0.00  0.00    +0.395 N 
ATOM      9  C   UNL     1       3.620   0.653   0.001  0.00  0.00    +0.011 C 
ATOM     10  H   UNL     1       3.787  -0.881   1.340  0.00  0.00    -0.080 HD
ENDROOT
BRANCH   9  11
ATOM     11  C   UNL     1       4.179   1.632   1.002  0.00  0.00    -0.054 A 
ATOM     12  C   UNL     1       4.210   1.305   2.345  0.00  0.00    +0.004 A 
ATOM     13  C   UNL     1       4.722   2.201   3.264  0.00  0.00    +0.021 A 
ATOM     14  C   UNL     1       5.205   3.426   2.840  0.00  0.00    +0.059 A 
ATOM     15  C   UNL     1       5.175   3.754   1.495  0.00  0.00    +0.059 A 
ATOM     16  C   UNL     1       4.666   2.853   0.576  0.00  0.00    +0.023 A 
ATOM     17 CL   UNL     1       5.779   5.291   0.961  0.00  0.00    -0.082 Cl
ATOM     18 CL   UNL     1       5.848   4.553   3.993  0.00  0.00    -0.082 Cl
ENDBRANCH   9  11
BRANCH   8  19
ATOM     19  C   UNL     1       5.463  -0.876   0.179  0.00  0.00    +0.020 C 
BRANCH  19  20
ATOM     20  C   UNL     1       5.890  -2.230   0.683  0.00  0.00    +0.199 C 
ATOM     21  O   UNL     1       5.070  -2.988   1.155  0.00  0.00    -0.278 OA
ATOM     22  N   UNL     1       7.184  -2.599   0.608  0.00  0.00    -0.300 N 
ATOM     23  C   UNL     1       8.190  -1.689   0.044  0.00  0.00    +0.126 C 
ATOM     24  C   UNL     1       9.308  -1.493   1.076  0.00  0.00    +0.124 C 
ATOM     25  N   UNL     1       9.738  -2.813   1.558  0.00  0.00    -0.327 N 
ATOM     26  C   UNL     1       8.732  -3.724   2.123  0.00  0.00    +0.124 C 
ATOM     27  C   UNL     1       7.615  -3.917   1.096  0.00  0.00    +0.126 C 
BRANCH  25  28
ATOM     28  C   UNL     1      11.079  -3.196   1.481  0.00  0.00    +0.030 A 
ATOM     29  C   UNL     1      12.001  -2.376   0.842  0.00  0.00    +0.025 A 
ATOM     30  C   UNL     1      13.327  -2.757   0.768  0.00  0.00    +0.034 A 
ATOM     31  C   UNL     1      13.736  -3.953   1.329  0.00  0.00    +0.126 A 
ATOM     32  C   UNL     1      12.821  -4.771   1.966  0.00  0.00    +0.034 A 
ATOM     33  C   UNL     1      11.495  -4.394   2.048  0.00  0.00    +0.025 A 
BRANCH  31  34
ATOM     34  N   UNL     1      15.158  -4.358   1.247  0.00  0.00    +0.056 N 
ATOM     35  O   UNL     1      15.959  -3.644   0.690  0.00  0.00    -0.126 OA
ATOM     36  O   UNL     1      15.517  -5.403   1.737  0.00  0.00    -0.126 OA
ENDBRANCH  31  34
ENDBRANCH  25  28
ENDBRANCH  19  20
ENDBRANCH   8  19
TORSDOF 5
