REMARK  Name = ZINC64518186
REMARK  7 active torsions:
REMARK  status: ('A' for Active; 'I' for Inactive)
REMARK    1  A    between atoms: C_6  and  C_10
REMARK    2  A    between atoms: C_10  and  C_11
REMARK    3  A    between atoms: C_11  and  N_12
REMARK    4  A    between atoms: C_13  and  C_15
REMARK    5  A    between atoms: C_18  and  N_21
REMARK    6  A    between atoms: N_25  and  C_28
REMARK    7  A    between atoms: C_28  and  C_29
REMARK                            x       y       z     vdW  Elec       q    Type
REMARK                         _______ _______ _______ _____ _____    ______ ____
ROOT
ATOM      1  C   UNL     1       3.575  -6.904  -3.923  0.00  0.00    +0.037 A 
ATOM      2  C   UNL     1       3.702  -6.204  -5.127  0.00  0.00    +0.015 A 
ATOM      3  C   UNL     1       4.126  -6.859  -6.261  0.00  0.00    +0.024 A 
ATOM      4  C   UNL     1       4.427  -8.217  -6.210  0.00  0.00    +0.038 A 
ATOM      5  C   UNL     1       4.301  -8.916  -5.014  0.00  0.00    +0.024 A 
ATOM      6  C   UNL     1       3.883  -8.266  -3.875  0.00  0.00    +0.015 A 
ENDROOT
BRANCH   4   7
ATOM      7  N   UNL     1       4.856  -8.878  -7.360  0.00  0.00    -0.255 N 
ATOM      8  C   UNL     1       3.866  -9.502  -8.239  0.00  0.00    +0.117 C 
ATOM      9  C   UNL     1       4.398  -9.502  -9.676  0.00  0.00    +0.038 C 
ATOM     10  C   UNL     1       5.764 -10.198  -9.691  0.00  0.00    +0.111 C 
ATOM     11  N   UNL     1       6.650  -9.536  -8.733  0.00  0.00    -0.281 N 
ATOM     12  C   UNL     1       6.166  -8.923  -7.642  0.00  0.00    +0.309 C 
ATOM     13  O   UNL     1       6.947  -8.393  -6.876  0.00  0.00    -0.252 OA
BRANCH  11  14
ATOM     14  C   UNL     1       8.095  -9.537  -8.974  0.00  0.00    +0.144 C 
BRANCH  14  15
ATOM     15  C   UNL     1       8.470  -8.323  -9.784  0.00  0.00    -0.030 A 
ATOM     16  C   UNL     1       8.468  -8.387 -11.165  0.00  0.00    +0.008 A 
ATOM     17  C   UNL     1       8.811  -7.274 -11.910  0.00  0.00    +0.038 A 
ATOM     18  C   UNL     1       9.157  -6.095 -11.272  0.00  0.00    +0.123 A 
ATOM     19  C   UNL     1       9.159  -6.032  -9.889  0.00  0.00    +0.038 A 
ATOM     20  C   UNL     1       8.811  -7.144  -9.147  0.00  0.00    +0.008 A 
ATOM     21  F   UNL     1       9.493  -5.007 -11.999  0.00  0.00    -0.205 F 
ENDBRANCH  14  15
ENDBRANCH  11  14
ENDBRANCH   4   7
BRANCH   1  23
ATOM     22  N   UNL     1       2.825  -4.890  -2.754  0.00  0.00    -0.311 N 
ATOM     23  C   UNL     1       3.122  -6.204  -2.706  0.00  0.00    +0.244 C 
ATOM     24  O   UNL     1       3.016  -6.813  -1.658  0.00  0.00    -0.270 OA
ATOM     25  H   UNL     1       2.909  -4.404  -3.590  0.00  0.00    +0.149 HD
BRANCH  22  26
ATOM     26  C   UNL     1       2.374  -4.196  -1.545  0.00  0.00    +0.108 C 
BRANCH  26  27
ATOM     27  C   UNL     1       2.107  -2.725  -1.872  0.00  0.00    +0.065 C 
BRANCH  27  33
ATOM     28  C   UNL     1      -2.626  -0.408   0.043  0.00  0.00    +0.002 A 
ATOM     29  C   UNL     1      -2.021   0.777  -0.412  0.00  0.00    +0.002 A 
ATOM     30  C   UNL     1      -0.719   0.844  -0.754  0.00  0.00    +0.027 A 
ATOM     31  C   UNL     1       0.119  -0.359  -0.653  0.00  0.00    +0.060 A 
ATOM     32  N   UNL     1       1.375  -0.586  -0.908  0.00  0.00    -0.363 N 
ATOM     33  C   UNL     1       1.637  -2.000  -0.609  0.00  0.00    +0.175 C 
ATOM     34  N   UNL     1       0.364  -2.567  -0.146  0.00  0.00    -0.363 N 
ATOM     35  C   UNL     1      -0.521  -1.613  -0.171  0.00  0.00    +0.060 A 
ATOM     36  C   UNL     1      -1.949  -1.566   0.172  0.00  0.00    +0.027 A 
ATOM     37  H   UNL     1       2.021   0.060  -1.235  0.00  0.00    +0.162 HD
ATOM     38  H   UNL     1       0.211  -3.485   0.128  0.00  0.00    +0.162 HD
ENDBRANCH  27  33
ENDBRANCH  26  27
ENDBRANCH  22  26
ENDBRANCH   1  23
TORSDOF 7
