REMARK  Name = ZINC59397558
REMARK  5 active torsions:
REMARK  status: ('A' for Active; 'I' for Inactive)
REMARK    1  A    between atoms: C_1  and  C_2
REMARK    2  A    between atoms: C_2  and  C_3
REMARK    3  A    between atoms: N_9  and  C_10
REMARK    4  A    between atoms: N_14  and  C_18
REMARK    5  A    between atoms: C_21  and  N_24
REMARK                            x       y       z     vdW  Elec       q    Type
REMARK                         _______ _______ _______ _____ _____    ______ ____
ROOT
ATOM      1  C   UNL     1      -1.462   0.809   2.106  0.00  0.00    +0.091 C 
ATOM      2  C   UNL     1      -2.066   1.187   3.259  0.00  0.00    +0.091 C 
ATOM      3  C   UNL     1      -1.544   1.937   4.352  0.00  0.00    +0.264 C 
ATOM      4  O   UNL     1      -0.395   2.342   4.342  0.00  0.00    -0.269 OA
ATOM      5  N   UNL     1      -2.342   2.181   5.377  0.00  0.00    -0.224 N 
ATOM      6  C   UNL     1      -3.616   1.731   5.388  0.00  0.00    +0.125 C 
ATOM      7  S   UNL     1      -4.813   1.926   6.597  0.00  0.00    -0.027 S 
ATOM      8  S   UNL     1      -3.738   0.888   3.818  0.00  0.00    -0.059 S 
ENDROOT
BRANCH   1  14
ATOM      9  C   UNL     1      -1.387  -0.602   0.084  0.00  0.00    +0.073 C 
ATOM     10  C   UNL     1      -0.948  -2.069   0.091  0.00  0.00    +0.022 C 
ATOM     11  C   UNL     1      -2.125  -2.948   0.522  0.00  0.00    +0.003 C 
ATOM     12  C   UNL     1      -2.556  -2.566   1.940  0.00  0.00    +0.019 C 
ATOM     13  C   UNL     1      -3.013  -1.104   1.955  0.00  0.00    +0.105 C 
ATOM     14  N   UNL     1      -1.940  -0.264   1.403  0.00  0.00    -0.332 N 
BRANCH   9  16
ATOM     15  C   UNL     1       0.527  -0.205  -1.472  0.00  0.00    +0.006 C 
ATOM     16  C   UNL     1      -0.181   0.293  -0.210  0.00  0.00    +0.019 C 
ENDBRANCH   9  16
ENDBRANCH   1  14
BRANCH   5  17
ATOM     17  C   UNL     1      -1.859   2.915   6.468  0.00  0.00    +0.043 A 
ATOM     18  C   UNL     1      -1.541   4.258   6.317  0.00  0.00    +0.026 A 
ATOM     19  C   UNL     1      -1.066   4.980   7.394  0.00  0.00    +0.034 A 
ATOM     20  C   UNL     1      -0.907   4.366   8.623  0.00  0.00    +0.126 A 
ATOM     21  C   UNL     1      -1.223   3.029   8.777  0.00  0.00    +0.034 A 
ATOM     22  C   UNL     1      -1.704   2.303   7.705  0.00  0.00    +0.026 A 
BRANCH  20  23
ATOM     23  N   UNL     1      -0.397   5.142   9.776  0.00  0.00    +0.056 N 
ATOM     24  O   UNL     1      -0.120   6.311   9.643  0.00  0.00    -0.126 OA
ATOM     25  O   UNL     1      -0.258   4.607  10.851  0.00  0.00    -0.126 OA
ENDBRANCH  20  23
ENDBRANCH   5  17
TORSDOF 4
