REMARK  Name = ZINC63789203
REMARK  7 active torsions:
REMARK  status: ('A' for Active; 'I' for Inactive)
REMARK    1  A    between atoms: C_7  and  C_10
REMARK    2  A    between atoms: C_10  and  C_11
REMARK    3  A    between atoms: N_15  and  C_19
REMARK    4  A    between atoms: C_19  and  C_20
REMARK    5  A    between atoms: N_22  and  C_23
REMARK    6  A    between atoms: C_25  and  C_33
REMARK    7  A    between atoms: C_27  and  C_29
REMARK                            x       y       z     vdW  Elec       q    Type
REMARK                         _______ _______ _______ _____ _____    ______ ____
ROOT
ATOM      1  C   UNL     1       0.459  -3.658  -1.465  0.00  0.00    +0.165 C 
ATOM      2  C   UNL     1      -0.431  -4.885  -1.493  0.00  0.00    +0.244 C 
ATOM      3  O   UNL     1      -0.200  -5.969  -1.001  0.00  0.00    -0.273 OA
ATOM      4  N   UNL     1      -1.533  -4.521  -2.178  0.00  0.00    -0.216 N 
ATOM      5  C   UNL     1      -1.464  -3.247  -2.583  0.00  0.00    +0.310 C 
ATOM      6  O   UNL     1      -2.338  -2.692  -3.218  0.00  0.00    -0.252 OA
ATOM      7  N   UNL     1      -0.315  -2.648  -2.208  0.00  0.00    -0.287 N 
ATOM      8  H   UNL     1      -0.049  -1.734  -2.390  0.00  0.00    +0.151 HD
ENDROOT
BRANCH   1   9
ATOM      9  C   UNL     1       0.698  -3.200  -0.025  0.00  0.00    +0.065 C 
BRANCH   9  16
ATOM     10  C   UNL     1      -0.004   1.334   0.040  0.00  0.00    +0.001 A 
ATOM     11  C   UNL     1       1.179   2.087   0.034  0.00  0.00    +0.002 A 
ATOM     12  C   UNL     1       2.404   1.519   0.011  0.00  0.00    +0.026 A 
ATOM     13  C   UNL     1       2.540   0.104  -0.008  0.00  0.00    +0.043 A 
ATOM     14  N   UNL     1       3.597  -0.671  -0.032  0.00  0.00    -0.380 N 
ATOM     15  C   UNL     1       3.152  -2.069  -0.043  0.00  0.00    +0.144 C 
ATOM     16  C   UNL     1       1.640  -2.024  -0.022  0.00  0.00    -0.039 C 
ATOM     17  C   UNL     1       1.305  -0.713  -0.002  0.00  0.00    -0.001 A 
ATOM     18  C   UNL     1       0.013  -0.018   0.024  0.00  0.00    +0.010 A 
ATOM     19  H   UNL     1       4.519  -0.371  -0.041  0.00  0.00    +0.160 HD
ENDBRANCH   9  16
ENDBRANCH   1   9
BRANCH   4  20
ATOM     20  C   UNL     1      -2.666  -5.410  -2.448  0.00  0.00    +0.214 C 
BRANCH  20  21
ATOM     21  C   UNL     1      -3.669  -5.297  -1.329  0.00  0.00    +0.235 C 
ATOM     22  O   UNL     1      -3.459  -4.549  -0.398  0.00  0.00    -0.274 OA
ATOM     23  N   UNL     1      -4.801  -6.029  -1.363  0.00  0.00    -0.284 N 
ATOM     24  H   UNL     1      -5.001  -6.577  -2.138  0.00  0.00    +0.155 HD
BRANCH  23  25
ATOM     25  C   UNL     1      -5.686  -5.999  -0.280  0.00  0.00    +0.034 A 
ATOM     26  C   UNL     1      -6.381  -7.145   0.083  0.00  0.00    +0.035 A 
ATOM     27  C   UNL     1      -7.255  -7.111   1.153  0.00  0.00    +0.057 A 
ATOM     28  C   UNL     1      -7.437  -5.938   1.862  0.00  0.00    +0.024 A 
ATOM     29  C   UNL     1      -6.747  -4.795   1.503  0.00  0.00    +0.057 A 
ATOM     30  C   UNL     1      -5.867  -4.824   0.438  0.00  0.00    +0.035 A 
BRANCH  29  31
ATOM     31  C   UNL     1      -6.949  -3.519   2.278  0.00  0.00    +0.417 C 
ATOM     32  F   UNL     1      -6.029  -3.462   3.331  0.00  0.00    -0.166 F 
ATOM     33  F   UNL     1      -6.756  -2.423   1.431  0.00  0.00    -0.166 F 
ATOM     34  F   UNL     1      -8.249  -3.487   2.793  0.00  0.00    -0.166 F 
ENDBRANCH  29  31
BRANCH  27  35
ATOM     35  C   UNL     1      -8.010  -8.354   1.547  0.00  0.00    +0.417 C 
ATOM     36  F   UNL     1      -7.662  -9.403   0.689  0.00  0.00    -0.166 F 
ATOM     37  F   UNL     1      -7.684  -8.701   2.862  0.00  0.00    -0.166 F 
ATOM     38  F   UNL     1      -9.385  -8.113   1.455  0.00  0.00    -0.166 F 
ENDBRANCH  27  35
ENDBRANCH  23  25
ENDBRANCH  20  21
ENDBRANCH   4  20
TORSDOF 7
