REMARK  Name = ZINC06824174
REMARK  13 active torsions:
REMARK  status: ('A' for Active; 'I' for Inactive)
REMARK    1  A    between atoms: C_1  and  C_2
REMARK    2  A    between atoms: C_2  and  C_4
REMARK    3  A    between atoms: C_2  and  C_13
REMARK    4  A    between atoms: C_4  and  C_5
REMARK    5  A    between atoms: C_5  and  C_6
REMARK    6  A    between atoms: C_6  and  C_8
REMARK    7  A    between atoms: C_6  and  O_12
REMARK    8  A    between atoms: C_8  and  C_9
REMARK    9  A    between atoms: C_8  and  C_10
REMARK   10  A    between atoms: C_8  and  O_11
REMARK   11  A    between atoms: C_19  and  C_37
REMARK   12  A    between atoms: C_29  and  C_36
REMARK   13  A    between atoms: C_32  and  O_35
REMARK                            x       y       z     vdW  Elec       q    Type
REMARK                         _______ _______ _______ _____ _____    ______ ____
ROOT
ATOM      1  C   UNL     1      -0.235   1.565   6.511  0.00  0.00    -0.002 C 
ATOM      2  C   UNL     1       0.990   0.938   7.226  0.00  0.00    +0.004 C 
ATOM      3  C   UNL     1       0.531  -0.442   7.770  0.00  0.00    +0.004 C 
ATOM      4  C   UNL     1      -0.769  -0.709   6.997  0.00  0.00    -0.001 C 
ATOM      5  C   UNL     1      -1.417   0.690   6.965  0.00  0.00    -0.026 C 
ATOM      6  C   UNL     1      -2.622   0.655   6.065  0.00  0.00    +0.007 C 
ATOM      7  C   UNL     1      -3.600  -0.452   6.482  0.00  0.00    +0.005 C 
ATOM      8  C   UNL     1      -3.137  -1.293   7.653  0.00  0.00    +0.003 C 
ATOM      9  C   UNL     1      -1.686  -1.762   7.532  0.00  0.00    +0.000 C 
ATOM     10  C   UNL     1      -1.259  -2.268   8.917  0.00  0.00    +0.031 C 
ATOM     11  C   UNL     1      -2.204  -3.374   9.305  0.00  0.00    -0.027 C 
ATOM     12  C   UNL     1      -3.399  -3.495   8.817  0.00  0.00    -0.065 C 
ATOM     13  C   UNL     1      -4.023  -2.524   7.844  0.00  0.00    -0.008 C 
ATOM     14  C   UNL     1      -4.276  -3.263   6.534  0.00  0.00    +0.014 C 
ATOM     15  C   UNL     1      -4.049  -4.762   6.726  0.00  0.00    +0.032 C 
ATOM     16  C   UNL     1      -4.792  -5.315   7.937  0.00  0.00    +0.119 C 
ATOM     17  C   UNL     1      -4.259  -4.679   9.228  0.00  0.00    +0.062 C 
ATOM     18  C   UNL     1      -5.362  -2.048   8.413  0.00  0.00    +0.016 C 
ATOM     19  C   UNL     1      -1.792   1.196   8.364  0.00  0.00    +0.012 C 
ENDROOT
BRANCH   1  21
ATOM     20  C   UNL     1       0.335   0.117   4.565  0.00  0.00    +0.008 C 
ATOM     21  C   UNL     1      -0.043   1.534   5.002  0.00  0.00    -0.010 C 
BRANCH  21  22
ATOM     22  C   UNL     1       1.073   2.503   4.609  0.00  0.00    +0.006 C 
BRANCH  22  23
ATOM     23  C   UNL     1       1.184   2.563   3.084  0.00  0.00    +0.034 C 
BRANCH  23  24
ATOM     24  C   UNL     1       2.300   3.533   2.691  0.00  0.00    +0.146 C 
BRANCH  24  25
ATOM     25  C   UNL     1       2.495   3.499   1.174  0.00  0.00    +0.086 C 
ATOM     26  C   UNL     1       2.874   2.082   0.740  0.00  0.00    +0.043 C 
ATOM     27  C   UNL     1       3.611   4.469   0.782  0.00  0.00    +0.043 C 
BRANCH  25  28
ATOM     28  O   UNL     1       1.279   3.886   0.530  0.00  0.00    -0.387 OA
ATOM     29  H   UNL     1       0.978   4.776   0.759  0.00  0.00    +0.210 HD
ENDBRANCH  25  28
ENDBRANCH  24  25
BRANCH  24  30
ATOM     30  O   UNL     1       1.946   4.856   3.097  0.00  0.00    -0.389 OA
ATOM     31  H   UNL     1       1.129   5.185   2.698  0.00  0.00    +0.210 HD
ENDBRANCH  24  30
ENDBRANCH  23  24
ENDBRANCH  22  23
ENDBRANCH  21  22
ENDBRANCH   1  21
BRANCH  16  32
ATOM     32  O   UNL     1      -6.191  -5.062   7.812  0.00  0.00    -0.391 OA
ATOM     33  H   UNL     1      -6.721  -5.415   8.540  0.00  0.00    +0.210 HD
ENDBRANCH  16  32
TORSDOF 8
