REMARK  Name = ZINC64069917
REMARK  7 active torsions:
REMARK  status: ('A' for Active; 'I' for Inactive)
REMARK    1  A    between atoms: C_1  and  C_2
REMARK    2  A    between atoms: C_2  and  C_4
REMARK    3  A    between atoms: C_2  and  S_14
REMARK    4  A    between atoms: C_6  and  C_9
REMARK    5  A    between atoms: S_14  and  C_15
REMARK    6  A    between atoms: C_19  and  C_24
REMARK    7  A    between atoms: N_20  and  C_21
REMARK                            x       y       z     vdW  Elec       q    Type
REMARK                         _______ _______ _______ _____ _____    ______ ____
ROOT
ATOM      1  C   UNL     1      -2.432  -0.097  -1.624  0.00  0.00    +0.238 C 
ATOM      2  N   UNL     1      -2.470   1.358  -1.845  0.00  0.00    -0.237 N 
ATOM      3  N   UNL     1      -1.526   1.635  -2.840  0.00  0.00    -0.169 NA
ATOM      4  C   UNL     1      -0.929   0.545  -3.244  0.00  0.00    +0.147 C 
ATOM      5  N   UNL     1      -1.409  -0.582  -2.565  0.00  0.00    -0.282 N 
ATOM      6  H   UNL     1      -3.039   1.999  -1.390  0.00  0.00    +0.171 HD
ENDROOT
BRANCH   4   7
ATOM      7  C   UNL     1       0.065   0.507  -4.234  0.00  0.00    +0.022 C 
ATOM      8  C   UNL     1       0.656   1.595  -4.878  0.00  0.00    +0.006 A 
ATOM      9  C   UNL     1       0.469   2.989  -4.759  0.00  0.00    +0.010 A 
ATOM     10  C   UNL     1       1.201   3.834  -5.530  0.00  0.00    +0.001 A 
ATOM     11  C   UNL     1       2.142   3.359  -6.446  0.00  0.00    +0.002 A 
ATOM     12  C   UNL     1       2.373   2.033  -6.612  0.00  0.00    +0.026 A 
ATOM     13  C   UNL     1       1.647   1.089  -5.841  0.00  0.00    +0.043 A 
ATOM     14  N   UNL     1       1.685  -0.229  -5.814  0.00  0.00    -0.380 N 
ATOM     15  C   UNL     1       0.725  -0.721  -4.822  0.00  0.00    +0.152 C 
ATOM     16  H   UNL     1       2.261  -0.785  -6.362  0.00  0.00    +0.160 HD
ENDBRANCH   4   7
BRANCH   5  17
ATOM     17  C   UNL     1      -0.978  -1.970  -2.752  0.00  0.00    +0.078 C 
ATOM     18  C   UNL     1      -1.715  -3.051  -1.958  0.00  0.00    +0.024 C 
ATOM     19  C   UNL     1      -0.286  -2.659  -1.574  0.00  0.00    +0.024 C 
ENDBRANCH   5  17
BRANCH   1  20
ATOM     20  S   UNL     1      -1.949  -0.467   0.085  0.00  0.00    -0.105 S 
BRANCH  20  22
ATOM     21  C   UNL     1      -0.541   1.877   0.163  0.00  0.00    +0.029 C 
ATOM     22  C   UNL     1      -0.348   0.363   0.278  0.00  0.00    +0.135 C 
BRANCH  22  23
ATOM     23  C   UNL     1       0.230   0.032   1.630  0.00  0.00    +0.240 A 
ATOM     24  N   UNL     1       1.466  -0.305   1.866  0.00  0.00    -0.190 NA
ATOM     25  C   UNL     1       1.637  -0.532   3.183  0.00  0.00    +0.209 A 
ATOM     26  N   UNL     1       0.492  -0.336   3.793  0.00  0.00    -0.056 NA
ATOM     27  O   UNL     1      -0.439   0.039   2.790  0.00  0.00    -0.337 OA
BRANCH  25  28
ATOM     28  C   UNL     1       2.903  -0.933   3.831  0.00  0.00    +0.060 A 
ATOM     29  C   UNL     1       3.153  -1.187   5.154  0.00  0.00    +0.019 A 
ATOM     30  C   UNL     1       4.426  -1.551   5.529  0.00  0.00    +0.008 A 
ATOM     31  C   UNL     1       5.394  -1.649   4.580  0.00  0.00    +0.046 A 
ATOM     32  S   UNL     1       4.503  -1.223   3.092  0.00  0.00    -0.093 S 
ENDBRANCH  25  28
ENDBRANCH  22  23
ENDBRANCH  20  22
ENDBRANCH   1  20
TORSDOF 6
