REMARK  Name = ZINC09666400
REMARK  8 active torsions:
REMARK  status: ('A' for Active; 'I' for Inactive)
REMARK    1  A    between atoms: C_1  and  C_2
REMARK    2  A    between atoms: C_2  and  O_3
REMARK    3  A    between atoms: O_3  and  C_4
REMARK    4  A    between atoms: C_7  and  C_10
REMARK    5  A    between atoms: C_10  and  C_32
REMARK    6  A    between atoms: N_13  and  C_17
REMARK    7  A    between atoms: C_17  and  N_58
REMARK    8  A    between atoms: C_21  and  C_23
REMARK                            x       y       z     vdW  Elec       q    Type
REMARK                         _______ _______ _______ _____ _____    ______ ____
ROOT
ATOM      1  C   UNL     1       0.405   4.374  -5.000  0.00  0.00    +0.135 C 
ATOM      2  C   UNL     1       0.068   3.280  -4.007  0.00  0.00    +0.249 C 
ATOM      3  O   UNL     1       0.636   2.218  -3.867  0.00  0.00    -0.272 OA
ATOM      4  N   UNL     1      -0.995   3.733  -3.313  0.00  0.00    -0.241 N 
ATOM      5  C   UNL     1      -1.375   4.947  -3.729  0.00  0.00    +0.308 C 
ATOM      6  O   UNL     1      -2.312   5.560  -3.257  0.00  0.00    -0.252 OA
ATOM      7  N   UNL     1      -0.600   5.415  -4.724  0.00  0.00    -0.281 N 
ATOM      8  C   UNL     1       0.269   3.860  -6.435  0.00  0.00    +0.047 C 
ATOM      9  H   UNL     1      -0.690   6.269  -5.176  0.00  0.00    +0.152 HD
ENDROOT
BRANCH   1  13
ATOM     10  C   UNL     1       4.347   5.872  -4.305  0.00  0.00    +0.121 A 
ATOM     11  C   UNL     1       3.371   6.704  -4.832  0.00  0.00    +0.046 A 
ATOM     12  C   UNL     1       2.097   6.218  -5.056  0.00  0.00    +0.010 A 
ATOM     13  C   UNL     1       1.795   4.902  -4.755  0.00  0.00    -0.015 A 
ATOM     14  C   UNL     1       2.765   4.072  -4.224  0.00  0.00    +0.010 A 
ATOM     15  C   UNL     1       4.042   4.552  -4.003  0.00  0.00    +0.046 A 
BRANCH  10  16
ATOM     16  O   UNL     1       5.601   6.348  -4.084  0.00  0.00    -0.492 OA
BRANCH  16  18
ATOM     17  C   UNL     1       7.898   6.145  -3.361  0.00  0.00    +0.048 C 
ATOM     18  C   UNL     1       6.555   5.434  -3.539  0.00  0.00    +0.225 C 
ENDBRANCH  16  18
ENDBRANCH  10  16
ENDBRANCH   1  13
BRANCH   4  19
ATOM     19  C   UNL     1      -1.656   2.986  -2.240  0.00  0.00    +0.043 C 
BRANCH  19  24
ATOM     20  C   UNL     1      -1.596   4.549  -0.386  0.00  0.00    -0.076 C 
ATOM     21  C   UNL     1      -2.135   4.200   1.017  0.00  0.00    -0.020 C 
ATOM     22  C   UNL     1      -1.333   2.926   1.393  0.00  0.00    -0.010 C 
ATOM     23  C   UNL     1      -1.210   2.218   0.020  0.00  0.00    -0.009 C 
ATOM     24  N   UNL     1      -1.011   3.318  -0.944  0.00  0.00    +0.396 N 
ATOM     25  H   UNL     1      -0.005   3.459  -1.096  0.00  0.00    -0.079 HD
BRANCH  23  26
ATOM     26  C   UNL     1      -0.016   1.299   0.009  0.00  0.00    +0.066 A 
ATOM     27  N   UNL     1       0.002  -0.004   0.002  0.00  0.00    -0.246 NA
ATOM     28  C   UNL     1       1.150  -0.713  -0.013  0.00  0.00    +0.078 A 
ATOM     29  C   UNL     1       1.331  -2.114  -0.022  0.00  0.00    +0.029 A 
ATOM     30  C   UNL     1       2.580  -2.653  -0.037  0.00  0.00    +0.002 A 
ATOM     31  C   UNL     1       3.717  -1.856  -0.043  0.00  0.00    +0.001 A 
ATOM     32  C   UNL     1       3.582  -0.481  -0.035  0.00  0.00    +0.017 A 
ATOM     33  C   UNL     1       2.325   0.073  -0.020  0.00  0.00    +0.039 A 
ATOM     34  S   UNL     1       1.668   1.722  -0.005  0.00  0.00    -0.074 S 
ENDBRANCH  23  26
ENDBRANCH  19  24
ENDBRANCH   4  19
TORSDOF 6
