REMARK  Name = ZINC09109039
REMARK  3 active torsions:
REMARK  status: ('A' for Active; 'I' for Inactive)
REMARK    1  A    between atoms: C_15  and  C_17
REMARK    2  A    between atoms: C_17  and  C_19
REMARK    3  A    between atoms: N_29  and  C_32
REMARK                            x       y       z     vdW  Elec       q    Type
REMARK                         _______ _______ _______ _____ _____    ______ ____
ROOT
ATOM      1  C   UNL     1       3.669   1.822   0.054  0.00  0.00    +0.001 A 
ATOM      2  C   UNL     1       3.659   3.204  -0.022  0.00  0.00    +0.000 A 
ATOM      3  C   UNL     1       2.459   3.890  -0.092  0.00  0.00    +0.006 A 
ATOM      4  C   UNL     1       1.268   3.204  -0.085  0.00  0.00    -0.021 A 
ATOM      5  C   UNL     1       1.270   1.799  -0.000  0.00  0.00    -0.019 A 
ATOM      6  C   UNL     1       2.483   1.117   0.064  0.00  0.00    +0.008 A 
ATOM      7  C   UNL     1      -0.013   1.076   0.008  0.00  0.00    +0.022 C 
ATOM      8  C   UNL     1      -1.193   1.700   0.017  0.00  0.00    +0.054 C 
ATOM      9  C   UNL     1      -0.054   3.868  -0.164  0.00  0.00    +0.100 C 
ATOM     10  C   UNL     1      -0.234   5.051   0.742  0.00  0.00    +0.113 C 
ATOM     11  C   UNL     1      -1.744   5.344   0.384  0.00  0.00    +0.116 C 
ATOM     12  C   UNL     1      -2.396   4.039   0.240  0.00  0.00    +0.141 C 
ATOM     13  C   UNL     1      -1.936   6.662   0.935  0.00  0.00    +0.232 C 
ATOM     14  O   UNL     1      -2.945   7.119   1.428  0.00  0.00    -0.274 OA
ATOM     15  N   UNL     1      -0.721   7.285   0.778  0.00  0.00    -0.210 N 
ATOM     16  C   UNL     1       0.269   6.420   0.390  0.00  0.00    +0.232 C 
ATOM     17  O   UNL     1       1.328   6.702  -0.128  0.00  0.00    -0.274 OA
ATOM     18  N   UNL     1      -1.269   3.181  -0.330  0.00  0.00    -0.384 NA
ATOM     19  H   UNL     1      -1.437   3.180  -1.343  0.00  0.00    +0.127 HD
ENDROOT
BRANCH  15  20
ATOM     20  C   UNL     1      -0.516   8.656   0.991  0.00  0.00    +0.044 A 
ATOM     21  C   UNL     1       0.746   9.207   0.814  0.00  0.00    +0.027 A 
ATOM     22  C   UNL     1       0.944  10.558   1.018  0.00  0.00    +0.040 A 
ATOM     23  C   UNL     1      -0.113  11.362   1.411  0.00  0.00    +0.124 A 
ATOM     24  C   UNL     1      -1.372  10.814   1.593  0.00  0.00    +0.040 A 
ATOM     25  C   UNL     1      -1.575   9.464   1.384  0.00  0.00    +0.027 A 
ATOM     26  F   UNL     1       0.084  12.683   1.615  0.00  0.00    -0.205 F 
ENDBRANCH  15  20
BRANCH  12  27
ATOM     27  C   UNL     1      -3.161   3.697   1.492  0.00  0.00    +0.184 C 
ATOM     28  O   UNL     1      -2.681   2.939   2.308  0.00  0.00    -0.290 OA
BRANCH  27  29
ATOM     29  C   UNL     1      -4.490   4.282   1.724  0.00  0.00    +0.038 A 
ATOM     30  C   UNL     1      -5.047   5.157   0.784  0.00  0.00    +0.014 A 
ATOM     31  C   UNL     1      -6.292   5.701   1.008  0.00  0.00    +0.021 A 
ATOM     32  C   UNL     1      -6.995   5.384   2.161  0.00  0.00    +0.042 A 
ATOM     33  C   UNL     1      -6.451   4.519   3.096  0.00  0.00    +0.040 A 
ATOM     34  C   UNL     1      -5.207   3.962   2.884  0.00  0.00    +0.053 A 
ATOM     35 CL   UNL     1      -4.529   2.873   4.054  0.00  0.00    -0.083 Cl
ATOM     36 CL   UNL     1      -8.564   6.075   2.433  0.00  0.00    -0.083 Cl
ENDBRANCH  27  29
ENDBRANCH  12  27
TORSDOF 3
