REMARK  Name = ZINC63996753
REMARK  8 active torsions:
REMARK  status: ('A' for Active; 'I' for Inactive)
REMARK    1  A    between atoms: C_1  and  C_2
REMARK    2  A    between atoms: C_2  and  O_3
REMARK    3  A    between atoms: O_3  and  C_4
REMARK    4  A    between atoms: C_9  and  N_12
REMARK    5  A    between atoms: C_13  and  C_15
REMARK    6  A    between atoms: C_15  and  N_16
REMARK    7  A    between atoms: C_19  and  C_24
REMARK    8  A    between atoms: C_24  and  C_25
REMARK                            x       y       z     vdW  Elec       q    Type
REMARK                         _______ _______ _______ _____ _____    ______ ____
ROOT
ATOM      1  N   UNL     1      -8.496  -6.447   2.834  0.00  0.00    -0.216 N 
ATOM      2  C   UNL     1      -9.693  -6.412   2.215  0.00  0.00    +0.244 C 
ATOM      3  O   UNL     1     -10.316  -5.427   1.881  0.00  0.00    -0.273 OA
ATOM      4  C   UNL     1     -10.098  -7.860   2.023  0.00  0.00    +0.165 C 
ATOM      5  N   UNL     1      -8.977  -8.614   2.612  0.00  0.00    -0.287 N 
ATOM      6  C   UNL     1      -8.091  -7.704   3.054  0.00  0.00    +0.310 C 
ATOM      7  O   UNL     1      -7.041  -7.990   3.594  0.00  0.00    -0.252 OA
ATOM      8  H   UNL     1      -8.893  -9.579   2.667  0.00  0.00    +0.151 HD
ENDROOT
BRANCH   1   9
ATOM      9  C   UNL     1      -7.731  -5.258   3.215  0.00  0.00    +0.213 C 
BRANCH   9  11
ATOM     10  N   UNL     1      -6.017  -3.787   2.206  0.00  0.00    -0.311 N 
ATOM     11  C   UNL     1      -6.821  -4.862   2.081  0.00  0.00    +0.231 C 
ATOM     12  O   UNL     1      -6.813  -5.510   1.056  0.00  0.00    -0.274 OA
ATOM     13  H   UNL     1      -6.024  -3.269   3.025  0.00  0.00    +0.149 HD
BRANCH  10  19
ATOM     14  C   UNL     1      -1.497  -1.836   0.006  0.00  0.00    +0.403 C 
ATOM     15  O   UNL     1      -0.523  -2.563  -0.007  0.00  0.00    -0.226 OA
ATOM     16  N   UNL     1      -2.735  -2.368   0.015  0.00  0.00    -0.267 N 
ATOM     17  C   UNL     1      -3.922  -1.502   0.025  0.00  0.00    +0.113 C 
ATOM     18  C   UNL     1      -4.819  -1.908   1.199  0.00  0.00    +0.041 C 
ATOM     19  C   UNL     1      -5.132  -3.402   1.103  0.00  0.00    +0.076 C 
ATOM     20  C   UNL     1      -3.832  -4.205   1.189  0.00  0.00    +0.041 C 
ATOM     21  C   UNL     1      -2.924  -3.825   0.009  0.00  0.00    +0.113 C 
BRANCH  14  22
ATOM     22  O   UNL     1      -1.339  -0.499   0.012  0.00  0.00    -0.451 OA
BRANCH  22  24
ATOM     23  C   UNL     1      -0.019   1.526   0.010  0.00  0.00    +0.048 C 
ATOM     24  C   UNL     1       0.002  -0.004   0.002  0.00  0.00    +0.230 C 
ENDBRANCH  22  24
ENDBRANCH  14  22
ENDBRANCH  10  19
ENDBRANCH   9  11
ENDBRANCH   1   9
BRANCH   4  25
ATOM     25  C   UNL     1     -11.401  -8.158   2.768  0.00  0.00    +0.065 C 
BRANCH  25  26
ATOM     26  C   UNL     1     -11.844  -9.566   2.461  0.00  0.00    -0.039 C 
ATOM     27  C   UNL     1     -11.599 -10.674   3.197  0.00  0.00    -0.001 A 
ATOM     28  C   UNL     1     -10.874 -10.892   4.454  0.00  0.00    +0.010 A 
ATOM     29  C   UNL     1     -10.796 -12.145   4.957  0.00  0.00    +0.001 A 
ATOM     30  C   UNL     1     -11.389 -13.238   4.309  0.00  0.00    +0.002 A 
ATOM     31  C   UNL     1     -12.072 -13.116   3.151  0.00  0.00    +0.026 A 
ATOM     32  C   UNL     1     -12.217 -11.844   2.533  0.00  0.00    +0.043 A 
ATOM     33  N   UNL     1     -12.820 -11.473   1.429  0.00  0.00    -0.380 N 
ATOM     34  C   UNL     1     -12.659 -10.024   1.272  0.00  0.00    +0.144 C 
ATOM     35  H   UNL     1     -13.298 -12.059   0.821  0.00  0.00    +0.160 HD
ENDBRANCH  25  26
ENDBRANCH   4  25
TORSDOF 7
