REMARK  Name = ZINC38704014
REMARK  9 active torsions:
REMARK  status: ('A' for Active; 'I' for Inactive)
REMARK    1  A    between atoms: C_1  and  C_2
REMARK    2  A    between atoms: C_2  and  N_3
REMARK    3  A    between atoms: C_4  and  C_6
REMARK    4  A    between atoms: C_8  and  N_17
REMARK    5  A    between atoms: C_18  and  C_20
REMARK    6  A    between atoms: C_23  and  C_25
REMARK    7  A    between atoms: C_26  and  C_33
REMARK    8  A    between atoms: C_28  and  C_32
REMARK    9  A    between atoms: C_30  and  O_31
REMARK                            x       y       z     vdW  Elec       q    Type
REMARK                         _______ _______ _______ _____ _____    ______ ____
ROOT
ATOM      1  N   UNL     1      -3.079  -0.656   1.833  0.00  0.00    -0.297 N 
ATOM      2  C   UNL     1      -3.822   0.398   2.226  0.00  0.00    +0.261 C 
ATOM      3  O   UNL     1      -5.034   0.358   2.130  0.00  0.00    -0.269 OA
ATOM      4  H   UNL     1      -2.113  -0.624   1.910  0.00  0.00    +0.150 HD
ENDROOT
BRANCH   1   6
ATOM      5  C   UNL     1      -3.014  -2.361   0.018  0.00  0.00    +0.132 C 
ATOM      6  C   UNL     1      -3.732  -1.850   1.291  0.00  0.00    +0.152 C 
ATOM      7  S   UNL     1      -3.465  -3.318   2.371  0.00  0.00    -0.106 S 
ATOM      8  C   UNL     1      -3.187  -4.528   1.098  0.00  0.00    -0.013 C 
ATOM      9  C   UNL     1      -2.984  -3.868  -0.033  0.00  0.00    -0.046 C 
ATOM     10  C   UNL     1      -2.728  -4.614  -1.341  0.00  0.00    +0.032 C 
ATOM     11  C   UNL     1      -2.288  -6.043  -1.024  0.00  0.00    +0.005 C 
ATOM     12  C   UNL     1      -3.301  -6.693  -0.077  0.00  0.00    +0.005 C 
ATOM     13  C   UNL     1      -3.186  -6.019   1.289  0.00  0.00    +0.042 C 
BRANCH   5  15
ATOM     14  N   UNL     1      -1.372  -0.511   0.012  0.00  0.00    -0.315 N 
ATOM     15  C   UNL     1      -1.601  -1.839   0.007  0.00  0.00    +0.223 C 
ATOM     16  O   UNL     1      -0.668  -2.615  -0.006  0.00  0.00    -0.275 OA
ATOM     17  H   UNL     1      -2.118   0.109   0.023  0.00  0.00    +0.149 HD
BRANCH  14  19
ATOM     18  C   UNL     1      -0.019   1.526   0.010  0.00  0.00    +0.024 C 
ATOM     19  C   UNL     1       0.002  -0.004   0.002  0.00  0.00    +0.101 C 
ENDBRANCH  14  19
ENDBRANCH   5  15
ENDBRANCH   1   6
BRANCH   2  20
ATOM     20  C   UNL     1      -3.169   1.593   2.769  0.00  0.00    +0.131 C 
ATOM     21  N   UNL     1      -1.887   1.795   2.931  0.00  0.00    -0.148 NA
ATOM     22  N   UNL     1      -1.592   2.932   3.428  0.00  0.00    -0.153 NA
ATOM     23  C   UNL     1      -2.631   3.694   3.687  0.00  0.00    +0.080 C 
ATOM     24  C   UNL     1      -3.834   2.868   3.260  0.00  0.00    +0.120 C 
BRANCH  23  25
ATOM     25  C   UNL     1      -2.630   5.043   4.256  0.00  0.00    +0.043 A 
ATOM     26  C   UNL     1      -2.690   5.224   5.645  0.00  0.00    -0.038 A 
ATOM     27  C   UNL     1      -2.689   6.495   6.171  0.00  0.00    +0.007 A 
ATOM     28  C   UNL     1      -2.628   7.600   5.335  0.00  0.00    -0.047 A 
ATOM     29  C   UNL     1      -2.568   7.439   3.965  0.00  0.00    +0.049 A 
ATOM     30  C   UNL     1      -2.563   6.167   3.413  0.00  0.00    +0.126 A 
ATOM     31  C   UNL     1      -2.628   8.986   5.926  0.00  0.00    +0.044 C 
ATOM     32  C   UNL     1      -2.757   4.028   6.560  0.00  0.00    +0.044 C 
BRANCH  30  33
ATOM     33  O   UNL     1      -2.499   6.008   2.068  0.00  0.00    -0.506 OA
ATOM     34  H   UNL     1      -3.363   5.981   1.633  0.00  0.00    +0.292 HD
ENDBRANCH  30  33
ENDBRANCH  23  25
ENDBRANCH   2  20
TORSDOF 6
