REMARK  Name = ZINC06751364
REMARK  6 active torsions:
REMARK  status: ('A' for Active; 'I' for Inactive)
REMARK    1  A    between atoms: C_1  and  C_2
REMARK    2  A    between atoms: C_9  and  O_16
REMARK    3  A    between atoms: C_12  and  C_14
REMARK    4  A    between atoms: C_12  and  C_15
REMARK    5  A    between atoms: C_18  and  C_19
REMARK    6  A    between atoms: N_21  and  C_22
REMARK                            x       y       z     vdW  Elec       q    Type
REMARK                         _______ _______ _______ _____ _____    ______ ____
ROOT
ATOM      1  C   UNL     1      -4.454   7.488   2.195  0.00  0.00    +0.048 C 
ATOM      2  C   UNL     1      -3.272   8.008   1.416  0.00  0.00    +0.008 A 
ATOM      3  C   UNL     1      -2.811   9.394   1.338  0.00  0.00    +0.033 A 
ATOM      4  C   UNL     1      -1.689   9.375   0.491  0.00  0.00    +0.137 A 
ATOM      5  C   UNL     1      -1.029  10.566   0.216  0.00  0.00    +0.050 A 
ATOM      6  C   UNL     1      -1.474  11.744   0.771  0.00  0.00    +0.049 A 
ATOM      7  C   UNL     1      -2.587  11.766   1.615  0.00  0.00    +0.128 A 
ATOM      8  C   UNL     1      -3.257  10.597   1.899  0.00  0.00    +0.034 A 
ATOM      9  C   UNL     1      -4.467  10.580   2.798  0.00  0.00    +0.152 C 
ATOM     10  C   UNL     1      -4.512  11.866   3.628  0.00  0.00    +0.083 C 
ATOM     11  C   UNL     1      -4.293  13.054   2.683  0.00  0.00    +0.108 C 
ATOM     12  O   UNL     1      -2.976  12.959   2.139  0.00  0.00    -0.486 OA
ATOM     13  C   UNL     1      -5.322  13.010   1.551  0.00  0.00    +0.055 C 
ATOM     14  C   UNL     1      -4.437  14.364   3.460  0.00  0.00    +0.055 C 
ATOM     15  O   UNL     1      -1.490   8.099   0.105  0.00  0.00    -0.450 OA
ATOM     16  C   UNL     1      -2.418   7.284   0.648  0.00  0.00    +0.193 A 
ENDROOT
BRANCH  16  17
ATOM     17  C   UNL     1      -2.497   5.832   0.434  0.00  0.00    +0.280 C 
ATOM     18  O   UNL     1      -3.376   5.184   0.971  0.00  0.00    -0.267 OA
ATOM     19  N   UNL     1      -1.595   5.217  -0.357  0.00  0.00    -0.306 N 
ATOM     20  H   UNL     1      -0.894   5.733  -0.785  0.00  0.00    +0.149 HD
BRANCH  19  21
ATOM     21  C   UNL     1      -1.673   3.770  -0.570  0.00  0.00    +0.073 C 
ATOM     22  C   UNL     1      -1.011   3.414  -1.902  0.00  0.00    +0.022 C 
ATOM     23  C   UNL     1      -1.093   1.902  -2.125  0.00  0.00    +0.002 C 
ATOM     24  C   UNL     1      -0.370   1.179  -0.987  0.00  0.00    +0.000 C 
ATOM     25  C   UNL     1      -1.032   1.535   0.346  0.00  0.00    +0.002 C 
ATOM     26  C   UNL     1      -0.950   3.047   0.568  0.00  0.00    +0.022 C 
ENDBRANCH  19  21
ENDBRANCH  16  17
BRANCH   9  27
ATOM     27  O   UNL     1      -4.393   9.453   3.673  0.00  0.00    -0.387 OA
ATOM     28  H   UNL     1      -5.156   9.359   4.260  0.00  0.00    +0.210 HD
ENDBRANCH   9  27
TORSDOF 3
