REMARK  Name = ZINC36136460
REMARK  9 active torsions:
REMARK  status: ('A' for Active; 'I' for Inactive)
REMARK    1  A    between atoms: C_1  and  C_2
REMARK    2  A    between atoms: C_2  and  C_3
REMARK    3  A    between atoms: C_2  and  C_4
REMARK    4  A    between atoms: C_2  and  C_5
REMARK    5  A    between atoms: C_7  and  C_10
REMARK    6  A    between atoms: C_10  and  C_11
REMARK    7  A    between atoms: C_11  and  N_12
REMARK    8  A    between atoms: N_12  and  S_13
REMARK    9  A    between atoms: S_13  and  C_16
REMARK                            x       y       z     vdW  Elec       q    Type
REMARK                         _______ _______ _______ _____ _____    ______ ____
ROOT
ATOM      1  C   UNL     1       4.461  -1.907  -2.955  0.00  0.00    +0.114 C 
ENDROOT
BRANCH   1   2
ATOM      2  N   UNL     1       5.757  -1.839  -3.635  0.00  0.00    -0.190 NA
ATOM      3  H   UNL     1       5.864  -1.278  -4.419  0.00  0.00    +0.148 HD
BRANCH   2   4
ATOM      4  S   UNL     1       7.038  -2.720  -3.066  0.00  0.00    +0.058 S 
ATOM      5  O   UNL     1       8.128  -2.465  -3.942  0.00  0.00    -0.153 OA
ATOM      6  O   UNL     1       7.111  -2.473  -1.668  0.00  0.00    -0.153 OA
BRANCH   4   7
ATOM      7  C   UNL     1       6.626  -4.422  -3.256  0.00  0.00    +0.105 A 
ATOM      8  C   UNL     1       5.970  -5.092  -2.239  0.00  0.00    +0.028 A 
ATOM      9  C   UNL     1       5.647  -6.428  -2.389  0.00  0.00    +0.002 A 
ATOM     10  C   UNL     1       5.978  -7.093  -3.554  0.00  0.00    +0.000 A 
ATOM     11  C   UNL     1       6.633  -6.423  -4.570  0.00  0.00    +0.002 A 
ATOM     12  C   UNL     1       6.952  -5.086  -4.423  0.00  0.00    +0.028 A 
ENDBRANCH   4   7
ENDBRANCH   2   4
ENDBRANCH   1   2
BRANCH   1  13
ATOM     13  C   UNL     1       3.576  -0.751  -3.427  0.00  0.00    +0.096 C 
BRANCH  13  16
ATOM     14  C   UNL     1       0.707  -0.490  -1.238  0.00  0.00    +0.233 A 
ATOM     15  N   UNL     1       1.943  -0.232  -1.565  0.00  0.00    -0.196 NA
ATOM     16  C   UNL     1       2.243  -0.821  -2.728  0.00  0.00    +0.173 A 
ATOM     17  N   UNL     1       1.196  -1.464  -3.157  0.00  0.00    -0.061 NA
ATOM     18  O   UNL     1       0.175  -1.266  -2.191  0.00  0.00    -0.337 OA
BRANCH  14  20
ATOM     19  C   UNL     1      -0.019   1.526   0.010  0.00  0.00    +0.020 C 
ATOM     20  C   UNL     1       0.002  -0.004   0.002  0.00  0.00    +0.041 C 
ATOM     21  C   UNL     1       0.742  -0.511   1.242  0.00  0.00    +0.020 C 
ATOM     22  C   UNL     1      -1.433  -0.534   0.013  0.00  0.00    +0.020 C 
ENDBRANCH  14  20
ENDBRANCH  13  16
ENDBRANCH   1  13
TORSDOF 6
