REMARK  Name = ZINC37359525
REMARK  6 active torsions:
REMARK  status: ('A' for Active; 'I' for Inactive)
REMARK    1  A    between atoms: C_1  and  N_2
REMARK    2  A    between atoms: C_3  and  N_27
REMARK    3  A    between atoms: C_5  and  C_20
REMARK    4  A    between atoms: N_11  and  C_12
REMARK    5  A    between atoms: C_12  and  C_13
REMARK    6  A    between atoms: C_13  and  C_14
REMARK                            x       y       z     vdW  Elec       q    Type
REMARK                         _______ _______ _______ _____ _____    ______ ____
ROOT
ATOM      1  C   UNL     1      -1.077   1.274  -0.019  0.00  0.00    +0.174 C 
ATOM      2  N   UNL     1      -0.588  -0.107  -0.014  0.00  0.00    -0.251 N 
ATOM      3  C   UNL     1      -0.263  -0.815  -1.110  0.00  0.00    +0.126 A 
ATOM      4  C   UNL     1       0.154  -2.071  -0.688  0.00  0.00    +0.086 A 
ATOM      5  C   UNL     1       0.613  -3.250  -1.318  0.00  0.00    +0.091 A 
ATOM      6  N   UNL     1       0.930  -4.288  -0.555  0.00  0.00    -0.214 NA
ATOM      7  C   UNL     1       0.827  -4.250   0.770  0.00  0.00    +0.218 A 
ATOM      8  N   UNL     1       0.409  -3.194   1.438  0.00  0.00    -0.193 NA
ATOM      9  C   UNL     1       0.055  -2.071   0.782  0.00  0.00    +0.188 A 
ATOM     10  N   UNL     1      -0.383  -0.882   1.133  0.00  0.00    -0.149 NA
ATOM     11  N   UNL     1       1.179  -5.379   1.487  0.00  0.00    -0.313 N 
ATOM     12  H   UNL     1       1.490  -6.171   1.021  0.00  0.00    +0.149 HD
ENDROOT
BRANCH   5  13
ATOM     13  C   UNL     1       0.738  -3.325  -2.791  0.00  0.00    +0.036 A 
ATOM     14  C   UNL     1       1.524  -2.397  -3.476  0.00  0.00    +0.013 A 
ATOM     15  C   UNL     1       1.636  -2.471  -4.848  0.00  0.00    +0.001 A 
ATOM     16  C   UNL     1       0.971  -3.463  -5.548  0.00  0.00    +0.003 A 
ATOM     17  C   UNL     1       0.190  -4.386  -4.878  0.00  0.00    +0.039 A 
ATOM     18  C   UNL     1       0.073  -4.327  -3.502  0.00  0.00    +0.133 A 
ATOM     19  F   UNL     1      -0.685  -5.233  -2.847  0.00  0.00    -0.205 F 
ENDBRANCH   5  13
BRANCH   3  20
ATOM     20  N   UNL     1      -0.333  -0.373  -2.418  0.00  0.00    -0.343 N 
ATOM     21  H   UNL     1      -0.523   0.559  -2.606  0.00  0.00    +0.144 HD
ATOM     22  H   UNL     1      -0.191  -0.996  -3.148  0.00  0.00    +0.144 HD
ENDBRANCH   3  20
BRANCH  11  23
ATOM     23  C   UNL     1       1.081  -5.380   2.948  0.00  0.00    +0.109 C 
BRANCH  23  24
ATOM     24  C   UNL     1       1.526  -6.740   3.489  0.00  0.00    +0.054 C 
BRANCH  24  25
ATOM     25  C   UNL     1       1.425  -6.741   4.993  0.00  0.00    -0.046 A 
ATOM     26  C   UNL     1       2.503  -6.337   5.758  0.00  0.00    +0.004 A 
ATOM     27  C   UNL     1       2.411  -6.337   7.137  0.00  0.00    +0.000 A 
ATOM     28  C   UNL     1       1.240  -6.741   7.751  0.00  0.00    +0.000 A 
ATOM     29  C   UNL     1       0.161  -7.144   6.986  0.00  0.00    +0.000 A 
ATOM     30  C   UNL     1       0.252  -7.139   5.607  0.00  0.00    +0.004 A 
ENDBRANCH  24  25
ENDBRANCH  23  24
ENDBRANCH  11  23
TORSDOF 5
