REMARK  Name = ZINC01049803
REMARK  10 active torsions:
REMARK  status: ('A' for Active; 'I' for Inactive)
REMARK    1  A    between atoms: C_1  and  N_2
REMARK    2  A    between atoms: N_2  and  C_3
REMARK    3  A    between atoms: N_2  and  C_4
REMARK    4  A    between atoms: C_7  and  N_10
REMARK    5  A    between atoms: C_11  and  C_13
REMARK    6  A    between atoms: C_13  and  S_14
REMARK    7  A    between atoms: S_14  and  C_15
REMARK    8  A    between atoms: C_18  and  C_26
REMARK    9  A    between atoms: N_19  and  C_20
REMARK   10  A    between atoms: C_20  and  C_21
REMARK                            x       y       z     vdW  Elec       q    Type
REMARK                         _______ _______ _______ _____ _____    ______ ____
ROOT
ATOM      1  C   UNL     1      -0.447  -2.682 -10.098  0.00  0.00    +0.193 A 
ATOM      2  N   UNL     1      -0.552  -3.991 -10.115  0.00  0.00    -0.122 NA
ATOM      3  N   UNL     1      -0.691  -4.409 -11.322  0.00  0.00    -0.128 NA
ATOM      4  C   UNL     1      -0.683  -3.389 -12.153  0.00  0.00    +0.172 A 
ATOM      5  N   UNL     1      -0.533  -2.251 -11.393  0.00  0.00    -0.294 N 
ENDROOT
BRANCH   4   6
ATOM      6  C   UNL     1      -0.817  -3.453 -13.617  0.00  0.00    +0.056 A 
ATOM      7  C   UNL     1      -1.254  -4.491 -14.401  0.00  0.00    +0.019 A 
ATOM      8  C   UNL     1      -1.294  -4.316 -15.766  0.00  0.00    +0.008 A 
ATOM      9  C   UNL     1      -0.902  -3.127 -16.294  0.00  0.00    +0.046 A 
ATOM     10  S   UNL     1      -0.460  -2.198 -14.835  0.00  0.00    -0.094 S 
ENDBRANCH   4   6
BRANCH   1  11
ATOM     11  S   UNL     1      -0.242  -1.668  -8.671  0.00  0.00    -0.077 S 
BRANCH  11  12
ATOM     12  C   UNL     1      -0.205  -2.850  -7.295  0.00  0.00    +0.173 C 
BRANCH  12  14
ATOM     13  N   UNL     1       0.025  -2.781  -4.833  0.00  0.00    -0.285 N 
ATOM     14  C   UNL     1      -0.031  -2.104  -5.997  0.00  0.00    +0.227 C 
ATOM     15  O   UNL     1       0.059  -0.894  -6.000  0.00  0.00    -0.275 OA
ATOM     16  H   UNL     1       0.029  -3.751  -4.836  0.00  0.00    +0.155 HD
BRANCH  13  20
ATOM     17  C   UNL     1       0.176  -0.706  -1.218  0.00  0.00    +0.029 A 
ATOM     18  C   UNL     1      -0.538  -0.184  -2.290  0.00  0.00    +0.025 A 
ATOM     19  C   UNL     1      -0.588  -0.871  -3.486  0.00  0.00    +0.025 A 
ATOM     20  C   UNL     1       0.075  -2.083  -3.619  0.00  0.00    +0.034 A 
ATOM     21  C   UNL     1       0.789  -2.606  -2.548  0.00  0.00    +0.025 A 
ATOM     22  C   UNL     1       0.844  -1.916  -1.353  0.00  0.00    +0.025 A 
BRANCH  17  24
ATOM     23  C   UNL     1       0.984  -0.557   1.122  0.00  0.00    +0.129 C 
ATOM     24  N   UNL     1       0.226  -0.010  -0.006  0.00  0.00    -0.336 N 
ATOM     25  C   UNL     1      -0.479   1.267   0.136  0.00  0.00    +0.129 C 
ENDBRANCH  17  24
ENDBRANCH  13  20
ENDBRANCH  12  14
ENDBRANCH  11  12
ENDBRANCH   1  11
BRANCH   5  26
ATOM     26  C   UNL     1      -0.474  -0.868 -11.872  0.00  0.00    +0.200 C 
BRANCH  26  27
ATOM     27  C   UNL     1      -1.873  -0.328 -12.021  0.00  0.00    +0.125 A 
ATOM     28  C   UNL     1      -2.540   0.394 -11.103  0.00  0.00    +0.046 A 
ATOM     29  C   UNL     1      -3.808   0.687 -11.655  0.00  0.00    +0.041 A 
ATOM     30  C   UNL     1      -3.841   0.127 -12.877  0.00  0.00    +0.195 A 
ATOM     31  O   UNL     1      -2.664  -0.482 -13.096  0.00  0.00    -0.466 OA
ENDBRANCH  26  27
ENDBRANCH   5  26
TORSDOF 8
