REMARK  Name = ZINC38223082
REMARK  11 active torsions:
REMARK  status: ('A' for Active; 'I' for Inactive)
REMARK    1  A    between atoms: C_1  and  C_2
REMARK    2  A    between atoms: C_2  and  O_3
REMARK    3  A    between atoms: O_3  and  C_4
REMARK    4  A    between atoms: C_5  and  O_33
REMARK    5  A    between atoms: C_7  and  C_11
REMARK    6  A    between atoms: C_13  and  C_22
REMARK    7  A    between atoms: C_14  and  C_21
REMARK    8  A    between atoms: N_24  and  C_25
REMARK    9  A    between atoms: C_28  and  C_32
REMARK   10  A    between atoms: C_30  and  C_31
REMARK   11  A    between atoms: O_33  and  C_34
REMARK                            x       y       z     vdW  Elec       q    Type
REMARK                         _______ _______ _______ _____ _____    ______ ____
ROOT
ATOM      1  C   UNL     1       0.835  -6.534  -2.304  0.00  0.00    +0.179 C 
ATOM      2  C   UNL     1      -0.339  -7.002  -1.485  0.00  0.00    +0.060 C 
ATOM      3  C   UNL     1      -1.496  -7.408  -2.027  0.00  0.00    +0.018 C 
ATOM      4  N   UNL     1      -1.698  -7.441  -3.386  0.00  0.00    -0.286 N 
ATOM      5  C   UNL     1      -0.585  -7.286  -4.199  0.00  0.00    +0.240 A 
ATOM      6  N   UNL     1       0.610  -6.866  -3.706  0.00  0.00    -0.201 N 
ATOM      7  N   UNL     1       1.477  -6.840  -4.796  0.00  0.00    -0.042 NA
ATOM      8  N   UNL     1       0.787  -7.219  -5.824  0.00  0.00    -0.021 NA
ATOM      9  N   UNL     1      -0.427  -7.481  -5.478  0.00  0.00    -0.092 NA
ATOM     10  C   UNL     1      -2.613  -7.845  -1.115  0.00  0.00    +0.061 C 
ATOM     11  H   UNL     1      -2.583  -7.567  -3.762  0.00  0.00    +0.155 HD
ENDROOT
BRANCH   1  15
ATOM     12  C   UNL     1       1.261  -2.298  -1.895  0.00  0.00    +0.176 A 
ATOM     13  C   UNL     1       2.323  -3.139  -1.577  0.00  0.00    +0.163 A 
ATOM     14  C   UNL     1       2.181  -4.510  -1.710  0.00  0.00    +0.055 A 
ATOM     15  C   UNL     1       0.987  -5.042  -2.159  0.00  0.00    -0.014 A 
ATOM     16  C   UNL     1      -0.069  -4.207  -2.477  0.00  0.00    +0.025 A 
ATOM     17  C   UNL     1       0.064  -2.837  -2.339  0.00  0.00    +0.063 A 
ATOM     18 BR   UNL     1      -1.385  -1.700  -2.766  0.00  0.00    -0.046 Br
BRANCH  13  19
ATOM     19  O   UNL     1       3.498  -2.615  -1.135  0.00  0.00    -0.491 OA
ATOM     20  C   UNL     1       4.510  -3.539  -0.731  0.00  0.00    +0.277 C 
ENDBRANCH  13  19
BRANCH  12  21
ATOM     21  O   UNL     1       1.395  -0.951  -1.765  0.00  0.00    -0.487 OA
BRANCH  21  23
ATOM     22  C   UNL     1       1.261   1.132  -0.546  0.00  0.00    +0.048 C 
ATOM     23  C   UNL     1       1.046  -0.383  -0.501  0.00  0.00    +0.226 C 
ENDBRANCH  21  23
ENDBRANCH  12  21
ENDBRANCH   1  15
BRANCH   2  24
ATOM     24  C   UNL     1      -0.215  -7.013  -0.075  0.00  0.00    +0.248 C 
ATOM     25  O   UNL     1       0.410  -7.901   0.474  0.00  0.00    -0.270 OA
ATOM     26  N   UNL     1      -0.790  -6.039   0.659  0.00  0.00    -0.281 N 
ATOM     27  H   UNL     1      -1.345  -5.370   0.229  0.00  0.00    +0.155 HD
BRANCH  26  28
ATOM     28  C   UNL     1      -0.585  -5.994   2.042  0.00  0.00    +0.037 A 
ATOM     29  C   UNL     1       0.495  -6.659   2.608  0.00  0.00    +0.024 A 
ATOM     30  C   UNL     1       0.695  -6.612   3.973  0.00  0.00    +0.005 A 
ATOM     31  C   UNL     1      -0.179  -5.903   4.777  0.00  0.00    -0.050 A 
ATOM     32  C   UNL     1      -1.256  -5.240   4.217  0.00  0.00    +0.008 A 
ATOM     33  C   UNL     1      -1.458  -5.279   2.851  0.00  0.00    -0.029 A 
ATOM     34  C   UNL     1      -2.628  -4.551   2.241  0.00  0.00    +0.045 C 
ATOM     35  C   UNL     1       0.041  -5.854   6.267  0.00  0.00    +0.044 C 
ENDBRANCH  26  28
ENDBRANCH   2  24
TORSDOF 6
