REMARK  Name = ZINC10107116
REMARK  12 active torsions:
REMARK  status: ('A' for Active; 'I' for Inactive)
REMARK    1  A    between atoms: C_1  and  C_2
REMARK    2  A    between atoms: C_5  and  C_35
REMARK    3  A    between atoms: C_6  and  N_8
REMARK    4  A    between atoms: C_9  and  C_34
REMARK    5  A    between atoms: N_18  and  C_23
REMARK    6  A    between atoms: N_21  and  C_22
REMARK    7  A    between atoms: C_23  and  C_24
REMARK    8  A    between atoms: C_24  and  C_25
REMARK    9  A    between atoms: C_25  and  N_68
REMARK   10  A    between atoms: C_26  and  N_68
REMARK   11  A    between atoms: C_27  and  C_28
REMARK   12  A    between atoms: C_27  and  N_68
REMARK                            x       y       z     vdW  Elec       q    Type
REMARK                         _______ _______ _______ _____ _____    ______ ____
ROOT
ATOM      1  N   UNL     1       2.445   2.178   4.936  0.00  0.00    -0.282 N 
ATOM      2  C   UNL     1       1.813   2.624   6.083  0.00  0.00    +0.040 A 
ATOM      3  C   UNL     1       0.516   2.751   5.819  0.00  0.00    +0.116 A 
ATOM      4  N   UNL     1       0.300   2.389   4.501  0.00  0.00    -0.277 N 
ATOM      5  C   UNL     1       1.490   2.036   3.960  0.00  0.00    +0.223 A 
ATOM      6  N   UNL     1       1.309   1.684   2.696  0.00  0.00    -0.193 NA
ATOM      7  C   UNL     1       0.023   1.793   2.374  0.00  0.00    +0.170 A 
ATOM      8  C   UNL     1      -0.655   2.242   3.507  0.00  0.00    +0.157 A 
ATOM      9  C   UNL     1      -2.044   2.443   3.438  0.00  0.00    +0.283 A 
ATOM     10  O   UNL     1      -2.658   2.835   4.415  0.00  0.00    -0.265 OA
ATOM     11  N   UNL     1      -2.691   2.198   2.280  0.00  0.00    -0.259 N 
ATOM     12  C   UNL     1      -2.028   1.770   1.192  0.00  0.00    +0.333 A 
ATOM     13  O   UNL     1      -2.645   1.565   0.165  0.00  0.00    -0.246 OA
ATOM     14  N   UNL     1      -0.698   1.558   1.213  0.00  0.00    -0.279 N 
ATOM     15  C   UNL     1      -0.013   1.086   0.008  0.00  0.00    +0.155 C 
ATOM     16  C   UNL     1       2.479   2.915   7.403  0.00  0.00    +0.065 C 
ENDROOT
BRANCH   1  22
ATOM     17  C   UNL     1       6.961   3.756   3.799  0.00  0.00    +0.044 C 
ATOM     18  C   UNL     1       6.024   2.663   4.246  0.00  0.00    -0.048 A 
ATOM     19  C   UNL     1       6.517   1.401   4.519  0.00  0.00    +0.004 A 
ATOM     20  C   UNL     1       5.662   0.395   4.930  0.00  0.00    +0.005 A 
ATOM     21  C   UNL     1       4.312   0.651   5.075  0.00  0.00    -0.027 A 
ATOM     22  C   UNL     1       3.813   1.917   4.796  0.00  0.00    +0.053 A 
ATOM     23  C   UNL     1       4.675   2.924   4.383  0.00  0.00    +0.030 A 
ATOM     24  C   UNL     1       3.381  -0.444   5.529  0.00  0.00    +0.046 C 
ENDBRANCH   1  22
BRANCH  11  25
ATOM     25  C   UNL     1      -4.139   2.407   2.206  0.00  0.00    +0.128 C 
BRANCH  25  26
ATOM     26  C   UNL     1      -4.425   3.845   1.768  0.00  0.00    +0.003 C 
BRANCH  26  27
ATOM     27  C   UNL     1      -5.937   4.064   1.691  0.00  0.00    -0.077 C 
BRANCH  27  29
ATOM     28  C   UNL     1      -5.753   5.677  -0.106  0.00  0.00    -0.096 C 
ATOM     29  N   UNL     1      -6.197   5.462   1.288  0.00  0.00    +0.381 N 
ATOM     30  H   UNL     1      -5.670   6.090   1.906  0.00  0.00    -0.082 HD
BRANCH  29  31
ATOM     31  C   UNL     1      -7.638   5.764   1.412  0.00  0.00    -0.043 C 
BRANCH  31  32
ATOM     32  C   UNL     1      -7.844   7.243   1.210  0.00  0.00    -0.064 A 
ATOM     33  C   UNL     1      -7.787   8.102   2.292  0.00  0.00    +0.002 A 
ATOM     34  C   UNL     1      -7.971   9.460   2.107  0.00  0.00    +0.000 A 
ATOM     35  C   UNL     1      -8.222   9.957   0.841  0.00  0.00    +0.000 A 
ATOM     36  C   UNL     1      -8.284   9.097  -0.239  0.00  0.00    +0.000 A 
ATOM     37  C   UNL     1      -8.095   7.740  -0.055  0.00  0.00    +0.002 A 
ENDBRANCH  31  32
ENDBRANCH  29  31
ENDBRANCH  27  29
ENDBRANCH  26  27
ENDBRANCH  25  26
ENDBRANCH  11  25
TORSDOF 7
