REMARK  Name = ZINC13123795
REMARK  7 active torsions:
REMARK  status: ('A' for Active; 'I' for Inactive)
REMARK    1  A    between atoms: C_1  and  C_2
REMARK    2  A    between atoms: C_2  and  C_3
REMARK    3  A    between atoms: C_2  and  C_4
REMARK    4  A    between atoms: C_2  and  N_5
REMARK    5  A    between atoms: C_6  and  C_8
REMARK    6  A    between atoms: C_8  and  S_9
REMARK    7  A    between atoms: S_9  and  C_10
REMARK                            x       y       z     vdW  Elec       q    Type
REMARK                         _______ _______ _______ _____ _____    ______ ____
ROOT
ATOM      1  C   UNL     1       5.060  -0.637  -4.170  0.00  0.00    +0.274 C 
ATOM      2  N   UNL     1       4.428  -1.385  -5.029  0.00  0.00    -0.135 NA
ATOM      3  N   UNL     1       5.318  -1.685  -6.070  0.00  0.00    -0.202 N 
ATOM      4  C   UNL     1       6.484  -1.079  -5.774  0.00  0.00    +0.218 C 
ATOM      5  C   UNL     1       7.659  -1.113  -6.547  0.00  0.00    +0.061 C 
ATOM      6  C   UNL     1       8.890  -0.497  -6.260  0.00  0.00    +0.125 C 
ATOM      7  N   UNL     1       9.746  -0.757  -7.220  0.00  0.00    -0.254 NA
ATOM      8  C   UNL     1       9.209  -1.525  -8.184  0.00  0.00    +0.072 A 
ATOM      9  C   UNL     1       7.869  -1.805  -7.826  0.00  0.00    +0.014 A 
ATOM     10  C   UNL     1       7.075  -2.594  -8.654  0.00  0.00    +0.011 A 
ATOM     11  C   UNL     1       7.599  -3.099  -9.812  0.00  0.00    +0.001 A 
ATOM     12  C   UNL     1       8.915  -2.831 -10.169  0.00  0.00    +0.002 A 
ATOM     13  C   UNL     1       9.713  -2.053  -9.381  0.00  0.00    +0.028 A 
ATOM     14  O   UNL     1       6.318  -0.432  -4.609  0.00  0.00    -0.415 OA
ATOM     15  H   UNL     1       5.130  -2.225  -6.854  0.00  0.00    +0.178 HD
ENDROOT
BRANCH   1  16
ATOM     16  S   UNL     1       4.379   0.010  -2.680  0.00  0.00    -0.057 S 
BRANCH  16  17
ATOM     17  C   UNL     1       2.677  -0.618  -2.667  0.00  0.00    +0.174 C 
BRANCH  17  19
ATOM     18  N   UNL     1       0.688  -0.476  -1.203  0.00  0.00    -0.310 N 
ATOM     19  C   UNL     1       1.972  -0.132  -1.427  0.00  0.00    +0.224 C 
ATOM     20  O   UNL     1       2.559   0.569  -0.630  0.00  0.00    -0.275 OA
ATOM     21  H   UNL     1       0.218  -1.037  -1.840  0.00  0.00    +0.149 HD
BRANCH  18  23
ATOM     22  C   UNL     1      -0.019   1.526   0.010  0.00  0.00    +0.031 C 
ATOM     23  C   UNL     1       0.002  -0.004   0.002  0.00  0.00    +0.026 C 
ATOM     24  C   UNL     1       0.742  -0.511   1.242  0.00  0.00    +0.031 C 
ATOM     25  C   UNL     1      -1.433  -0.534   0.013  0.00  0.00    +0.031 C 
ENDBRANCH  18  23
ENDBRANCH  17  19
ENDBRANCH  16  17
ENDBRANCH   1  16
TORSDOF 4
