REMARK  Name = ZINC23468868
REMARK  10 active torsions:
REMARK  status: ('A' for Active; 'I' for Inactive)
REMARK    1  A    between atoms: C_4  and  C_7
REMARK    2  A    between atoms: C_7  and  C_9
REMARK    3  A    between atoms: C_7  and  N_18
REMARK    4  A    between atoms: C_9  and  C_10
REMARK    5  A    between atoms: C_10  and  C_12
REMARK    6  A    between atoms: N_21  and  C_24
REMARK    7  A    between atoms: C_24  and  C_26
REMARK    8  A    between atoms: C_24  and  C_35
REMARK    9  A    between atoms: C_26  and  C_27
REMARK   10  A    between atoms: C_27  and  C_29
REMARK                            x       y       z     vdW  Elec       q    Type
REMARK                         _______ _______ _______ _____ _____    ______ ____
ROOT
ATOM      1  N   UNL     1       6.035  -1.443  -1.435  0.00  0.00    +0.386 N 
ATOM      2  C   UNL     1       4.805  -2.151  -1.816  0.00  0.00    -0.062 C 
ATOM      3  C   UNL     1       4.986  -2.772  -3.204  0.00  0.00    +0.066 C 
ATOM      4  N   UNL     1       6.133  -3.689  -3.181  0.00  0.00    -0.299 NA
ATOM      5  C   UNL     1       7.363  -2.981  -2.800  0.00  0.00    +0.066 C 
ATOM      6  C   UNL     1       7.182  -2.361  -1.413  0.00  0.00    -0.062 C 
ATOM      7  H   UNL     1       6.232  -0.671  -2.194  0.00  0.00    -0.081 HD
ENDROOT
BRANCH   1   8
ATOM      8  C   UNL     1       5.874  -0.769  -0.140  0.00  0.00    -0.030 C 
BRANCH   8  12
ATOM      9  C   UNL     1       9.280   1.696   0.614  0.00  0.00    +0.000 A 
ATOM     10  C   UNL     1       8.713   0.968   1.643  0.00  0.00    +0.000 A 
ATOM     11  C   UNL     1       7.611   0.169   1.399  0.00  0.00    +0.002 A 
ATOM     12  C   UNL     1       7.076   0.101   0.126  0.00  0.00    -0.061 A 
ATOM     13  C   UNL     1       7.645   0.826  -0.903  0.00  0.00    +0.002 A 
ATOM     14  C   UNL     1       8.745   1.628  -0.658  0.00  0.00    +0.000 A 
ENDBRANCH   8  12
BRANCH   8  15
ATOM     15  C   UNL     1       4.613   0.097  -0.168  0.00  0.00    +0.069 C 
BRANCH  15  16
ATOM     16  C   UNL     1       4.348   0.643   1.211  0.00  0.00    +0.162 C 
ATOM     17  O   UNL     1       5.027   0.281   2.148  0.00  0.00    -0.292 OA
BRANCH  16  18
ATOM     18  C   UNL     1       3.264   1.616   1.421  0.00  0.00    +0.017 A 
ATOM     19  C   UNL     1       3.014   2.125   2.700  0.00  0.00    +0.011 A 
ATOM     20  C   UNL     1       1.996   3.036   2.889  0.00  0.00    +0.001 A 
ATOM     21  C   UNL     1       1.223   3.447   1.817  0.00  0.00    +0.000 A 
ATOM     22  C   UNL     1       1.464   2.948   0.548  0.00  0.00    +0.001 A 
ATOM     23  C   UNL     1       2.478   2.036   0.343  0.00  0.00    +0.011 A 
ENDBRANCH  16  18
ENDBRANCH  15  16
ENDBRANCH   8  15
ENDBRANCH   1   8
BRANCH   4  24
ATOM     24  C   UNL     1       6.294  -4.363  -4.477  0.00  0.00    +0.094 C 
BRANCH  24  25
ATOM     25  C   UNL     1       6.449  -3.331  -5.564  0.00  0.00    -0.030 A 
ATOM     26  C   UNL     1       5.332  -2.710  -6.091  0.00  0.00    +0.005 A 
ATOM     27  C   UNL     1       5.474  -1.760  -7.086  0.00  0.00    +0.000 A 
ATOM     28  C   UNL     1       6.732  -1.438  -7.559  0.00  0.00    +0.000 A 
ATOM     29  C   UNL     1       7.849  -2.063  -7.035  0.00  0.00    +0.000 A 
ATOM     30  C   UNL     1       7.707  -3.010  -6.038  0.00  0.00    +0.005 A 
ENDBRANCH  24  25
BRANCH  24  31
ATOM     31  C   UNL     1       5.060  -5.223  -4.761  0.00  0.00    +0.103 C 
BRANCH  31  32
ATOM     32  C   UNL     1       4.974  -6.330  -3.743  0.00  0.00    +0.165 C 
ATOM     33  O   UNL     1       5.817  -6.424  -2.876  0.00  0.00    -0.292 OA
BRANCH  32  34
ATOM     34  C   UNL     1       3.868  -7.299  -3.802  0.00  0.00    +0.017 A 
ATOM     35  C   UNL     1       2.892  -7.192  -4.797  0.00  0.00    +0.011 A 
ATOM     36  C   UNL     1       1.861  -8.107  -4.848  0.00  0.00    +0.001 A 
ATOM     37  C   UNL     1       1.786  -9.123  -3.912  0.00  0.00    +0.000 A 
ATOM     38  C   UNL     1       2.745  -9.233  -2.920  0.00  0.00    +0.001 A 
ATOM     39  C   UNL     1       3.785  -8.329  -2.859  0.00  0.00    +0.011 A 
ENDBRANCH  32  34
ENDBRANCH  31  32
ENDBRANCH  24  31
ENDBRANCH   4  24
TORSDOF 10
