REMARK  Name = ZINC42995870
REMARK  10 active torsions:
REMARK  status: ('A' for Active; 'I' for Inactive)
REMARK    1  A    between atoms: C_1  and  C_2
REMARK    2  A    between atoms: C_7  and  C_9
REMARK    3  A    between atoms: C_7  and  C_10
REMARK    4  A    between atoms: N_11  and  C_13
REMARK    5  A    between atoms: C_13  and  C_14
REMARK    6  A    between atoms: C_17  and  C_22
REMARK    7  A    between atoms: N_24  and  C_25
REMARK    8  A    between atoms: C_25  and  C_26
REMARK    9  A    between atoms: C_26  and  C_27
REMARK   10  A    between atoms: N_35  and  C_36
REMARK                            x       y       z     vdW  Elec       q    Type
REMARK                         _______ _______ _______ _____ _____    ______ ____
ROOT
ATOM      1  C   UNL     1       1.357  -2.435  -3.410  0.00  0.00    +0.003 A 
ATOM      2  C   UNL     1       2.713  -2.426  -3.364  0.00  0.00    +0.020 A 
ATOM      3  C   UNL     1       3.449  -2.058  -4.490  0.00  0.00    +0.020 A 
ATOM      4  C   UNL     1       2.770  -1.704  -5.654  0.00  0.00    +0.101 A 
ATOM      5  C   UNL     1       1.351  -1.730  -5.653  0.00  0.00    +0.261 A 
ATOM      6  O   UNL     1       0.733  -1.426  -6.659  0.00  0.00    -0.267 OA
ATOM      7  N   UNL     1       0.690  -2.098  -4.539  0.00  0.00    -0.327 N 
ATOM      8  H   UNL     1      -0.280  -2.118  -4.545  0.00  0.00    +0.169 HD
ENDROOT
BRANCH   4   9
ATOM      9  C   UNL     1       3.510  -1.310  -6.863  0.00  0.00    +0.249 C 
ATOM     10  O   UNL     1       4.720  -1.188  -6.822  0.00  0.00    -0.270 OA
ATOM     11  N   UNL     1       2.848  -1.085  -8.015  0.00  0.00    -0.311 N 
ATOM     12  H   UNL     1       1.879  -1.109  -8.030  0.00  0.00    +0.149 HD
BRANCH  11  13
ATOM     13  C   UNL     1       3.593  -0.802  -9.244  0.00  0.00    +0.112 C 
BRANCH  13  14
ATOM     14  C   UNL     1       2.611  -0.585 -10.397  0.00  0.00    +0.093 C 
BRANCH  14  15
ATOM     15  C   UNL     1       3.377  -0.295 -11.662  0.00  0.00    +0.112 A 
ATOM     16  N   UNL     1       3.731   0.892 -12.063  0.00  0.00    -0.232 NA
ATOM     17  C   UNL     1       4.405   0.794 -13.237  0.00  0.00    +0.089 A 
ATOM     18  C   UNL     1       4.997   1.730 -14.090  0.00  0.00    +0.030 A 
ATOM     19  C   UNL     1       5.619   1.313 -15.232  0.00  0.00    +0.002 A 
ATOM     20  C   UNL     1       5.672  -0.035 -15.558  0.00  0.00    +0.002 A 
ATOM     21  C   UNL     1       5.096  -0.976 -14.732  0.00  0.00    +0.028 A 
ATOM     22  C   UNL     1       4.459  -0.571 -13.566  0.00  0.00    +0.069 A 
ATOM     23  N   UNL     1       3.805  -1.234 -12.547  0.00  0.00    -0.331 N 
ATOM     24  C   UNL     1       3.606  -2.682 -12.441  0.00  0.00    +0.150 C 
ENDBRANCH  14  15
ENDBRANCH  13  14
ENDBRANCH  11  13
ENDBRANCH   4   9
BRANCH   1  25
ATOM     25  C   UNL     1       0.578  -2.835  -2.183  0.00  0.00    -0.024 C 
BRANCH  25  35
ATOM     26  C   UNL     1       0.037   1.512   0.047  0.00  0.00    +0.009 C 
ATOM     27  C   UNL     1       0.041  -0.024   0.026  0.00  0.00    -0.048 C 
ATOM     28  C   UNL     1      -1.393  -0.620   0.027  0.00  0.00    -0.011 C 
ATOM     29  C   UNL     1      -1.085  -2.021  -0.573  0.00  0.00    -0.067 C 
ATOM     30  C   UNL     1      -0.385  -2.837   0.495  0.00  0.00    -0.009 C 
ATOM     31  C   UNL     1       0.676  -2.139   1.317  0.00  0.00    -0.036 C 
ATOM     32  C   UNL     1       0.764  -0.629   1.230  0.00  0.00    +0.011 C 
ATOM     33  C   UNL     1       2.054  -2.742   0.984  0.00  0.00    +0.011 C 
ATOM     34  C   UNL     1       0.406  -2.492   2.803  0.00  0.00    +0.011 C 
ATOM     35  N   UNL     1      -0.196  -1.695  -1.706  0.00  0.00    +0.386 N 
ATOM     36  C   UNL     1       0.678  -0.593  -1.263  0.00  0.00    -0.071 C 
ATOM     37  H   UNL     1      -0.773  -1.349  -2.476  0.00  0.00    -0.081 HD
ENDBRANCH  25  35
ENDBRANCH   1  25
TORSDOF 6
