REMARK  Name = ZINC00284078
REMARK  8 active torsions:
REMARK  status: ('A' for Active; 'I' for Inactive)
REMARK    1  A    between atoms: C_1  and  C_2
REMARK    2  A    between atoms: C_3  and  C_20
REMARK    3  A    between atoms: C_4  and  C_11
REMARK    4  A    between atoms: N_9  and  C_10
REMARK    5  A    between atoms: C_20  and  O_22
REMARK    6  A    between atoms: O_22  and  C_23
REMARK    7  A    between atoms: C_23  and  C_24
REMARK    8  A    between atoms: C_23  and  C_25
REMARK                            x       y       z     vdW  Elec       q    Type
REMARK                         _______ _______ _______ _____ _____    ______ ____
ROOT
ATOM      1  C   UNL     1       1.058  -2.250  -0.022  0.00  0.00    +0.061 C 
ATOM      2  C   UNL     1       1.149  -0.746  -0.013  0.00  0.00    +0.024 C 
ATOM      3  C   UNL     1       2.362  -0.153  -0.022  0.00  0.00    +0.078 C 
ATOM      4  C   UNL     1       2.407   1.361  -0.014  0.00  0.00    +0.144 C 
ATOM      5  N   UNL     1       1.115   2.067   0.003  0.00  0.00    -0.288 N 
ATOM      6  C   UNL     1      -0.016   1.335   0.009  0.00  0.00    +0.307 C 
ATOM      7  O   UNL     1      -1.088   1.908   0.018  0.00  0.00    -0.252 OA
ATOM      8  N   UNL     1       0.002  -0.004   0.002  0.00  0.00    -0.262 N 
ATOM      9  C   UNL     1      -1.280  -0.713   0.011  0.00  0.00    +0.139 C 
ATOM     10  H   UNL     1       1.079   3.037   0.008  0.00  0.00    +0.151 HD
ENDROOT
BRANCH   4  11
ATOM     11  C   UNL     1       3.166   1.810  -1.236  0.00  0.00    -0.019 A 
ATOM     12  C   UNL     1       2.535   1.845  -2.466  0.00  0.00    +0.009 A 
ATOM     13  C   UNL     1       3.225   2.262  -3.588  0.00  0.00    +0.050 A 
ATOM     14  C   UNL     1       4.556   2.634  -3.486  0.00  0.00    +0.166 A 
ATOM     15  C   UNL     1       5.193   2.593  -2.249  0.00  0.00    +0.167 A 
ATOM     16  C   UNL     1       4.493   2.180  -1.126  0.00  0.00    +0.055 A 
ATOM     17  O   UNL     1       6.486   3.002  -2.410  0.00  0.00    -0.453 OA
ATOM     18  C   UNL     1       6.747   2.902  -3.822  0.00  0.00    +0.466 C 
ATOM     19  O   UNL     1       5.449   3.068  -4.423  0.00  0.00    -0.453 OA
ENDBRANCH   4  11
BRANCH   3  20
ATOM     20  C   UNL     1       3.550  -0.920  -0.037  0.00  0.00    +0.339 C 
ATOM     21  O   UNL     1       3.490  -2.136  -0.043  0.00  0.00    -0.245 OA
BRANCH  20  22
ATOM     22  O   UNL     1       4.751  -0.304  -0.046  0.00  0.00    -0.459 OA
BRANCH  22  23
ATOM     23  C   UNL     1       5.909  -1.141  -0.061  0.00  0.00    +0.171 C 
ATOM     24  C   UNL     1       7.047  -0.423  -0.790  0.00  0.00    +0.052 C 
ATOM     25  C   UNL     1       6.337  -1.447   1.376  0.00  0.00    +0.052 C 
ENDBRANCH  22  23
ENDBRANCH  20  22
ENDBRANCH   3  20
TORSDOF 4
