REMARK  Name = ZINC18995706
REMARK  8 active torsions:
REMARK  status: ('A' for Active; 'I' for Inactive)
REMARK    1  A    between atoms: N_9  and  C_31
REMARK    2  A    between atoms: C_10  and  C_12
REMARK    3  A    between atoms: C_12  and  C_13
REMARK    4  A    between atoms: C_13  and  C_14
REMARK    5  A    between atoms: C_14  and  O_16
REMARK    6  A    between atoms: O_16  and  C_17
REMARK    7  A    between atoms: C_17  and  C_18
REMARK    8  A    between atoms: N_20  and  C_21
REMARK                            x       y       z     vdW  Elec       q    Type
REMARK                         _______ _______ _______ _____ _____    ______ ____
ROOT
ATOM      1  C   UNL     1      -8.630   1.298   2.224  0.00  0.00    +0.308 C 
ATOM      2  O   UNL     1      -9.161   0.595   1.397  0.00  0.00    -0.251 OA
ENDROOT
BRANCH   1   3
ATOM      3  C   UNL     1      -9.359   1.649   3.495  0.00  0.00    +0.128 C 
BRANCH   3   4
ATOM      4  C   UNL     1     -10.741   0.993   3.488  0.00  0.00    +0.085 C 
BRANCH   4  14
ATOM      5  C   UNL     1     -12.743   3.153   9.160  0.00  0.00    +0.001 A 
ATOM      6  C   UNL     1     -11.459   3.612   8.893  0.00  0.00    +0.002 A 
ATOM      7  C   UNL     1     -10.818   3.274   7.723  0.00  0.00    +0.028 A 
ATOM      8  C   UNL     1     -11.464   2.459   6.791  0.00  0.00    +0.078 A 
ATOM      9  C   UNL     1     -12.769   1.993   7.066  0.00  0.00    +0.065 A 
ATOM     10  C   UNL     1     -13.401   2.348   8.256  0.00  0.00    +0.015 A 
ATOM     11  C   UNL     1     -13.421   1.137   6.064  0.00  0.00    +0.262 A 
ATOM     12  O   UNL     1     -14.545   0.702   6.239  0.00  0.00    -0.267 OA
ATOM     13  N   UNL     1     -12.726   0.856   4.937  0.00  0.00    -0.293 N 
ATOM     14  C   UNL     1     -11.471   1.344   4.759  0.00  0.00    +0.114 A 
ATOM     15  N   UNL     1     -10.870   2.101   5.625  0.00  0.00    -0.233 NA
BRANCH  13  16
ATOM     16  C   UNL     1     -13.331   0.012   3.903  0.00  0.00    +0.092 C 
ATOM     17  C   UNL     1     -14.032  -1.269   4.357  0.00  0.00    +0.027 C 
ATOM     18  C   UNL     1     -12.685  -1.349   3.635  0.00  0.00    +0.027 C 
ENDBRANCH  13  16
ENDBRANCH   4  14
ENDBRANCH   3   4
ENDBRANCH   1   3
BRANCH   1  19
ATOM     19  O   UNL     1      -7.390   1.766   2.011  0.00  0.00    -0.455 OA
BRANCH  19  20
ATOM     20  C   UNL     1      -6.748   1.388   0.765  0.00  0.00    +0.327 C 
BRANCH  20  21
ATOM     21  C   UNL     1      -5.373   2.002   0.702  0.00  0.00    +0.251 C 
ATOM     22  O   UNL     1      -4.974   2.691   1.617  0.00  0.00    -0.272 OA
ATOM     23  N   UNL     1      -4.587   1.786  -0.372  0.00  0.00    -0.307 N 
ATOM     24  H   UNL     1      -4.906   1.235  -1.104  0.00  0.00    +0.149 HD
BRANCH  23  25
ATOM     25  C   UNL     1      -3.251   2.383  -0.433  0.00  0.00    +0.035 C 
ATOM     26  C   UNL     1      -2.574   1.984  -1.746  0.00  0.00    +0.029 C 
ATOM     27  C   UNL     1      -1.178   2.608  -1.810  0.00  0.00    -0.008 C 
ATOM     28  C   UNL     1      -0.341   2.106  -0.632  0.00  0.00    +0.007 C 
ATOM     29  C   UNL     1      -1.018   2.505   0.681  0.00  0.00    -0.008 C 
ATOM     30  C   UNL     1      -2.413   1.881   0.745  0.00  0.00    +0.029 C 
ATOM     31  C   UNL     1      -1.136   4.029   0.751  0.00  0.00    +0.007 C 
ATOM     32  C   UNL     1      -1.973   4.530  -0.427  0.00  0.00    -0.008 C 
ATOM     33  C   UNL     1      -1.296   4.131  -1.740  0.00  0.00    +0.007 C 
ATOM     34  C   UNL     1      -3.369   3.907  -0.363  0.00  0.00    +0.029 C 
ENDBRANCH  23  25
ENDBRANCH  20  21
ENDBRANCH  19  20
ENDBRANCH   1  19
TORSDOF 8
