REMARK  Name = ZINC50865302
REMARK  6 active torsions:
REMARK  status: ('A' for Active; 'I' for Inactive)
REMARK    1  A    between atoms: C_1  and  C_2
REMARK    2  A    between atoms: C_2  and  C_3
REMARK    3  A    between atoms: C_2  and  C_4
REMARK    4  A    between atoms: C_6  and  N_20
REMARK    5  A    between atoms: C_8  and  C_10
REMARK    6  A    between atoms: N_20  and  C_21
REMARK                            x       y       z     vdW  Elec       q    Type
REMARK                         _______ _______ _______ _____ _____    ______ ____
ROOT
ATOM      1  C   UNL     1       0.731  -0.503   1.223  0.00  0.00    +0.049 A 
ATOM      2  C   UNL     1       2.109  -0.614   1.217  0.00  0.00    +0.067 A 
ATOM      3  C   UNL     1       2.745  -1.081   2.370  0.00  0.00    +0.123 A 
ATOM      4  N   UNL     1       2.008  -1.402   3.428  0.00  0.00    -0.213 NA
ATOM      5  C   UNL     1       0.688  -1.281   3.393  0.00  0.00    +0.162 A 
ATOM      6  N   UNL     1       0.059  -0.835   2.314  0.00  0.00    -0.232 NA
ENDROOT
BRANCH   5   7
ATOM      7  C   UNL     1      -0.103  -1.648   4.592  0.00  0.00    +0.024 A 
ATOM      8  C   UNL     1       0.541  -2.108   5.740  0.00  0.00    +0.061 A 
ATOM      9  C   UNL     1      -0.199  -2.450   6.856  0.00  0.00    +0.168 A 
ATOM     10  C   UNL     1      -1.588  -2.334   6.833  0.00  0.00    +0.184 A 
ATOM     11  C   UNL     1      -2.228  -1.875   5.690  0.00  0.00    +0.087 A 
ATOM     12  C   UNL     1      -1.492  -1.528   4.575  0.00  0.00    +0.035 A 
ATOM     13 CL   UNL     1      -3.958  -1.732   5.664  0.00  0.00    -0.080 Cl
ATOM     14  O   UNL     1      -2.078  -2.729   8.044  0.00  0.00    -0.451 OA
ATOM     15  C   UNL     1      -1.014  -3.473   8.666  0.00  0.00    +0.466 C 
ATOM     16  O   UNL     1       0.179  -2.917   8.082  0.00  0.00    -0.453 OA
ENDBRANCH   5   7
BRANCH   1  18
ATOM     17  C   UNL     1      -0.019   1.526   0.010  0.00  0.00    +0.014 C 
ATOM     18  C   UNL     1       0.002  -0.004   0.002  0.00  0.00    +0.032 C 
ATOM     19  C   UNL     1       0.718  -0.497  -1.257  0.00  0.00    +0.014 C 
ENDBRANCH   1  18
BRANCH   3  20
ATOM     20  N   UNL     1       4.124  -1.208   2.409  0.00  0.00    -0.332 N 
ATOM     21  C   UNL     1       4.926  -0.852   1.236  0.00  0.00    +0.127 C 
ATOM     22  H   UNL     1       4.559  -1.534   3.213  0.00  0.00    +0.147 HD
ENDBRANCH   3  20
TORSDOF 3
