REMARK  Name = ZINC65170511
REMARK  5 active torsions:
REMARK  status: ('A' for Active; 'I' for Inactive)
REMARK    1  A    between atoms: N_9  and  C_11
REMARK    2  A    between atoms: C_11  and  C_12
REMARK    3  A    between atoms: C_12  and  C_13
REMARK    4  A    between atoms: C_12  and  O_28
REMARK    5  A    between atoms: C_13  and  N_14
REMARK                            x       y       z     vdW  Elec       q    Type
REMARK                         _______ _______ _______ _____ _____    ______ ____
ROOT
ATOM      1  C   UNL     1       7.270  -2.822   0.894  0.00  0.00    +0.147 C 
ENDROOT
BRANCH   1   2
ATOM      2  N   UNL     1       8.264  -2.249   1.796  0.00  0.00    -0.222 N 
ATOM      3  C   UNL     1       8.994  -1.138   1.553  0.00  0.00    +0.247 C 
ATOM      4  O   UNL     1       8.766  -0.249   0.770  0.00  0.00    -0.273 OA
ATOM      5  C   UNL     1      10.201  -1.278   2.464  0.00  0.00    +0.113 C 
ATOM      6  C   UNL     1      11.227  -2.174   1.771  0.00  0.00    +0.035 C 
ATOM      7  C   UNL     1      12.608  -2.051   2.413  0.00  0.00    +0.003 C 
ATOM      8  C   UNL     1      12.762  -2.935   3.664  0.00  0.00    +0.000 C 
ATOM      9  C   UNL     1      12.024  -2.257   4.832  0.00  0.00    +0.000 C 
ATOM     10  C   UNL     1      12.304  -0.753   4.816  0.00  0.00    +0.000 C 
ATOM     11  C   UNL     1      11.064   0.040   4.421  0.00  0.00    +0.003 C 
ATOM     12  C   UNL     1      10.791   0.037   2.917  0.00  0.00    +0.035 C 
ATOM     13  N   UNL     1       9.541  -1.981   3.585  0.00  0.00    -0.285 N 
ATOM     14  C   UNL     1       8.564  -2.724   3.011  0.00  0.00    +0.309 C 
ATOM     15  O   UNL     1       8.039  -3.681   3.531  0.00  0.00    -0.252 OA
ATOM     16  H   UNL     1       9.656  -1.876   4.528  0.00  0.00    +0.151 HD
ENDBRANCH   1   2
BRANCH   1  17
ATOM     17  C   UNL     1       5.908  -2.179   1.160  0.00  0.00    +0.116 C 
BRANCH  17  18
ATOM     18  O   UNL     1       5.521  -2.425   2.513  0.00  0.00    -0.392 OA
ATOM     19  H   UNL     1       5.441  -3.363   2.735  0.00  0.00    +0.210 HD
ENDBRANCH  17  18
BRANCH  17  20
ATOM     20  C   UNL     1       4.866  -2.780   0.214  0.00  0.00    -0.045 C 
BRANCH  20  29
ATOM     21  C   UNL     1      -0.017   1.376   0.010  0.00  0.00    +0.000 A 
ATOM     22  C   UNL     1       1.173   2.080   0.002  0.00  0.00    +0.000 A 
ATOM     23  C   UNL     1       2.375   1.401  -0.015  0.00  0.00    +0.002 A 
ATOM     24  C   UNL     1       2.395   0.014  -0.023  0.00  0.00    -0.061 A 
ATOM     25  C   UNL     1       1.208  -0.687  -0.013  0.00  0.00    -0.048 A 
ATOM     26  C   UNL     1       0.002  -0.004   0.002  0.00  0.00    +0.004 A 
ATOM     27  C   UNL     1       1.186  -2.194  -0.014  0.00  0.00    +0.017 C 
ATOM     28  C   UNL     1       2.554  -2.732  -0.434  0.00  0.00    -0.074 C 
ATOM     29  N   UNL     1       3.587  -2.079   0.386  0.00  0.00    +0.384 N 
ATOM     30  C   UNL     1       3.728  -0.686  -0.046  0.00  0.00    -0.043 C 
ATOM     31  H   UNL     1       3.313  -2.106   1.357  0.00  0.00    -0.081 HD
ENDBRANCH  20  29
ENDBRANCH  17  20
ENDBRANCH   1  17
TORSDOF 5
