REMARK  Name = ZINC13109989
REMARK  6 active torsions:
REMARK  status: ('A' for Active; 'I' for Inactive)
REMARK    1  A    between atoms: C_6  and  S_7
REMARK    2  A    between atoms: S_7  and  N_10
REMARK    3  A    between atoms: C_14  and  C_16
REMARK    4  A    between atoms: N_18  and  N_19
REMARK    5  A    between atoms: C_20  and  C_22
REMARK    6  A    between atoms: C_22  and  C_23
REMARK                            x       y       z     vdW  Elec       q    Type
REMARK                         _______ _______ _______ _____ _____    ______ ____
ROOT
ATOM      1  C   UNL     1      -0.421   1.372   4.836  0.00  0.00    +0.248 C 
ATOM      2  O   UNL     1       0.576   0.688   4.934  0.00  0.00    -0.273 OA
ATOM      3  N   UNL     1      -0.897   1.698   3.618  0.00  0.00    -0.233 N 
ATOM      4  H   UNL     1      -1.694   2.245   3.540  0.00  0.00    +0.173 HD
ENDROOT
BRANCH   1   9
ATOM      5  N   UNL     1      -0.426   1.369   7.273  0.00  0.00    -0.165 NA
ATOM      6  C   UNL     1      -1.351   0.508   8.039  0.00  0.00    +0.110 C 
ATOM      7  C   UNL     1      -2.767   0.978   7.624  0.00  0.00    +0.019 C 
ATOM      8  C   UNL     1      -2.562   1.294   6.118  0.00  0.00    +0.031 C 
ATOM      9  C   UNL     1      -1.126   1.858   6.076  0.00  0.00    +0.167 C 
BRANCH   5  10
ATOM     10  S   UNL     1       1.136   1.725   7.691  0.00  0.00    +0.062 S 
ATOM     11  O   UNL     1       1.581   0.672   8.534  0.00  0.00    -0.153 OA
ATOM     12  O   UNL     1       1.808   2.074   6.488  0.00  0.00    -0.153 OA
BRANCH  10  18
ATOM     13  C   UNL     1       1.189   4.425   8.089  0.00  0.00    +0.030 A 
ATOM     14  C   UNL     1       1.149   5.567   8.866  0.00  0.00    +0.022 A 
ATOM     15  C   UNL     1       1.023   5.464  10.240  0.00  0.00    +0.041 A 
ATOM     16  C   UNL     1       0.931   4.218  10.835  0.00  0.00    +0.022 A 
ATOM     17  C   UNL     1       0.966   3.077  10.056  0.00  0.00    +0.030 A 
ATOM     18  C   UNL     1       1.092   3.181   8.683  0.00  0.00    +0.106 A 
ATOM     19 CL   UNL     1       0.979   6.898  11.218  0.00  0.00    -0.084 Cl
ENDBRANCH  10  18
ENDBRANCH   5  10
ENDBRANCH   1   9
BRANCH   3  20
ATOM     20  N   UNL     1      -0.242   1.246   2.466  0.00  0.00    -0.234 N 
ATOM     21  C   UNL     1      -0.718   1.572   1.248  0.00  0.00    +0.230 C 
ATOM     22  O   UNL     1      -1.714   2.256   1.150  0.00  0.00    -0.274 OA
ATOM     23  H   UNL     1       0.555   0.699   2.544  0.00  0.00    +0.173 HD
BRANCH  21  24
ATOM     24  C   UNL     1      -0.013   1.086   0.008  0.00  0.00    +0.104 C 
BRANCH  24  25
ATOM     25  C   UNL     1      -0.753   1.593  -1.232  0.00  0.00    -0.020 C 
ATOM     26  C   UNL     1      -0.773   3.123  -1.223  0.00  0.00    +0.011 C 
ATOM     27  C   UNL     1      -1.513   3.629  -2.463  0.00  0.00    -0.010 C 
ATOM     28  C   UNL     1      -0.797   3.136  -3.721  0.00  0.00    +0.007 C 
ATOM     29  C   UNL     1      -0.777   1.606  -3.730  0.00  0.00    -0.010 C 
ATOM     30  C   UNL     1      -0.037   1.099  -2.490  0.00  0.00    +0.011 C 
ATOM     31  C   UNL     1      -2.212   1.077  -3.719  0.00  0.00    +0.007 C 
ATOM     32  C   UNL     1      -2.928   1.570  -2.460  0.00  0.00    -0.010 C 
ATOM     33  C   UNL     1      -2.949   3.100  -2.452  0.00  0.00    +0.007 C 
ATOM     34  C   UNL     1      -2.188   1.063  -1.221  0.00  0.00    +0.011 C 
ENDBRANCH  24  25
ENDBRANCH  21  24
ENDBRANCH   3  20
TORSDOF 6
