REMARK  Name = ZINC60059041
REMARK  7 active torsions:
REMARK  status: ('A' for Active; 'I' for Inactive)
REMARK    1  A    between atoms: C_1  and  N_2
REMARK    2  A    between atoms: N_2  and  C_3
REMARK    3  A    between atoms: C_3  and  C_4
REMARK    4  A    between atoms: C_3  and  C_10
REMARK    5  A    between atoms: C_16  and  C_18
REMARK    6  A    between atoms: C_18  and  N_19
REMARK    7  A    between atoms: C_20  and  C_25
REMARK                            x       y       z     vdW  Elec       q    Type
REMARK                         _______ _______ _______ _____ _____    ______ ____
ROOT
ATOM      1  C   UNL     1      -1.300   0.418  -0.520  0.00  0.00    +0.133 C 
ATOM      2  N   UNL     1      -0.056  -0.218  -0.081  0.00  0.00    -0.292 N 
ATOM      3  C   UNL     1       0.956  -0.395  -0.954  0.00  0.00    +0.236 C 
ATOM      4  O   UNL     1       1.986  -0.922  -0.590  0.00  0.00    -0.274 OA
ENDROOT
BRANCH   2   5
ATOM      5  C   UNL     1       0.089  -0.663   1.307  0.00  0.00    +0.136 C 
BRANCH   5   6
ATOM      6  C   UNL     1       1.188   0.123   1.975  0.00  0.00    -0.023 A 
ATOM      7  C   UNL     1       1.264   1.492   1.797  0.00  0.00    +0.006 A 
ATOM      8  C   UNL     1       2.272   2.213   2.409  0.00  0.00    +0.000 A 
ATOM      9  C   UNL     1       3.203   1.565   3.200  0.00  0.00    +0.000 A 
ATOM     10  C   UNL     1       3.126   0.197   3.379  0.00  0.00    +0.000 A 
ATOM     11  C   UNL     1       2.115  -0.524   2.770  0.00  0.00    +0.006 A 
ENDBRANCH   5   6
BRANCH   5  12
ATOM     12  C   UNL     1      -1.207  -0.440   2.044  0.00  0.00    -0.023 A 
ATOM     13  C   UNL     1      -1.768   0.822   2.088  0.00  0.00    +0.006 A 
ATOM     14  C   UNL     1      -2.957   1.026   2.764  0.00  0.00    +0.000 A 
ATOM     15  C   UNL     1      -3.584  -0.032   3.394  0.00  0.00    +0.000 A 
ATOM     16  C   UNL     1      -3.023  -1.294   3.349  0.00  0.00    +0.000 A 
ATOM     17  C   UNL     1      -1.837  -1.500   2.670  0.00  0.00    +0.006 A 
ENDBRANCH   5  12
ENDBRANCH   2   5
BRANCH   3  18
ATOM     18  C   UNL     1       0.807   0.063  -2.382  0.00  0.00    +0.226 C 
BRANCH  18  19
ATOM     19  N   UNL     1       2.035  -0.240  -3.122  0.00  0.00    -0.248 N 
ATOM     20  C   UNL     1       3.129   0.595  -3.247  0.00  0.00    +0.192 A 
ATOM     21  N   UNL     1       4.029  -0.007  -3.973  0.00  0.00    -0.053 NA
ATOM     22  O   UNL     1       3.512  -1.275  -4.337  0.00  0.00    -0.295 OA
ATOM     23  C   UNL     1       2.289  -1.382  -3.791  0.00  0.00    +0.443 A 
ATOM     24  O   UNL     1       1.543  -2.338  -3.885  0.00  0.00    -0.221 OA
BRANCH  20  25
ATOM     25  C   UNL     1       3.256   1.939  -2.658  0.00  0.00    +0.058 A 
ATOM     26  C   UNL     1       4.302   2.824  -2.742  0.00  0.00    +0.019 A 
ATOM     27  C   UNL     1       4.194   4.036  -2.102  0.00  0.00    +0.008 A 
ATOM     28  C   UNL     1       3.060   4.321  -1.408  0.00  0.00    +0.046 A 
ATOM     29  S   UNL     1       2.088   2.845  -1.657  0.00  0.00    -0.094 S 
ENDBRANCH  20  25
ENDBRANCH  18  19
ENDBRANCH   3  18
TORSDOF 6
