REMARK  Name = ZINC19850488
REMARK  9 active torsions:
REMARK  status: ('A' for Active; 'I' for Inactive)
REMARK    1  A    between atoms: C_1  and  N_2
REMARK    2  A    between atoms: N_2  and  C_3
REMARK    3  A    between atoms: N_2  and  C_4
REMARK    4  A    between atoms: C_4  and  C_5
REMARK    5  A    between atoms: C_5  and  N_6
REMARK    6  A    between atoms: N_6  and  C_7
REMARK    7  A    between atoms: N_18  and  C_21
REMARK    8  A    between atoms: C_21  and  C_22
REMARK    9  A    between atoms: C_26  and  C_28
REMARK                            x       y       z     vdW  Elec       q    Type
REMARK                         _______ _______ _______ _____ _____    ______ ____
ROOT
ATOM      1  C   UNL     1       4.257  -0.120  -2.318  0.00  0.00    -0.067 C 
ATOM      2  C   UNL     1       4.949  -0.509  -3.628  0.00  0.00    -0.011 C 
ATOM      3  C   UNL     1       6.338   0.126  -3.689  0.00  0.00    +0.035 C 
ATOM      4  C   UNL     1       7.101  -0.229  -2.416  0.00  0.00    -0.023 A 
ATOM      5  C   UNL     1       6.439  -0.654  -1.314  0.00  0.00    -0.006 A 
ATOM      6  S   UNL     1       7.700  -0.945  -0.099  0.00  0.00    -0.073 S 
ATOM      7  C   UNL     1       9.106  -0.500  -1.067  0.00  0.00    +0.116 A 
ATOM      8  C   UNL     1       8.546  -0.136  -2.312  0.00  0.00    +0.076 A 
ATOM      9  C   UNL     1       9.457   0.284  -3.339  0.00  0.00    +0.263 A 
ATOM     10  O   UNL     1       9.075   0.619  -4.447  0.00  0.00    -0.267 OA
ATOM     11  N   UNL     1      10.767   0.286  -2.997  0.00  0.00    -0.294 N 
ATOM     12  C   UNL     1      11.212  -0.081  -1.771  0.00  0.00    +0.203 A 
ATOM     13  N   UNL     1      10.409  -0.472  -0.805  0.00  0.00    -0.230 NA
ATOM     14  C   UNL     1       4.960  -0.833  -1.155  0.00  0.00    +0.027 C 
ENDROOT
BRANCH   1  15
ATOM     15  N   UNL     1       2.846  -0.527  -2.366  0.00  0.00    +0.380 N 
ATOM     16  H   UNL     1       2.788  -1.533  -2.413  0.00  0.00    -0.086 HD
ATOM     17  H   UNL     1       2.408  -0.126  -3.181  0.00  0.00    -0.086 HD
BRANCH  15  18
ATOM     18  C   UNL     1       2.159  -0.053  -1.157  0.00  0.00    -0.101 C 
BRANCH  18  19
ATOM     19  C   UNL     1       0.690  -0.478  -1.207  0.00  0.00    -0.099 C 
BRANCH  19  21
ATOM     20  C   UNL     1      -0.018   1.465   0.010  0.00  0.00    -0.097 C 
ATOM     21  N   UNL     1       0.002  -0.004   0.002  0.00  0.00    +0.375 N 
ATOM     22  C   UNL     1      -1.376  -0.512   0.012  0.00  0.00    -0.097 C 
ATOM     23  H   UNL     1       0.490  -0.338   0.820  0.00  0.00    -0.083 HD
ENDBRANCH  19  21
ENDBRANCH  18  19
ENDBRANCH  15  18
ENDBRANCH   1  15
BRANCH  11  24
ATOM     24  C   UNL     1      11.750   0.704  -4.000  0.00  0.00    +0.161 C 
BRANCH  24  25
ATOM     25  C   UNL     1      11.969   2.192  -3.898  0.00  0.00    -0.027 A 
ATOM     26  C   UNL     1      11.184   3.058  -4.636  0.00  0.00    +0.005 A 
ATOM     27  C   UNL     1      11.384   4.422  -4.543  0.00  0.00    +0.001 A 
ATOM     28  C   UNL     1      12.371   4.921  -3.713  0.00  0.00    +0.012 A 
ATOM     29  C   UNL     1      13.156   4.055  -2.975  0.00  0.00    +0.055 A 
ATOM     30  C   UNL     1      12.952   2.691  -3.064  0.00  0.00    +0.017 A 
BRANCH  29  31
ATOM     31  C   UNL     1      14.231   4.598  -2.070  0.00  0.00    +0.417 C 
ATOM     32  F   UNL     1      14.242   5.995  -2.145  0.00  0.00    -0.166 F 
ATOM     33  F   UNL     1      13.974   4.205  -0.752  0.00  0.00    -0.166 F 
ATOM     34  F   UNL     1      15.475   4.099  -2.471  0.00  0.00    -0.166 F 
ENDBRANCH  29  31
ENDBRANCH  24  25
ENDBRANCH  11  24
TORSDOF 7
