REMARK  Name = ZINC63375423
REMARK  3 active torsions:
REMARK  status: ('A' for Active; 'I' for Inactive)
REMARK    1  A    between atoms: C_1  and  N_2
REMARK    2  A    between atoms: C_15  and  C_17
REMARK    3  A    between atoms: N_23  and  C_26
REMARK                            x       y       z     vdW  Elec       q    Type
REMARK                         _______ _______ _______ _____ _____    ______ ____
ROOT
ATOM      1  C   UNL     1       0.167   0.835   2.250  0.00  0.00    +0.101 A 
ATOM      2  H   UNL     1       1.275   0.688   5.290  0.00  0.00    +0.173 HD
ATOM      3  C   UNL     1       1.074   0.779   3.266  0.00  0.00    +0.263 A 
ATOM      4  N   UNL     1       0.633   0.728   4.564  0.00  0.00    -0.274 N 
ATOM      5  C   UNL     1      -0.685   0.733   4.836  0.00  0.00    +0.337 A 
ATOM      6  O   UNL     1      -1.058   0.687   5.993  0.00  0.00    -0.246 OA
ATOM      7  N   UNL     1      -1.596   0.788   3.848  0.00  0.00    -0.229 N 
ATOM      8  C   UNL     1      -1.205   0.845   2.559  0.00  0.00    +0.270 A 
ATOM      9  O   UNL     1      -2.034   0.900   1.668  0.00  0.00    -0.267 OA
ATOM     10  O   UNL     1       2.397   0.774   2.997  0.00  0.00    -0.267 OA
ENDROOT
BRANCH   1  24
ATOM     11  C   UNL     1       0.208   3.274   0.977  0.00  0.00    +0.105 C 
ATOM     12  N   UNL     1       0.042   2.069   0.153  0.00  0.00    -0.296 NA
ATOM     13  C   UNL     1       0.552   2.285  -1.203  0.00  0.00    +0.089 C 
ATOM     14  C   UNL     1       0.137   1.119  -2.120  0.00  0.00    +0.049 C 
ATOM     15  C   UNL     1       0.521  -0.145  -1.393  0.00  0.00    -0.035 C 
ATOM     16  C   UNL     1       1.194  -1.222  -1.770  0.00  0.00    -0.001 A 
ATOM     17  C   UNL     1       1.704  -1.653  -3.082  0.00  0.00    +0.010 A 
ATOM     18  C   UNL     1       2.388  -2.828  -3.103  0.00  0.00    +0.001 A 
ATOM     19  C   UNL     1       2.613  -3.608  -1.965  0.00  0.00    +0.002 A 
ATOM     20  C   UNL     1       2.172  -3.295  -0.721  0.00  0.00    +0.026 A 
ATOM     21  C   UNL     1       1.430  -2.087  -0.573  0.00  0.00    +0.043 A 
ATOM     22  N   UNL     1       0.873  -1.567   0.482  0.00  0.00    -0.376 N 
ATOM     23  C   UNL     1       0.157  -0.360   0.073  0.00  0.00    +0.128 C 
ATOM     24  C   UNL     1       0.627   0.892   0.816  0.00  0.00    +0.124 C 
ATOM     25  H   UNL     1       0.923  -1.919   1.384  0.00  0.00    +0.160 HD
ENDBRANCH   1  24
BRANCH   7  26
ATOM     26  C   UNL     1      -2.962   0.791   4.161  0.00  0.00    +0.054 A 
ATOM     27  C   UNL     1      -3.655  -0.408   4.263  0.00  0.00    +0.027 A 
ATOM     28  C   UNL     1      -5.001  -0.402   4.571  0.00  0.00    +0.017 A 
ATOM     29  C   UNL     1      -5.660   0.797   4.778  0.00  0.00    +0.018 A 
ATOM     30  C   UNL     1      -4.972   1.993   4.677  0.00  0.00    +0.017 A 
ATOM     31  C   UNL     1      -3.624   1.993   4.374  0.00  0.00    +0.027 A 
ATOM     32 BR   UNL     1      -7.503   0.801   5.200  0.00  0.00    -0.050 Br
ENDBRANCH   7  26
TORSDOF 2
