REMARK  Name = ZINC08387157
REMARK  10 active torsions:
REMARK  status: ('A' for Active; 'I' for Inactive)
REMARK    1  A    between atoms: C_1  and  C_2
REMARK    2  A    between atoms: C_2  and  C_3
REMARK    3  A    between atoms: C_6  and  O_9
REMARK    4  A    between atoms: O_9  and  C_10
REMARK    5  A    between atoms: C_10  and  C_11
REMARK    6  A    between atoms: C_11  and  C_13
REMARK    7  A    between atoms: C_11  and  O_39
REMARK    8  A    between atoms: C_13  and  N_14
REMARK    9  A    between atoms: N_22  and  C_38
REMARK   10  A    between atoms: N_26  and  N_27
REMARK                            x       y       z     vdW  Elec       q    Type
REMARK                         _______ _______ _______ _____ _____    ______ ____
ROOT
ATOM      1  N   UNL     1      -9.253  -3.676  -2.159  0.00  0.00    -0.302 N 
ATOM      2  C   UNL     1      -9.516  -5.025  -1.988  0.00  0.00    +0.153 A 
ATOM      3  C   UNL     1      -8.722  -6.188  -1.955  0.00  0.00    +0.280 A 
ATOM      4  O   UNL     1      -7.514  -6.113  -2.096  0.00  0.00    -0.265 OA
ATOM      5  N   UNL     1      -9.314  -7.385  -1.765  0.00  0.00    -0.273 N 
ATOM      6  H   UNL     1      -8.770  -8.188  -1.741  0.00  0.00    +0.173 HD
ATOM      7  C   UNL     1     -10.645  -7.483  -1.607  0.00  0.00    +0.331 A 
ATOM      8  O   UNL     1     -11.143  -8.579  -1.438  0.00  0.00    -0.246 OA
ATOM      9  N   UNL     1     -11.441  -6.397  -1.632  0.00  0.00    -0.280 N 
ATOM     10  C   UNL     1     -10.893  -5.138  -1.824  0.00  0.00    +0.170 A 
ATOM     11  N   UNL     1     -11.408  -3.911  -1.896  0.00  0.00    -0.195 NA
ATOM     12  C   UNL     1     -10.447  -3.031  -2.088  0.00  0.00    +0.218 A 
ATOM     13  N   UNL     1     -10.626  -1.668  -2.204  0.00  0.00    -0.206 N 
ATOM     14  C   UNL     1     -12.887  -6.546  -1.456  0.00  0.00    +0.155 C 
ATOM     15  H   UNL     1      -9.861  -1.089  -2.348  0.00  0.00    +0.177 HD
ENDROOT
BRANCH  13  16
ATOM     16  N   UNL     1     -11.810  -1.163  -2.121  0.00  0.00    -0.174 NA
ATOM     17  C   UNL     1     -11.980   0.134  -2.231  0.00  0.00    +0.153 C 
ATOM     18  C   UNL     1     -13.254   0.886  -2.156  0.00  0.00    +0.028 A 
ATOM     19  C   UNL     1     -14.576   0.503  -1.962  0.00  0.00    +0.012 A 
ATOM     20  C   UNL     1     -15.571   1.461  -1.941  0.00  0.00    +0.001 A 
ATOM     21  C   UNL     1     -15.251   2.797  -2.113  0.00  0.00    +0.002 A 
ATOM     22  C   UNL     1     -13.941   3.187  -2.307  0.00  0.00    +0.024 A 
ATOM     23  C   UNL     1     -12.926   2.237  -2.330  0.00  0.00    +0.043 A 
ATOM     24  N   UNL     1     -11.552   2.357  -2.504  0.00  0.00    -0.280 N 
ATOM     25  C   UNL     1     -10.944   1.160  -2.450  0.00  0.00    +0.269 C 
ATOM     26  O   UNL     1      -9.749   0.958  -2.564  0.00  0.00    -0.268 OA
ATOM     27  H   UNL     1     -11.090   3.199  -2.643  0.00  0.00    +0.155 HD
ENDBRANCH  13  16
BRANCH   1  28
ATOM     28  C   UNL     1      -7.939  -3.061  -2.369  0.00  0.00    +0.160 C 
BRANCH  28  29
ATOM     29  C   UNL     1      -7.321  -2.704  -1.015  0.00  0.00    +0.172 C 
BRANCH  29  30
ATOM     30  O   UNL     1      -8.113  -1.698  -0.381  0.00  0.00    -0.387 OA
ATOM     31  H   UNL     1      -8.185  -0.877  -0.887  0.00  0.00    +0.210 HD
ENDBRANCH  29  30
BRANCH  29  32
ATOM     32  C   UNL     1      -5.900  -2.178  -1.227  0.00  0.00    +0.262 C 
BRANCH  32  33
ATOM     33  O   UNL     1      -5.282  -1.955   0.042  0.00  0.00    -0.489 OA
BRANCH  33  37
ATOM     34  C   UNL     1      -1.412  -0.526   0.013  0.00  0.00    -0.047 A 
ATOM     35  C   UNL     1      -2.050  -0.766   1.216  0.00  0.00    +0.007 A 
ATOM     36  C   UNL     1      -3.346  -1.244   1.228  0.00  0.00    +0.046 A 
ATOM     37  C   UNL     1      -4.007  -1.484   0.032  0.00  0.00    +0.121 A 
ATOM     38  C   UNL     1      -3.365  -1.242  -1.173  0.00  0.00    +0.046 A 
ATOM     39  C   UNL     1      -2.071  -0.758  -1.180  0.00  0.00    +0.007 A 
BRANCH  34  41
ATOM     40  C   UNL     1      -0.019   1.526   0.010  0.00  0.00    +0.009 C 
ATOM     41  C   UNL     1       0.002  -0.004   0.002  0.00  0.00    +0.032 C 
ENDBRANCH  34  41
ENDBRANCH  33  37
ENDBRANCH  32  33
ENDBRANCH  29  32
ENDBRANCH  28  29
ENDBRANCH   1  28
TORSDOF 8
