REMARK  Name = ZINC13063928
REMARK  11 active torsions:
REMARK  status: ('A' for Active; 'I' for Inactive)
REMARK    1  A    between atoms: C_1  and  C_2
REMARK    2  A    between atoms: C_2  and  C_3
REMARK    3  A    between atoms: C_3  and  C_5
REMARK    4  A    between atoms: C_3  and  N_66
REMARK    5  A    between atoms: N_9  and  C_10
REMARK    6  A    between atoms: C_10  and  C_11
REMARK    7  A    between atoms: C_18  and  C_19
REMARK    8  A    between atoms: C_18  and  N_66
REMARK    9  A    between atoms: C_25  and  C_26
REMARK   10  A    between atoms: C_25  and  N_66
REMARK   11  A    between atoms: C_31  and  C_38
REMARK                            x       y       z     vdW  Elec       q    Type
REMARK                         _______ _______ _______ _____ _____    ______ ____
ROOT
ATOM      1  N   UNL     1       1.790   1.872  -0.082  0.00  0.00    +0.392 N 
ATOM      2  H   UNL     1       2.462   1.991   0.686  0.00  0.00    -0.080 HD
ENDROOT
BRANCH   1   3
ATOM      3  C   UNL     1       0.838   0.799   0.276  0.00  0.00    +0.003 C 
BRANCH   3   4
ATOM      4  C   UNL     1       0.558   0.877   1.755  0.00  0.00    +0.138 A 
ATOM      5  N   UNL     1       0.991   1.793   2.586  0.00  0.00    -0.115 NA
ATOM      6  N   UNL     1       0.536   1.513   3.758  0.00  0.00    -0.023 NA
ATOM      7  N   UNL     1      -0.169   0.438   3.698  0.00  0.00    -0.044 NA
ATOM      8  N   UNL     1      -0.179   0.015   2.479  0.00  0.00    -0.226 N 
BRANCH   8   9
ATOM      9  C   UNL     1      -0.864  -1.179   1.978  0.00  0.00    +0.182 C 
BRANCH   9  10
ATOM     10  C   UNL     1       0.063  -2.364   2.066  0.00  0.00    -0.026 A 
ATOM     11  C   UNL     1       0.886  -2.678   1.001  0.00  0.00    +0.008 A 
ATOM     12  C   UNL     1       1.740  -3.762   1.082  0.00  0.00    +0.038 A 
ATOM     13  C   UNL     1       1.763  -4.539   2.228  0.00  0.00    +0.123 A 
ATOM     14  C   UNL     1       0.935  -4.227   3.292  0.00  0.00    +0.038 A 
ATOM     15  C   UNL     1       0.086  -3.140   3.211  0.00  0.00    +0.008 A 
ATOM     16  F   UNL     1       2.594  -5.602   2.306  0.00  0.00    -0.205 F 
ENDBRANCH   9  10
ENDBRANCH   8   9
ENDBRANCH   3   4
BRANCH   3  18
ATOM     17  C   UNL     1      -0.179   0.943  -2.002  0.00  0.00    +0.002 C 
ATOM     18  C   UNL     1      -0.470   0.966  -0.500  0.00  0.00    -0.011 C 
ENDBRANCH   3  18
ENDBRANCH   1   3
BRANCH   1  19
ATOM     19  C   UNL     1       2.524   1.507  -1.311  0.00  0.00    -0.042 C 
BRANCH  19  20
ATOM     20  C   UNL     1       3.783   2.332  -1.384  0.00  0.00    -0.064 A 
ATOM     21  C   UNL     1       3.845   3.425  -2.228  0.00  0.00    +0.002 A 
ATOM     22  C   UNL     1       4.998   4.185  -2.291  0.00  0.00    +0.000 A 
ATOM     23  C   UNL     1       6.093   3.846  -1.518  0.00  0.00    +0.000 A 
ATOM     24  C   UNL     1       6.033   2.750  -0.679  0.00  0.00    +0.000 A 
ATOM     25  C   UNL     1       4.878   1.993  -0.611  0.00  0.00    +0.002 A 
ENDBRANCH  19  20
ENDBRANCH   1  19
BRANCH   1  26
ATOM     26  C   UNL     1       1.065   3.144  -0.285  0.00  0.00    -0.036 C 
BRANCH  26  27
ATOM     27  C   UNL     1       0.928   3.837   1.046  0.00  0.00    +0.001 A 
ATOM     28  C   UNL     1       1.837   4.773   1.416  0.00  0.00    +0.017 A 
ATOM     29  C   UNL     1       1.676   5.428   2.716  0.00  0.00    -0.001 A 
ATOM     30  C   UNL     1       2.581   6.401   3.152  0.00  0.00    +0.010 A 
ATOM     31  C   UNL     1       2.403   6.994   4.370  0.00  0.00    +0.004 A 
ATOM     32  C   UNL     1       1.331   6.640   5.178  0.00  0.00    -0.048 A 
ATOM     33  C   UNL     1       0.427   5.684   4.768  0.00  0.00    +0.029 A 
ATOM     34  C   UNL     1       0.588   5.066   3.532  0.00  0.00    +0.049 A 
ATOM     35  N   UNL     1      -0.302   4.107   3.097  0.00  0.00    -0.322 N 
ATOM     36  H   UNL     1      -1.051   3.859   3.661  0.00  0.00    +0.169 HD
ATOM     37  C   UNL     1      -0.149   3.515   1.899  0.00  0.00    +0.251 A 
ATOM     38  O   UNL     1      -0.957   2.675   1.545  0.00  0.00    -0.268 OA
ATOM     39  C   UNL     1       1.154   7.308   6.517  0.00  0.00    +0.044 C 
ENDBRANCH  26  27
ENDBRANCH   1  26
TORSDOF 9
