REMARK  Name = ZINC09461413
REMARK  13 active torsions:
REMARK  status: ('A' for Active; 'I' for Inactive)
REMARK    1  A    between atoms: C_1  and  C_2
REMARK    2  A    between atoms: C_2  and  C_3
REMARK    3  A    between atoms: C_3  and  C_4
REMARK    4  A    between atoms: C_4  and  N_5
REMARK    5  A    between atoms: N_5  and  C_6
REMARK    6  A    between atoms: C_7  and  N_19
REMARK    7  A    between atoms: N_8  and  C_15
REMARK    8  A    between atoms: C_15  and  C_16
REMARK    9  A    between atoms: C_16  and  C_17
REMARK   10  A    between atoms: C_16  and  C_18
REMARK   11  A    between atoms: C_20  and  C_22
REMARK   12  A    between atoms: C_22  and  N_23
REMARK   13  A    between atoms: C_32  and  C_34
REMARK                            x       y       z     vdW  Elec       q    Type
REMARK                         _______ _______ _______ _____ _____    ______ ____
ROOT
ATOM      1  N   UNL     1      -5.934   2.850   1.770  0.00  0.00    -0.263 N 
ATOM      2  C   UNL     1      -4.701   3.027   1.250  0.00  0.00    +0.237 C 
ATOM      3  O   UNL     1      -4.029   3.977   1.593  0.00  0.00    -0.274 OA
ENDROOT
BRANCH   1   4
ATOM      4  C   UNL     1      -6.479   3.819   2.639  0.00  0.00    +0.140 A 
ATOM      5  C   UNL     1      -5.907   4.057   3.872  0.00  0.00    +0.127 A 
ATOM      6  N   UNL     1      -6.461   5.009   4.696  0.00  0.00    -0.280 N 
ATOM      7  C   UNL     1      -7.547   5.700   4.305  0.00  0.00    +0.331 A 
ATOM      8  O   UNL     1      -8.022   6.537   5.049  0.00  0.00    -0.246 OA
ATOM      9  N   UNL     1      -8.118   5.481   3.107  0.00  0.00    -0.273 N 
ATOM     10  H   UNL     1      -8.927   6.005   2.842  0.00  0.00    +0.173 HD
ATOM     11  C   UNL     1      -7.611   4.564   2.260  0.00  0.00    +0.277 A 
ATOM     12  O   UNL     1      -8.133   4.377   1.174  0.00  0.00    -0.266 OA
BRANCH   5  13
ATOM     13  N   UNL     1      -4.798   3.352   4.272  0.00  0.00    -0.343 N 
ATOM     14  H   UNL     1      -4.370   2.733   3.659  0.00  0.00    +0.144 HD
ATOM     15  H   UNL     1      -4.442   3.472   5.166  0.00  0.00    +0.144 HD
ENDBRANCH   5  13
BRANCH   6  16
ATOM     16  C   UNL     1      -5.864   5.272   6.008  0.00  0.00    +0.131 C 
BRANCH  16  17
ATOM     17  C   UNL     1      -4.805   6.369   5.876  0.00  0.00    +0.003 C 
ATOM     18  C   UNL     1      -4.271   6.732   7.263  0.00  0.00    +0.009 C 
ATOM     19  C   UNL     1      -3.655   5.865   5.001  0.00  0.00    +0.009 C 
ENDBRANCH  16  17
ENDBRANCH   6  16
ENDBRANCH   1   4
BRANCH   1  20
ATOM     20  C   UNL     1      -6.706   1.652   1.433  0.00  0.00    +0.114 C 
BRANCH  20  21
ATOM     21  C   UNL     1      -6.487   0.585   2.507  0.00  0.00    +0.019 C 
BRANCH  21  23
ATOM     22  C   UNL     1      -7.075  -1.734   3.230  0.00  0.00    +0.004 C 
ATOM     23  C   UNL     1      -7.294  -0.667   2.155  0.00  0.00    -0.002 C 
ENDBRANCH  21  23
ENDBRANCH  20  21
ENDBRANCH   1  20
BRANCH   2  24
ATOM     24  C   UNL     1      -4.160   2.044   0.244  0.00  0.00    +0.201 C 
BRANCH  24  25
ATOM     25  N   UNL     1      -2.766   2.383  -0.071  0.00  0.00    -0.318 N 
ATOM     26  C   UNL     1      -2.674   3.660  -0.623  0.00  0.00    +0.034 A 
ATOM     27  C   UNL     1      -3.720   4.087  -1.443  0.00  0.00    +0.023 A 
ATOM     28  C   UNL     1      -3.686   5.337  -2.024  0.00  0.00    +0.002 A 
ATOM     29  C   UNL     1      -2.610   6.175  -1.795  0.00  0.00    +0.000 A 
ATOM     30  C   UNL     1      -1.574   5.759  -0.983  0.00  0.00    +0.005 A 
ATOM     31  C   UNL     1      -1.603   4.504  -0.394  0.00  0.00    -0.026 A 
ATOM     32  C   UNL     1      -0.445   4.107   0.488  0.00  0.00    +0.039 C 
ATOM     33  C   UNL     1      -0.471   2.594   0.720  0.00  0.00    +0.027 C 
ATOM     34  C   UNL     1      -1.904   2.200   1.099  0.00  0.00    +0.071 C 
ATOM     35  C   UNL     1      -1.934   0.735   1.539  0.00  0.00    +0.028 C 
ENDBRANCH  24  25
ENDBRANCH   2  24
TORSDOF 9
