REMARK  Name = ZINC60156050
REMARK  15 active torsions:
REMARK  status: ('A' for Active; 'I' for Inactive)
REMARK    1  A    between atoms: C_1  and  C_2
REMARK    2  A    between atoms: C_5  and  C_8
REMARK    3  A    between atoms: C_8  and  C_10
REMARK    4  A    between atoms: C_8  and  N_29
REMARK    5  A    between atoms: C_10  and  N_11
REMARK    6  A    between atoms: C_12  and  C_14
REMARK    7  A    between atoms: C_16  and  S_21
REMARK    8  A    between atoms: C_19  and  C_20
REMARK    9  A    between atoms: S_21  and  N_24
REMARK   10  A    between atoms: N_24  and  C_25
REMARK   11  A    between atoms: C_25  and  C_26
REMARK   12  A    between atoms: C_26  and  O_27
REMARK   13  A    between atoms: O_27  and  C_28
REMARK   14  A    between atoms: N_29  and  C_30
REMARK   15  A    between atoms: N_29  and  C_31
REMARK                            x       y       z     vdW  Elec       q    Type
REMARK                         _______ _______ _______ _____ _____    ______ ____
ROOT
ATOM      1  N   UNL     1       1.714  -6.415   1.262  0.00  0.00    -0.313 N 
ATOM      2  C   UNL     1       2.821  -7.180   1.334  0.00  0.00    +0.244 C 
ATOM      3  O   UNL     1       3.917  -6.658   1.393  0.00  0.00    -0.270 OA
ATOM      4  H   UNL     1       0.839  -6.831   1.215  0.00  0.00    +0.149 HD
ENDROOT
BRANCH   2   5
ATOM      5  C   UNL     1       2.702  -8.653   1.342  0.00  0.00    +0.041 A 
ATOM      6  C   UNL     1       1.443  -9.255   1.374  0.00  0.00    +0.041 A 
ATOM      7  C   UNL     1       1.339 -10.630   1.381  0.00  0.00    +0.106 A 
ATOM      8  C   UNL     1       2.480 -11.414   1.357  0.00  0.00    +0.029 A 
ATOM      9  C   UNL     1       3.731 -10.824   1.325  0.00  0.00    +0.006 A 
ATOM     10  C   UNL     1       3.848  -9.449   1.312  0.00  0.00    -0.038 A 
ATOM     11  C   UNL     1       5.212  -8.808   1.272  0.00  0.00    +0.044 C 
BRANCH   7  12
ATOM     12  S   UNL     1      -0.249 -11.392   1.421  0.00  0.00    +0.058 S 
ATOM     13  O   UNL     1      -0.064 -12.689   1.972  0.00  0.00    -0.153 OA
ATOM     14  O   UNL     1      -1.141 -10.443   1.990  0.00  0.00    -0.153 OA
BRANCH  12  15
ATOM     15  N   UNL     1      -0.728 -11.609  -0.149  0.00  0.00    -0.188 NA
ATOM     16  H   UNL     1      -1.501 -11.132  -0.490  0.00  0.00    +0.148 HD
BRANCH  15  17
ATOM     17  C   UNL     1       0.015 -12.521  -1.022  0.00  0.00    +0.134 C 
BRANCH  17  18
ATOM     18  C   UNL     1      -0.821 -12.830  -2.266  0.00  0.00    +0.176 C 
BRANCH  18  19
ATOM     19  O   UNL     1      -0.998 -11.635  -3.030  0.00  0.00    -0.382 OA
ATOM     20  C   UNL     1      -1.769 -11.815  -4.220  0.00  0.00    +0.194 C 
ENDBRANCH  18  19
ENDBRANCH  17  18
ENDBRANCH  15  17
ENDBRANCH  12  15
ENDBRANCH   7  12
ENDBRANCH   2   5
BRANCH   1  21
ATOM     21  C   UNL     1       1.831  -4.955   1.254  0.00  0.00    +0.094 C 
BRANCH  21  22
ATOM     22  C   UNL     1       0.435  -4.330   1.287  0.00  0.00    -0.021 C 
BRANCH  22  27
ATOM     23  C   UNL     1      -2.504  -5.926  -3.426  0.00  0.00    +0.044 C 
ATOM     24  C   UNL     1      -1.738  -5.510  -2.197  0.00  0.00    -0.050 A 
ATOM     25  C   UNL     1      -1.958  -6.154  -0.994  0.00  0.00    +0.003 A 
ATOM     26  C   UNL     1      -1.255  -5.772   0.134  0.00  0.00    +0.002 A 
ATOM     27  C   UNL     1      -0.331  -4.747   0.058  0.00  0.00    -0.059 A 
ATOM     28  C   UNL     1      -0.110  -4.103  -1.146  0.00  0.00    +0.002 A 
ATOM     29  C   UNL     1      -0.810  -4.488  -2.274  0.00  0.00    +0.003 A 
ENDBRANCH  22  27
BRANCH  22  30
ATOM     30  N   UNL     1       0.554  -2.866   1.317  0.00  0.00    +0.382 N 
ATOM     31  C   UNL     1      -0.784  -2.269   1.421  0.00  0.00    -0.096 C 
ATOM     32  C   UNL     1       1.361  -2.464   2.476  0.00  0.00    -0.096 C 
ATOM     33  H   UNL     1       1.000  -2.548   0.470  0.00  0.00    -0.082 HD
ENDBRANCH  22  30
ENDBRANCH  21  22
ENDBRANCH   1  21
TORSDOF 10
