REMARK  Name = ZINC45147664
REMARK  6 active torsions:
REMARK  status: ('A' for Active; 'I' for Inactive)
REMARK    1  A    between atoms: C_1  and  C_2
REMARK    2  A    between atoms: C_2  and  C_4
REMARK    3  A    between atoms: C_2  and  N_9
REMARK    4  A    between atoms: N_9  and  S_10
REMARK    5  A    between atoms: S_10  and  C_13
REMARK    6  A    between atoms: C_14  and  N_20
REMARK                            x       y       z     vdW  Elec       q    Type
REMARK                         _______ _______ _______ _____ _____    ______ ____
ROOT
ATOM      1  S   UNL     1      -2.207  -1.036   1.619  0.00  0.00    +0.064 S 
ATOM      2  O   UNL     1      -3.526  -1.344   1.188  0.00  0.00    -0.153 OA
ATOM      3  O   UNL     1      -1.452  -1.910   2.448  0.00  0.00    -0.153 OA
ENDROOT
BRANCH   1   4
ATOM      4  C   UNL     1      -2.302   0.505   2.469  0.00  0.00    +0.161 A 
ATOM      5  C   UNL     1      -1.278   0.892   3.324  0.00  0.00    +0.054 A 
ATOM      6  C   UNL     1      -1.357   2.108   3.991  0.00  0.00    +0.025 A 
ATOM      7  C   UNL     1      -2.451   2.930   3.803  0.00  0.00    +0.005 A 
ATOM      8  C   UNL     1      -3.469   2.543   2.951  0.00  0.00    +0.040 A 
ATOM      9  C   UNL     1      -3.393   1.334   2.280  0.00  0.00    +0.151 A 
ATOM     10  F   UNL     1      -4.387   0.962   1.444  0.00  0.00    -0.203 F 
BRANCH   5  11
ATOM     11  N   UNL     1      -0.173   0.060   3.514  0.00  0.00    -0.356 N 
ATOM     12  H   UNL     1      -0.046  -0.715   2.945  0.00  0.00    +0.142 HD
ATOM     13  H   UNL     1       0.468   0.257   4.215  0.00  0.00    +0.142 HD
ENDBRANCH   5  11
ENDBRANCH   1   4
BRANCH   1  14
ATOM     14  N   UNL     1      -1.308  -0.786   0.251  0.00  0.00    -0.180 NA
ATOM     15  H   UNL     1      -1.718  -0.882  -0.623  0.00  0.00    +0.149 HD
BRANCH  14  17
ATOM     16  C   UNL     1       0.248   1.101   0.290  0.00  0.00    +0.034 C 
ATOM     17  C   UNL     1       0.107  -0.421   0.361  0.00  0.00    +0.139 C 
BRANCH  17  18
ATOM     18  C   UNL     1       0.877  -1.050  -0.772  0.00  0.00    +0.123 A 
ATOM     19  C   UNL     1       2.098  -1.607  -0.679  0.00  0.00    +0.046 A 
ATOM     20  C   UNL     1       2.436  -2.069  -1.972  0.00  0.00    +0.041 A 
ATOM     21  C   UNL     1       1.402  -1.766  -2.777  0.00  0.00    +0.195 A 
ATOM     22  O   UNL     1       0.458  -1.154  -2.044  0.00  0.00    -0.466 OA
ENDBRANCH  17  18
ENDBRANCH  14  17
ENDBRANCH   1  14
TORSDOF 5
