REMARK  Name = ZINC39063818
REMARK  4 active torsions:
REMARK  status: ('A' for Active; 'I' for Inactive)
REMARK    1  A    between atoms: C_1  and  C_2
REMARK    2  A    between atoms: C_2  and  C_12
REMARK    3  A    between atoms: C_3  and  C_10
REMARK    4  A    between atoms: C_5  and  C_7
REMARK                            x       y       z     vdW  Elec       q    Type
REMARK                         _______ _______ _______ _____ _____    ______ ____
ROOT
ATOM      1  C   UNL     1      -0.019   1.526   0.010  0.00  0.00    +0.012 C 
ATOM      2  C   UNL     1       0.002  -0.004   0.002  0.00  0.00    -0.016 C 
ATOM      3  C   UNL     1       1.351  -0.691  -0.218  0.00  0.00    +0.030 C 
ATOM      4  C   UNL     1       0.701  -0.708   1.167  0.00  0.00    +0.088 C 
ATOM      5  C   UNL     1      -1.239  -0.678  -0.588  0.00  0.00    +0.012 C 
ENDROOT
BRANCH   4   6
ATOM      6  C   UNL     1       1.317   0.160   2.235  0.00  0.00    +0.215 C 
ATOM      7  O   UNL     1       1.247   1.367   2.150  0.00  0.00    -0.276 OA
ATOM      8  N   UNL     1       1.946  -0.407   3.284  0.00  0.00    -0.329 N 
ATOM      9  H   UNL     1       2.002  -1.373   3.351  0.00  0.00    +0.145 HD
ATOM     10  H   UNL     1       2.342   0.151   3.971  0.00  0.00    +0.145 HD
ENDBRANCH   4   6
BRANCH   3  11
ATOM     11  C   UNL     1       2.558   0.191  -0.410  0.00  0.00    -0.030 C 
ATOM     12  C   UNL     1       3.253   0.117  -1.518  0.00  0.00    +0.004 C 
ENDBRANCH   3  11
TORSDOF 2
