REMARK  Name = ZINC35744312
REMARK  8 active torsions:
REMARK  status: ('A' for Active; 'I' for Inactive)
REMARK    1  A    between atoms: C_1  and  C_2
REMARK    2  A    between atoms: C_2  and  C_3
REMARK    3  A    between atoms: C_3  and  N_4
REMARK    4  A    between atoms: C_5  and  C_7
REMARK    5  A    between atoms: C_7  and  N_8
REMARK    6  A    between atoms: N_10  and  C_30
REMARK    7  A    between atoms: N_21  and  C_22
REMARK    8  A    between atoms: C_25  and  C_28
REMARK                            x       y       z     vdW  Elec       q    Type
REMARK                         _______ _______ _______ _____ _____    ______ ____
ROOT
ATOM      1  N   UNL     1       2.065  -4.742   3.392  0.00  0.00    -0.275 N 
ATOM      2  C   UNL     1       3.490  -5.065   3.443  0.00  0.00    +0.217 C 
ATOM      3  N   UNL     1       3.839  -5.365   4.837  0.00  0.00    -0.300 N 
ATOM      4  C   UNL     1       2.597  -5.214   5.604  0.00  0.00    +0.115 C 
ATOM      5  C   UNL     1       1.527  -4.814   4.622  0.00  0.00    +0.241 C 
ATOM      6  O   UNL     1       0.366  -4.594   4.896  0.00  0.00    -0.273 OA
ATOM      7  C   UNL     1       2.767  -4.122   6.660  0.00  0.00    +0.054 C 
ATOM      8  C   UNL     1       3.896  -4.514   7.618  0.00  0.00    +0.112 C 
ATOM      9  N   UNL     1       3.613  -5.849   8.162  0.00  0.00    -0.285 N 
ATOM     10  C   UNL     1       3.357  -6.953   7.227  0.00  0.00    +0.112 C 
ATOM     11  C   UNL     1       2.232  -6.540   6.272  0.00  0.00    +0.054 C 
ATOM     12  C   UNL     1       3.589  -6.057   9.493  0.00  0.00    +0.306 C 
ATOM     13  O   UNL     1       3.712  -5.120  10.258  0.00  0.00    -0.252 OA
ATOM     14  N   UNL     1       3.429  -7.305   9.977  0.00  0.00    -0.269 N 
ATOM     15  H   UNL     1       3.405  -8.061   9.370  0.00  0.00    +0.156 HD
ENDROOT
BRANCH  14  16
ATOM     16  C   UNL     1       3.298  -7.508  11.352  0.00  0.00    +0.035 A 
ATOM     17  C   UNL     1       3.434  -6.437  12.228  0.00  0.00    +0.024 A 
ATOM     18  C   UNL     1       3.306  -6.634  13.585  0.00  0.00    +0.020 A 
ATOM     19  C   UNL     1       3.038  -7.913  14.081  0.00  0.00    +0.052 A 
ATOM     20  C   UNL     1       2.901  -8.987  13.197  0.00  0.00    +0.020 A 
ATOM     21  C   UNL     1       3.026  -8.782  11.841  0.00  0.00    +0.024 A 
BRANCH  19  22
ATOM     22  C   UNL     1       2.904  -8.122  15.491  0.00  0.00    +0.099 C 
ATOM     23  N   UNL     1       2.798  -8.288  16.610  0.00  0.00    -0.191 NA
ENDBRANCH  19  22
ENDBRANCH  14  16
BRANCH   3  24
ATOM     24  C   UNL     1       5.096  -5.723   5.332  0.00  0.00    +0.032 A 
ATOM     25  C   UNL     1       6.198  -5.741   4.487  0.00  0.00    +0.023 A 
ATOM     26  C   UNL     1       7.439  -6.094   4.979  0.00  0.00    +0.002 A 
ATOM     27  C   UNL     1       7.585  -6.429   6.313  0.00  0.00    +0.000 A 
ATOM     28  C   UNL     1       6.490  -6.412   7.157  0.00  0.00    +0.002 A 
ATOM     29  C   UNL     1       5.247  -6.055   6.673  0.00  0.00    +0.023 A 
ENDBRANCH   3  24
BRANCH   1  30
ATOM     30  C   UNL     1       1.330  -4.384   2.176  0.00  0.00    +0.205 C 
BRANCH  30  32
ATOM     31  N   UNL     1       0.775  -2.331   0.913  0.00  0.00    -0.314 N 
ATOM     32  C   UNL     1       1.387  -2.892   1.976  0.00  0.00    +0.230 C 
ATOM     33  O   UNL     1       1.982  -2.195   2.770  0.00  0.00    -0.274 OA
ATOM     34  H   UNL     1       0.299  -2.888   0.278  0.00  0.00    +0.149 HD
BRANCH  31  35
ATOM     35  C   UNL     1       0.830  -0.880   0.718  0.00  0.00    +0.104 C 
BRANCH  35  37
ATOM     36  C   UNL     1       0.120   1.008  -0.756  0.00  0.00    +0.005 C 
ATOM     37  C   UNL     1       0.063  -0.507  -0.552  0.00  0.00    +0.015 C 
ENDBRANCH  35  37
ENDBRANCH  31  35
ENDBRANCH  30  32
ENDBRANCH   1  30
TORSDOF 7
