REMARK  Name = ZINC08451241
REMARK  12 active torsions:
REMARK  status: ('A' for Active; 'I' for Inactive)
REMARK    1  A    between atoms: C_1  and  C_2
REMARK    2  A    between atoms: C_2  and  O_3
REMARK    3  A    between atoms: O_3  and  C_4
REMARK    4  A    between atoms: C_4  and  C_6
REMARK    5  A    between atoms: C_7  and  C_24
REMARK    6  A    between atoms: C_9  and  N_23
REMARK    7  A    between atoms: C_10  and  C_21
REMARK    8  A    between atoms: C_11  and  C_13
REMARK    9  A    between atoms: C_16  and  N_18
REMARK   10  A    between atoms: C_24  and  S_25
REMARK   11  A    between atoms: S_25  and  C_26
REMARK   12  A    between atoms: C_27  and  C_35
REMARK                            x       y       z     vdW  Elec       q    Type
REMARK                         _______ _______ _______ _____ _____    ______ ____
ROOT
ATOM      1  C   UNL     1      -1.479   6.078  -1.106  0.00  0.00    +0.088 C 
ATOM      2  C   UNL     1      -1.688   5.477   0.072  0.00  0.00    +0.128 C 
ATOM      3  O   UNL     1      -1.656   6.147   1.234  0.00  0.00    -0.444 OA
ATOM      4  C   UNL     1      -1.781   7.484   1.229  0.00  0.00    +0.198 C 
ATOM      5  C   UNL     1      -1.574   8.217   0.109  0.00  0.00    +0.099 C 
ATOM      6  C   UNL     1      -1.190   7.552  -1.186  0.00  0.00    +0.111 C 
ENDROOT
BRANCH   6   7
ATOM      7  C   UNL     1       0.280   7.762  -1.440  0.00  0.00    +0.005 A 
ATOM      8  C   UNL     1       0.887   8.383  -2.481  0.00  0.00    +0.014 A 
ATOM      9  C   UNL     1       2.267   8.457  -2.506  0.00  0.00    +0.041 A 
ATOM     10  C   UNL     1       2.973   7.907  -1.488  0.00  0.00    +0.164 A 
ATOM     11  S   UNL     1       1.676   7.263  -0.444  0.00  0.00    -0.068 S 
BRANCH  10  12
ATOM     12  N   UNL     1       4.439   7.859  -1.290  0.00  0.00    +0.063 N 
ATOM     13  O   UNL     1       5.182   8.363  -2.113  0.00  0.00    -0.126 OA
ATOM     14  O   UNL     1       4.903   7.316  -0.303  0.00  0.00    -0.126 OA
ENDBRANCH  10  12
ENDBRANCH   6   7
BRANCH   4  15
ATOM     15  N   UNL     1      -2.133   8.125   2.391  0.00  0.00    -0.328 N 
ATOM     16  H   UNL     1      -2.230   9.090   2.402  0.00  0.00    +0.145 HD
ATOM     17  H   UNL     1      -2.284   7.612   3.201  0.00  0.00    +0.145 HD
ENDBRANCH   4  15
BRANCH   1  18
ATOM     18  C   UNL     1      -1.531   5.313  -2.296  0.00  0.00    +0.339 C 
ATOM     19  O   UNL     1      -1.347   4.111  -2.256  0.00  0.00    -0.245 OA
BRANCH  18  20
ATOM     20  O   UNL     1      -1.784   5.917  -3.476  0.00  0.00    -0.462 OA
BRANCH  20  22
ATOM     21  C   UNL     1      -2.120   5.940  -5.869  0.00  0.00    +0.048 C 
ATOM     22  C   UNL     1      -1.822   5.084  -4.637  0.00  0.00    +0.229 C 
ENDBRANCH  20  22
ENDBRANCH  18  20
ENDBRANCH   1  18
BRANCH   5  23
ATOM     23  C   UNL     1      -1.723   9.640   0.157  0.00  0.00    +0.101 C 
ATOM     24  N   UNL     1      -1.841  10.770   0.195  0.00  0.00    -0.191 NA
ENDBRANCH   5  23
BRANCH   2  25
ATOM     25  C   UNL     1      -1.975   3.998   0.094  0.00  0.00    +0.150 C 
BRANCH  25  26
ATOM     26  S   UNL     1      -0.501   3.105   0.646  0.00  0.00    -0.097 S 
BRANCH  26  27
ATOM     27  C   UNL     1      -1.102   1.450   0.578  0.00  0.00    +0.115 A 
ATOM     28  C   UNL     1      -0.258   0.384   0.938  0.00  0.00    +0.084 A 
ATOM     29  C   UNL     1      -0.761  -0.919   0.875  0.00  0.00    +0.027 A 
ATOM     30  C   UNL     1      -2.071  -1.104   0.460  0.00  0.00    -0.025 A 
ATOM     31  C   UNL     1      -2.843  -0.007   0.121  0.00  0.00    +0.046 A 
ATOM     32  N   UNL     1      -2.344   1.217   0.190  0.00  0.00    -0.244 NA
ATOM     33  C   UNL     1      -4.225  -0.470  -0.295  0.00  0.00    +0.056 C 
ATOM     34  C   UNL     1      -4.349  -1.911   0.243  0.00  0.00    +0.011 C 
ATOM     35  C   UNL     1      -2.877  -2.373   0.296  0.00  0.00    +0.037 C 
BRANCH  28  36
ATOM     36  C   UNL     1       1.089   0.627   1.360  0.00  0.00    +0.102 C 
ATOM     37  N   UNL     1       2.157   0.821   1.694  0.00  0.00    -0.191 NA
ENDBRANCH  28  36
ENDBRANCH  26  27
ENDBRANCH  25  26
ENDBRANCH   2  25
TORSDOF 11
