REMARK  Name = ZINC16945136
REMARK  10 active torsions:
REMARK  status: ('A' for Active; 'I' for Inactive)
REMARK    1  A    between atoms: C_1  and  C_2
REMARK    2  A    between atoms: C_2  and  C_4
REMARK    3  A    between atoms: C_2  and  S_13
REMARK    4  A    between atoms: N_6  and  C_7
REMARK    5  A    between atoms: N_6  and  C_10
REMARK    6  A    between atoms: C_7  and  C_8
REMARK    7  A    between atoms: C_7  and  C_9
REMARK    8  A    between atoms: C_10  and  C_11
REMARK    9  A    between atoms: C_10  and  C_12
REMARK   10  A    between atoms: S_13  and  C_14
REMARK                            x       y       z     vdW  Elec       q    Type
REMARK                         _______ _______ _______ _____ _____    ______ ____
ROOT
ATOM      1  S   UNL     1      -1.550  -0.360  -0.097  0.00  0.00    -0.073 S 
ENDROOT
BRANCH   1   2
ATOM      2  C   UNL     1      -2.123   0.092  -1.701  0.00  0.00    +0.195 A 
ATOM      3  N   UNL     1      -1.294   0.674  -2.564  0.00  0.00    -0.189 NA
ATOM      4  C   UNL     1      -1.727   1.015  -3.773  0.00  0.00    +0.218 A 
ATOM      5  N   UNL     1      -2.988   0.775  -4.121  0.00  0.00    -0.181 NA
ATOM      6  C   UNL     1      -3.816   0.193  -3.258  0.00  0.00    +0.218 A 
ATOM      7  N   UNL     1      -3.382  -0.153  -2.051  0.00  0.00    -0.189 NA
ATOM      8  N   UNL     1      -5.125  -0.056  -3.619  0.00  0.00    -0.327 N 
ATOM      9  N   UNL     1      -0.868   1.619  -4.668  0.00  0.00    -0.327 N 
ATOM     10  H   UNL     1      -5.440   0.194  -4.502  0.00  0.00    +0.145 HD
ATOM     11  H   UNL     1      -5.729  -0.480  -2.990  0.00  0.00    +0.145 HD
ATOM     12  H   UNL     1       0.052   1.795  -4.415  0.00  0.00    +0.145 HD
ATOM     13  H   UNL     1      -1.183   1.868  -5.551  0.00  0.00    +0.145 HD
ENDBRANCH   1   2
BRANCH   1  15
ATOM     14  C   UNL     1       0.262   1.687  -0.199  0.00  0.00    +0.029 C 
ATOM     15  C   UNL     1       0.188   0.163  -0.088  0.00  0.00    +0.137 C 
BRANCH  15  16
ATOM     16  C   UNL     1       0.839  -0.280   1.197  0.00  0.00    +0.229 C 
ATOM     17  O   UNL     1       0.155  -0.551   2.161  0.00  0.00    -0.274 OA
ATOM     18  N   UNL     1       2.181  -0.373   1.274  0.00  0.00    -0.296 N 
BRANCH  18  19
ATOM     19  C   UNL     1       2.814  -0.803   2.524  0.00  0.00    +0.070 C 
ATOM     20  C   UNL     1       2.450   0.174   3.643  0.00  0.00    +0.028 C 
ATOM     21  C   UNL     1       2.321  -2.204   2.889  0.00  0.00    +0.028 C 
ENDBRANCH  18  19
BRANCH  18  22
ATOM     22  C   UNL     1       3.007  -0.044   0.110  0.00  0.00    +0.070 C 
ATOM     23  C   UNL     1       4.030   1.025   0.496  0.00  0.00    +0.028 C 
ATOM     24  C   UNL     1       3.738  -1.301  -0.367  0.00  0.00    +0.028 C 
ENDBRANCH  18  22
ENDBRANCH  15  16
ENDBRANCH   1  15
TORSDOF 5
