REMARK  Name = ZINC65063034
REMARK  7 active torsions:
REMARK  status: ('A' for Active; 'I' for Inactive)
REMARK    1  A    between atoms: C_4  and  C_7
REMARK    2  A    between atoms: C_9  and  C_12
REMARK    3  A    between atoms: C_15  and  C_17
REMARK    4  A    between atoms: N_19  and  C_20
REMARK    5  A    between atoms: C_20  and  C_21
REMARK    6  A    between atoms: C_21  and  C_22
REMARK    7  A    between atoms: C_22  and  N_23
REMARK                            x       y       z     vdW  Elec       q    Type
REMARK                         _______ _______ _______ _____ _____    ______ ____
ROOT
ATOM      1  C   UNL     1       6.349  -7.763  -0.134  0.00  0.00    +0.251 C 
ATOM      2  O   UNL     1       7.425  -8.333  -0.144  0.00  0.00    -0.270 OA
ATOM      3  N   UNL     1       5.207  -8.479  -0.138  0.00  0.00    -0.311 N 
ATOM      4  H   UNL     1       4.350  -8.025  -0.130  0.00  0.00    +0.149 HD
ENDROOT
BRANCH   1   8
ATOM      5  C   UNL     1       5.723  -3.660  -0.084  0.00  0.00    +0.060 A 
ATOM      6  C   UNL     1       7.051  -4.052  -0.093  0.00  0.00    +0.020 A 
ATOM      7  C   UNL     1       7.343  -5.388  -0.110  0.00  0.00    +0.021 A 
ATOM      8  C   UNL     1       6.296  -6.298  -0.117  0.00  0.00    +0.074 A 
ATOM      9  S   UNL     1       4.868  -5.227  -0.091  0.00  0.00    -0.080 S 
BRANCH   5  12
ATOM     10  C   UNL     1       3.695  -0.685  -0.038  0.00  0.00    +0.259 A 
ATOM     11  N   UNL     1       3.850  -1.988  -0.052  0.00  0.00    -0.187 NA
ATOM     12  C   UNL     1       5.159  -2.293  -0.066  0.00  0.00    +0.209 A 
ATOM     13  N   UNL     1       5.853  -1.179  -0.061  0.00  0.00    -0.055 NA
ATOM     14  O   UNL     1       4.913  -0.115  -0.048  0.00  0.00    -0.332 OA
BRANCH  10  18
ATOM     15  C   UNL     1      -0.017   1.379   0.010  0.00  0.00    +0.000 A 
ATOM     16  C   UNL     1       1.168   2.093   0.002  0.00  0.00    +0.001 A 
ATOM     17  C   UNL     1       2.377   1.429  -0.013  0.00  0.00    +0.013 A 
ATOM     18  C   UNL     1       2.403   0.034  -0.021  0.00  0.00    +0.039 A 
ATOM     19  C   UNL     1       1.204  -0.681  -0.013  0.00  0.00    +0.013 A 
ATOM     20  C   UNL     1       0.002  -0.004   0.002  0.00  0.00    +0.001 A 
ENDBRANCH  10  18
ENDBRANCH   5  12
ENDBRANCH   1   8
BRANCH   3  21
ATOM     21  C   UNL     1       5.261  -9.943  -0.155  0.00  0.00    +0.102 C 
BRANCH  21  22
ATOM     22  C   UNL     1       3.837 -10.505  -0.157  0.00  0.00    +0.000 C 
BRANCH  22  23
ATOM     23  C   UNL     1       3.893 -12.034  -0.174  0.00  0.00    -0.077 C 
BRANCH  23  24
ATOM     24  N   UNL     1       2.526 -12.573  -0.176  0.00  0.00    +0.383 N 
ATOM     25  C   UNL     1       2.576 -14.040  -0.084  0.00  0.00    -0.074 C 
ATOM     26  C   UNL     1       1.170 -14.558   0.222  0.00  0.00    +0.017 C 
ATOM     27  C   UNL     1       0.186 -13.966  -0.754  0.00  0.00    -0.048 A 
ATOM     28  C   UNL     1      -1.063 -14.555  -0.879  0.00  0.00    +0.004 A 
ATOM     29  C   UNL     1      -1.992 -14.039  -1.760  0.00  0.00    +0.000 A 
ATOM     30  C   UNL     1      -1.675 -12.930  -2.522  0.00  0.00    +0.000 A 
ATOM     31  C   UNL     1      -0.431 -12.344  -2.399  0.00  0.00    +0.002 A 
ATOM     32  C   UNL     1       0.504 -12.862  -1.516  0.00  0.00    -0.061 A 
ATOM     33  C   UNL     1       1.851 -12.196  -1.421  0.00  0.00    -0.043 C 
ATOM     34  H   UNL     1       2.016 -12.202   0.611  0.00  0.00    -0.081 HD
ENDBRANCH  23  24
ENDBRANCH  22  23
ENDBRANCH  21  22
ENDBRANCH   3  21
TORSDOF 7
