REMARK  Name = ZINC22502181
REMARK  5 active torsions:
REMARK  status: ('A' for Active; 'I' for Inactive)
REMARK    1  A    between atoms: C_1  and  C_2
REMARK    2  A    between atoms: C_2  and  C_3
REMARK    3  A    between atoms: C_2  and  C_4
REMARK    4  A    between atoms: C_6  and  C_10
REMARK    5  A    between atoms: C_16  and  C_18
REMARK                            x       y       z     vdW  Elec       q    Type
REMARK                         _______ _______ _______ _____ _____    ______ ____
ROOT
ATOM      1  C   UNL     1       5.763   5.227  -0.030  0.00  0.00    +0.203 A 
ATOM      2  N   UNL     1       7.061   5.015  -0.045  0.00  0.00    -0.125 NA
ATOM      3  N   UNL     1       7.298   3.750  -0.054  0.00  0.00    -0.120 NA
ATOM      4  C   UNL     1       6.175   3.094  -0.045  0.00  0.00    +0.219 A 
ATOM      5  N   UNL     1       5.133   3.989  -0.030  0.00  0.00    -0.184 N 
ATOM      6  N   UNL     1       3.853   3.451  -0.024  0.00  0.00    -0.155 NA
ATOM      7  C   UNL     1       3.662   2.156  -0.023  0.00  0.00    +0.135 A 
ATOM      8  S   UNL     1       5.335   1.530  -0.044  0.00  0.00    -0.026 S 
ENDROOT
BRANCH   7   9
ATOM      9  C   UNL     1       2.388   1.404  -0.014  0.00  0.00    +0.044 A 
ATOM     10  C   UNL     1       2.397   0.009  -0.021  0.00  0.00    +0.013 A 
ATOM     11  C   UNL     1       1.206  -0.686  -0.013  0.00  0.00    +0.001 A 
ATOM     12  C   UNL     1       0.002  -0.004   0.002  0.00  0.00    +0.003 A 
ATOM     13  C   UNL     1      -0.017   1.378   0.010  0.00  0.00    +0.039 A 
ATOM     14  C   UNL     1       1.170   2.088   0.002  0.00  0.00    +0.133 A 
ATOM     15  F   UNL     1       1.151   3.439   0.009  0.00  0.00    -0.205 F 
ENDBRANCH   7   9
BRANCH   1  18
ATOM     16  C   UNL     1       4.697   8.738  -0.173  0.00  0.00    +0.066 A 
ATOM     17  C   UNL     1       5.680   7.758  -0.304  0.00  0.00    +0.056 A 
ATOM     18  C   UNL     1       5.097   6.540  -0.017  0.00  0.00    +0.105 A 
ATOM     19  N   UNL     1       3.786   6.782   0.276  0.00  0.00    -0.274 N 
ATOM     20  H   UNL     1       3.117   5.948   0.532  0.00  0.00    +0.189 HD
ATOM     21  N   UNL     1       3.574   8.163   0.174  0.00  0.00    -0.178 NA
BRANCH  16  23
ATOM     22  C   UNL     1       5.429  10.857   0.887  0.00  0.00    +0.014 C 
ATOM     23  C   UNL     1       4.895  10.215  -0.396  0.00  0.00    +0.033 C 
ATOM     24  C   UNL     1       5.899  10.430  -1.530  0.00  0.00    +0.014 C 
ENDBRANCH  16  23
ENDBRANCH   1  18
TORSDOF 3
