REMARK  Name = ZINC04769544
REMARK  3 active torsions:
REMARK  status: ('A' for Active; 'I' for Inactive)
REMARK    1  A    between atoms: C_1  and  C_2
REMARK    2  A    between atoms: P_13  and  N_16
REMARK    3  A    between atoms: N_16  and  C_17
REMARK                            x       y       z     vdW  Elec       q    Type
REMARK                         _______ _______ _______ _____ _____    ______ ____
ROOT
ATOM      1  C   UNL     1       0.993  -4.486   2.538  0.00  0.00    +0.039 C 
ATOM      2  C   UNL     1       0.160  -4.247   1.278  0.00  0.00    +0.132 C 
ATOM      3  C   UNL     1       1.049  -4.395   0.041  0.00  0.00    +0.047 C 
ATOM      4  C   UNL     1       1.700  -5.780   0.062  0.00  0.00    +0.008 C 
ATOM      5  C   UNL     1       2.610  -5.940  -1.157  0.00  0.00    +0.001 C 
ATOM      6  C   UNL     1       1.778  -5.792  -2.432  0.00  0.00    +0.003 C 
ATOM      7  C   UNL     1       1.137  -4.404  -2.459  0.00  0.00    +0.032 C 
ATOM      8  C   UNL     1       0.229  -4.231  -1.239  0.00  0.00    +0.135 C 
ATOM      9  O   UNL     1      -0.328  -2.902  -1.276  0.00  0.00    -0.290 OA
ATOM     10  P   UNL     1      -1.173  -2.361   0.000  0.00  0.00    +0.427 P 
ATOM     11  O   UNL     1      -2.554  -2.891  -0.035  0.00  0.00    -0.236 OA
ATOM     12  O   UNL     1      -0.391  -2.918   1.311  0.00  0.00    -0.290 OA
ENDROOT
BRANCH  10  13
ATOM     13  N   UNL     1      -1.198  -0.721   0.009  0.00  0.00    -0.250 N 
ATOM     14  H   UNL     1      -2.045  -0.248   0.019  0.00  0.00    +0.158 HD
BRANCH  13  15
ATOM     15  C   UNL     1       0.002  -0.004   0.002  0.00  0.00    +0.056 A 
ATOM     16  C   UNL     1       1.216  -0.679  -0.013  0.00  0.00    +0.044 A 
ATOM     17  C   UNL     1       2.401   0.033  -0.021  0.00  0.00    +0.043 A 
ATOM     18  C   UNL     1       2.378   1.417  -0.013  0.00  0.00    +0.021 A 
ATOM     19  C   UNL     1       1.171   2.092   0.002  0.00  0.00    +0.023 A 
ATOM     20  C   UNL     1      -0.017   1.386   0.010  0.00  0.00    +0.062 A 
ATOM     21 CL   UNL     1      -1.531   2.234   0.021  0.00  0.00    -0.082 Cl
ATOM     22 CL   UNL     1       3.918  -0.810  -0.039  0.00  0.00    -0.083 Cl
ENDBRANCH  13  15
ENDBRANCH  10  13
TORSDOF 2
