REMARK  Name = ZINC10438683
REMARK  10 active torsions:
REMARK  status: ('A' for Active; 'I' for Inactive)
REMARK    1  A    between atoms: C_1  and  C_2
REMARK    2  A    between atoms: C_2  and  C_3
REMARK    3  A    between atoms: C_3  and  N_4
REMARK    4  A    between atoms: C_5  and  O_24
REMARK    5  A    between atoms: C_8  and  S_9
REMARK    6  A    between atoms: S_9  and  C_10
REMARK    7  A    between atoms: C_10  and  C_12
REMARK    8  A    between atoms: C_10  and  C_13
REMARK    9  A    between atoms: C_20  and  C_22
REMARK   10  A    between atoms: C_22  and  C_23
REMARK                            x       y       z     vdW  Elec       q    Type
REMARK                         _______ _______ _______ _____ _____    ______ ____
ROOT
ATOM      1  C   UNL     1      -1.337  -2.555   4.034  0.00  0.00    +0.137 C 
ATOM      2  C   UNL     1      -1.731  -2.041   5.420  0.00  0.00    +0.029 C 
ENDROOT
BRANCH   1   3
ATOM      3  C   UNL     1      -2.222  -3.716   3.659  0.00  0.00    +0.229 C 
ATOM      4  O   UNL     1      -3.164  -3.545   2.915  0.00  0.00    -0.274 OA
ATOM      5  N   UNL     1      -1.966  -4.945   4.151  0.00  0.00    -0.298 N 
ATOM      6  C   UNL     1      -0.762  -5.193   4.956  0.00  0.00    +0.108 C 
ATOM      7  C   UNL     1      -1.180  -5.837   6.282  0.00  0.00    +0.019 C 
ATOM      8  C   UNL     1      -2.014  -7.088   5.996  0.00  0.00    +0.003 C 
ATOM      9  C   UNL     1      -3.279  -6.696   5.230  0.00  0.00    +0.022 C 
ATOM     10  C   UNL     1      -2.888  -6.060   3.897  0.00  0.00    +0.076 C 
BRANCH  10  11
ATOM     11  C   UNL     1      -4.142  -5.538   3.192  0.00  0.00    +0.019 C 
ATOM     12  C   UNL     1      -5.118  -6.694   2.967  0.00  0.00    +0.006 C 
ENDBRANCH  10  11
ENDBRANCH   1   3
BRANCH   1  13
ATOM     13  S   UNL     1      -1.537  -1.225   2.816  0.00  0.00    -0.073 S 
BRANCH  13  18
ATOM     14  N   UNL     1      -0.115   1.175   2.684  0.00  0.00    -0.272 N 
ATOM     15  C   UNL     1       0.876   1.819   3.366  0.00  0.00    +0.317 A 
ATOM     16  N   UNL     1       1.247   1.054   4.361  0.00  0.00    -0.091 NA
ATOM     17  N   UNL     1       0.475  -0.114   4.320  0.00  0.00    -0.119 NA
ATOM     18  C   UNL     1      -0.347  -0.020   3.302  0.00  0.00    +0.195 A 
BRANCH  15  19
ATOM     19  O   UNL     1       1.388   3.039   3.065  0.00  0.00    -0.479 OA
ATOM     20  H   UNL     1       0.931   3.774   3.497  0.00  0.00    +0.295 HD
ENDBRANCH  15  19
BRANCH  14  21
ATOM     21  C   UNL     1      -0.813   1.681   1.499  0.00  0.00    +0.128 C 
BRANCH  21  23
ATOM     22  C   UNL     1      -0.798   1.761  -0.998  0.00  0.00    +0.005 C 
ATOM     23  C   UNL     1      -0.069   1.234   0.239  0.00  0.00    +0.018 C 
ENDBRANCH  21  23
ENDBRANCH  14  21
ENDBRANCH  13  18
ENDBRANCH   1  13
TORSDOF 7
