REMARK  Name = ZINC66771005
REMARK  4 active torsions:
REMARK  status: ('A' for Active; 'I' for Inactive)
REMARK    1  A    between atoms: C_1  and  C_2
REMARK    2  A    between atoms: C_2  and  C_3
REMARK    3  A    between atoms: C_6  and  C_8
REMARK    4  A    between atoms: C_14  and  C_16
REMARK                            x       y       z     vdW  Elec       q    Type
REMARK                         _______ _______ _______ _____ _____    ______ ____
ROOT
ATOM      1  C   UNL     1      -4.433  -1.648   1.646  0.00  0.00    +0.282 C 
ATOM      2  O   UNL     1      -5.494  -2.037   1.194  0.00  0.00    -0.267 OA
ATOM      3  N   UNL     1      -4.251  -1.586   2.980  0.00  0.00    -0.288 N 
ATOM      4  C   UNL     1      -3.025  -1.130   3.660  0.00  0.00    +0.109 C 
ATOM      5  C   UNL     1      -3.069  -1.806   5.053  0.00  0.00    +0.021 C 
ATOM      6  C   UNL     1      -4.585  -1.750   5.378  0.00  0.00    +0.029 C 
ATOM      7  C   UNL     1      -5.245  -1.957   3.998  0.00  0.00    +0.110 C 
ENDROOT
BRANCH   7   8
ATOM      8  C   UNL     1      -6.461  -1.076   3.872  0.00  0.00    +0.018 A 
ATOM      9  C   UNL     1      -6.380   0.118   3.180  0.00  0.00    +0.009 A 
ATOM     10  C   UNL     1      -7.494   0.929   3.063  0.00  0.00    +0.004 A 
ATOM     11  C   UNL     1      -8.692   0.548   3.637  0.00  0.00    +0.049 A 
ATOM     12  C   UNL     1      -8.780  -0.649   4.332  0.00  0.00    +0.162 A 
ATOM     13  C   UNL     1      -7.662  -1.467   4.444  0.00  0.00    +0.167 A 
ATOM     14  O   UNL     1      -7.730  -2.652   5.110  0.00  0.00    -0.485 OA
ATOM     15  C   UNL     1      -8.848  -2.834   5.987  0.00  0.00    +0.270 C 
ATOM     16  C   UNL     1     -10.117  -2.392   5.245  0.00  0.00    +0.270 C 
ATOM     17  O   UNL     1      -9.966  -1.008   4.895  0.00  0.00    -0.485 OA
ENDBRANCH   7   8
BRANCH   1  21
ATOM     18  C   UNL     1      -1.412  -0.526   0.013  0.00  0.00    +0.106 A 
ATOM     19  C   UNL     1      -2.159  -0.797  -1.080  0.00  0.00    +0.045 A 
ATOM     20  C   UNL     1      -3.404  -1.259  -0.625  0.00  0.00    +0.055 A 
ATOM     21  C   UNL     1      -3.353  -1.246   0.739  0.00  0.00    +0.190 A 
ATOM     22  O   UNL     1      -2.133  -0.802   1.107  0.00  0.00    -0.455 OA
BRANCH  18  24
ATOM     23  C   UNL     1      -0.019   1.526   0.010  0.00  0.00    +0.012 C 
ATOM     24  C   UNL     1       0.002  -0.004   0.002  0.00  0.00    +0.071 C 
ENDBRANCH  18  24
ENDBRANCH   1  21
TORSDOF 3
