REMARK  Name = ZINC52587108
REMARK  8 active torsions:
REMARK  status: ('A' for Active; 'I' for Inactive)
REMARK    1  A    between atoms: C_1  and  C_2
REMARK    2  A    between atoms: C_7  and  C_9
REMARK    3  A    between atoms: C_7  and  N_24
REMARK    4  A    between atoms: C_9  and  N_10
REMARK    5  A    between atoms: N_13  and  N_14
REMARK    6  A    between atoms: C_15  and  C_17
REMARK    7  A    between atoms: N_24  and  C_25
REMARK    8  A    between atoms: N_24  and  C_26
REMARK                            x       y       z     vdW  Elec       q    Type
REMARK                         _______ _______ _______ _____ _____    ______ ____
ROOT
ATOM      1  N   UNL     1       2.821  -1.812  -0.209  0.00  0.00    -0.300 N 
ATOM      2  C   UNL     1       3.509  -1.953  -1.359  0.00  0.00    +0.316 C 
ATOM      3  O   UNL     1       2.942  -2.340  -2.363  0.00  0.00    -0.251 OA
ATOM      4  N   UNL     1       4.825  -1.667  -1.397  0.00  0.00    -0.218 N 
ATOM      5  H   UNL     1       3.273  -1.504   0.592  0.00  0.00    +0.150 HD
ATOM      6  H   UNL     1       5.320  -1.768  -2.225  0.00  0.00    +0.174 HD
ENDROOT
BRANCH   4   7
ATOM      7  N   UNL     1       5.479  -1.222  -0.240  0.00  0.00    -0.229 N 
ATOM      8  C   UNL     1       6.795  -0.935  -0.278  0.00  0.00    +0.263 C 
ATOM      9  O   UNL     1       7.415  -1.062  -1.315  0.00  0.00    -0.269 OA
ATOM     10  H   UNL     1       4.983  -1.120   0.588  0.00  0.00    +0.173 HD
BRANCH   8  11
ATOM     11  C   UNL     1       7.484  -0.466   0.942  0.00  0.00    +0.073 A 
ATOM     12  C   UNL     1       6.775  -0.324   2.137  0.00  0.00    +0.016 A 
ATOM     13  C   UNL     1       7.424   0.114   3.272  0.00  0.00    +0.001 A 
ATOM     14  C   UNL     1       8.775   0.414   3.230  0.00  0.00    +0.003 A 
ATOM     15  C   UNL     1       9.485   0.277   2.052  0.00  0.00    +0.039 A 
ATOM     16  C   UNL     1       8.849  -0.167   0.907  0.00  0.00    +0.136 A 
ATOM     17  F   UNL     1       9.544  -0.307  -0.243  0.00  0.00    -0.205 F 
ENDBRANCH   8  11
ENDBRANCH   4   7
BRANCH   1  18
ATOM     18  C   UNL     1       1.390  -2.124  -0.168  0.00  0.00    +0.094 C 
BRANCH  18  24
ATOM     19  C   UNL     1       0.315   1.904   0.992  0.00  0.00    +0.007 C 
ATOM     20  C   UNL     1       0.182   0.424   0.627  0.00  0.00    -0.015 C 
ATOM     21  C   UNL     1      -1.290   0.013   0.691  0.00  0.00    +0.003 C 
ATOM     22  C   UNL     1      -1.422  -1.467   0.326  0.00  0.00    -0.001 C 
ATOM     23  C   UNL     1      -0.613  -2.310   1.314  0.00  0.00    -0.010 C 
ATOM     24  C   UNL     1       0.859  -1.899   1.249  0.00  0.00    -0.050 C 
ATOM     25  C   UNL     1       0.992  -0.419   1.614  0.00  0.00    -0.007 C 
BRANCH  24  26
ATOM     26  N   UNL     1       1.636  -2.708   2.197  0.00  0.00    +0.381 N 
ATOM     27  C   UNL     1       1.078  -2.551   3.547  0.00  0.00    -0.096 C 
ATOM     28  C   UNL     1       1.572  -4.122   1.802  0.00  0.00    -0.096 C 
ATOM     29  H   UNL     1       2.597  -2.401   2.193  0.00  0.00    -0.082 HD
ENDBRANCH  24  26
ENDBRANCH  18  24
ENDBRANCH   1  18
TORSDOF 5
