REMARK  Name = ZINC06566752
REMARK  7 active torsions:
REMARK  status: ('A' for Active; 'I' for Inactive)
REMARK    1  A    between atoms: C_1  and  N_2
REMARK    2  A    between atoms: C_9  and  C_17
REMARK    3  A    between atoms: C_10  and  C_11
REMARK    4  A    between atoms: C_17  and  C_19
REMARK    5  A    between atoms: C_19  and  S_20
REMARK    6  A    between atoms: S_20  and  C_21
REMARK    7  A    between atoms: C_23  and  N_28
REMARK                            x       y       z     vdW  Elec       q    Type
REMARK                         _______ _______ _______ _____ _____    ______ ____
ROOT
ATOM      1  C   UNL     1      -0.013   1.086   0.008  0.00  0.00    +0.149 C 
ATOM      2  N   UNL     1      -0.698   1.558   1.213  0.00  0.00    -0.342 N 
ATOM      3  C   UNL     1      -0.079   1.823   2.419  0.00  0.00    +0.050 A 
ATOM      4  C   UNL     1       1.246   1.738   2.837  0.00  0.00    +0.026 A 
ATOM      5  C   UNL     1       1.582   2.074   4.131  0.00  0.00    +0.002 A 
ATOM      6  C   UNL     1       0.611   2.499   5.026  0.00  0.00    +0.001 A 
ATOM      7  C   UNL     1      -0.706   2.590   4.631  0.00  0.00    +0.011 A 
ATOM      8  C   UNL     1      -1.060   2.253   3.326  0.00  0.00    +0.011 A 
ATOM      9  C   UNL     1      -2.337   2.235   2.590  0.00  0.00    +0.051 A 
ATOM     10  C   UNL     1      -2.035   1.804   1.300  0.00  0.00    +0.060 A 
ENDROOT
BRANCH  10  11
ATOM     11  C   UNL     1      -3.009   1.635   0.204  0.00  0.00    -0.001 A 
ATOM     12  C   UNL     1      -4.230   1.000   0.441  0.00  0.00    +0.010 A 
ATOM     13  C   UNL     1      -5.138   0.852  -0.587  0.00  0.00    +0.001 A 
ATOM     14  C   UNL     1      -4.835   1.319  -1.854  0.00  0.00    +0.000 A 
ATOM     15  C   UNL     1      -3.625   1.944  -2.098  0.00  0.00    +0.001 A 
ATOM     16  C   UNL     1      -2.711   2.105  -1.078  0.00  0.00    +0.010 A 
ENDBRANCH  10  11
BRANCH   9  17
ATOM     17  C   UNL     1      -3.610   2.589   3.090  0.00  0.00    +0.176 C 
ATOM     18  O   UNL     1      -4.585   2.527   2.368  0.00  0.00    -0.291 OA
BRANCH  17  19
ATOM     19  C   UNL     1      -3.759   3.043   4.519  0.00  0.00    +0.157 C 
BRANCH  19  20
ATOM     20  S   UNL     1      -5.497   3.422   4.854  0.00  0.00    -0.080 S 
BRANCH  20  21
ATOM     21  C   UNL     1      -5.383   3.912   6.543  0.00  0.00    +0.171 A 
ATOM     22  N   UNL     1      -6.482   4.281   7.184  0.00  0.00    -0.209 NA
ATOM     23  C   UNL     1      -6.433   4.656   8.459  0.00  0.00    +0.124 A 
ATOM     24  C   UNL     1      -5.205   4.658   9.118  0.00  0.00    +0.113 A 
ATOM     25  C   UNL     1      -4.075   4.265   8.412  0.00  0.00    +0.254 A 
ATOM     26  N   UNL     1      -4.200   3.897   7.141  0.00  0.00    -0.302 N 
ATOM     27  O   UNL     1      -2.861   4.252   9.014  0.00  0.00    -0.268 OA
ATOM     28  H   UNL     1      -3.307   3.578   6.585  0.00  0.00    +0.171 HD
BRANCH  23  29
ATOM     29  N   UNL     1      -7.587   5.040   9.123  0.00  0.00    -0.343 N 
ATOM     30  H   UNL     1      -7.538   5.350  10.178  0.00  0.00    +0.144 HD
ATOM     31  H   UNL     1      -8.553   5.036   8.596  0.00  0.00    +0.144 HD
ENDBRANCH  23  29
ENDBRANCH  20  21
ENDBRANCH  19  20
ENDBRANCH  17  19
ENDBRANCH   9  17
TORSDOF 6
