REMARK  Name = ZINC13946367
REMARK  5 active torsions:
REMARK  status: ('A' for Active; 'I' for Inactive)
REMARK    1  A    between atoms: C_1  and  O_2
REMARK    2  A    between atoms: O_2  and  C_3
REMARK    3  A    between atoms: C_4  and  C_14
REMARK    4  A    between atoms: N_16  and  C_17
REMARK    5  A    between atoms: C_18  and  C_25
REMARK                            x       y       z     vdW  Elec       q    Type
REMARK                         _______ _______ _______ _____ _____    ______ ____
ROOT
ATOM      1  C   UNL     1       1.385   2.860   2.578  0.00  0.00    +0.252 C 
ATOM      2  O   UNL     1       1.469   1.657   2.427  0.00  0.00    -0.270 OA
ATOM      3  N   UNL     1       2.352   3.526   3.239  0.00  0.00    -0.275 N 
ATOM      4  H   UNL     1       2.285   4.486   3.360  0.00  0.00    +0.156 HD
ENDROOT
BRANCH   1   6
ATOM      5  C   UNL     1      -0.787   2.890   1.346  0.00  0.00    +0.147 A 
ATOM      6  C   UNL     1       0.223   3.592   2.038  0.00  0.00    +0.080 A 
ATOM      7  C   UNL     1       0.134   4.964   2.208  0.00  0.00    +0.025 A 
ATOM      8  C   UNL     1      -0.975   5.653   1.697  0.00  0.00    -0.016 A 
ATOM      9  C   UNL     1      -1.101   7.046   1.858  0.00  0.00    +0.008 A 
ATOM     10  C   UNL     1      -2.189   7.687   1.351  0.00  0.00    +0.001 A 
ATOM     11  C   UNL     1      -3.184   6.984   0.674  0.00  0.00    +0.001 A 
ATOM     12  C   UNL     1      -3.098   5.637   0.500  0.00  0.00    +0.010 A 
ATOM     13  C   UNL     1      -1.989   4.939   1.008  0.00  0.00    -0.000 A 
ATOM     14  C   UNL     1      -1.872   3.548   0.844  0.00  0.00    +0.068 A 
ATOM     15 BR   UNL     1      -3.218   2.588  -0.074  0.00  0.00    -0.046 Br
BRANCH   5  17
ATOM     16  C   UNL     1      -0.013   1.086   0.008  0.00  0.00    +0.277 C 
ATOM     17  O   UNL     1      -0.682   1.547   1.184  0.00  0.00    -0.493 OA
ENDBRANCH   5  17
ENDBRANCH   1   6
BRANCH   3  18
ATOM     18  C   UNL     1       3.443   2.838   3.747  0.00  0.00    +0.085 A 
ATOM     19  C   UNL     1       4.529   3.342   4.442  0.00  0.00    +0.068 A 
ATOM     20  C   UNL     1       5.555   2.393   4.875  0.00  0.00    -0.023 A 
ATOM     21  C   UNL     1       5.327   1.111   4.534  0.00  0.00    -0.004 A 
ATOM     22  S   UNL     1       3.783   1.144   3.659  0.00  0.00    -0.077 S 
ATOM     23  C   UNL     1       6.424   0.198   5.011  0.00  0.00    +0.043 C 
ATOM     24  C   UNL     1       7.175   1.018   6.083  0.00  0.00    +0.010 C 
ATOM     25  C   UNL     1       6.878   2.464   5.638  0.00  0.00    +0.037 C 
BRANCH  19  26
ATOM     26  C   UNL     1       4.646   4.773   4.737  0.00  0.00    +0.244 C 
ATOM     27  O   UNL     1       4.180   5.221   5.769  0.00  0.00    -0.270 OA
ATOM     28  N   UNL     1       5.268   5.592   3.867  0.00  0.00    -0.325 N 
ATOM     29  H   UNL     1       5.639   5.235   3.045  0.00  0.00    +0.145 HD
ATOM     30  H   UNL     1       5.345   6.539   4.062  0.00  0.00    +0.145 HD
ENDBRANCH  19  26
ENDBRANCH   3  18
TORSDOF 4
