REMARK  Name = ZINC05043617
REMARK  4 active torsions:
REMARK  status: ('A' for Active; 'I' for Inactive)
REMARK    1  A    between atoms: C_1  and  C_2
REMARK    2  A    between atoms: C_12  and  C_14
REMARK    3  A    between atoms: C_19  and  C_30
REMARK    4  A    between atoms: C_22  and  C_25
REMARK                            x       y       z     vdW  Elec       q    Type
REMARK                         _______ _______ _______ _____ _____    ______ ____
ROOT
ATOM      1  C   UNL     1       1.030  -0.710   3.514  0.00  0.00    +0.149 A 
ATOM      2  C   UNL     1       0.640  -0.655   4.871  0.00  0.00    +0.078 A 
ATOM      3  C   UNL     1       1.647  -1.171   5.605  0.00  0.00    +0.119 A 
ATOM      4  N   UNL     1       2.647  -1.542   4.752  0.00  0.00    -0.238 N 
ATOM      5  N   UNL     1       2.234  -1.250   3.453  0.00  0.00    -0.164 NA
ATOM      6  C   UNL     1       3.910  -2.141   5.193  0.00  0.00    +0.215 C 
ATOM      7  C   UNL     1       4.113  -1.833   6.681  0.00  0.00    +0.066 C 
ATOM      8  C   UNL     1       2.846  -2.192   7.465  0.00  0.00    +0.140 C 
ATOM      9  N   UNL     1       1.741  -1.338   6.989  0.00  0.00    -0.319 N 
ATOM     10  H   UNL     1       1.117  -0.917   7.601  0.00  0.00    +0.148 HD
ENDROOT
BRANCH   1  21
ATOM     11  C   UNL     1       1.692  -2.696   1.232  0.00  0.00    +0.029 C 
ATOM     12  C   UNL     1       1.850  -1.252   0.754  0.00  0.00    +0.083 C 
ATOM     13  C   UNL     1       1.927  -1.204  -0.781  0.00  0.00    +0.059 C 
ATOM     14  C   UNL     1       0.737  -0.367  -1.195  0.00  0.00    -0.024 A 
ATOM     15  C   UNL     1       0.291   0.018  -2.445  0.00  0.00    +0.005 A 
ATOM     16  C   UNL     1      -0.844   0.798  -2.567  0.00  0.00    +0.000 A 
ATOM     17  C   UNL     1      -1.532   1.193  -1.435  0.00  0.00    +0.002 A 
ATOM     18  C   UNL     1      -1.091   0.812  -0.186  0.00  0.00    +0.024 A 
ATOM     19  C   UNL     1       0.054   0.023  -0.054  0.00  0.00    +0.040 A 
ATOM     20  N   UNL     1       0.665  -0.467   1.106  0.00  0.00    -0.263 N 
ATOM     21  C   UNL     1       0.227  -0.250   2.362  0.00  0.00    +0.271 C 
ATOM     22  O   UNL     1      -0.828   0.325   2.548  0.00  0.00    -0.268 OA
ENDBRANCH   1  21
BRANCH   8  23
ATOM     23  C   UNL     1       2.504  -3.642   7.239  0.00  0.00    +0.125 A 
ATOM     24  C   UNL     1       2.772  -4.655   8.082  0.00  0.00    +0.046 A 
ATOM     25  C   UNL     1       2.281  -5.834   7.476  0.00  0.00    +0.041 A 
ATOM     26  C   UNL     1       1.742  -5.471   6.298  0.00  0.00    +0.195 A 
ATOM     27  O   UNL     1       1.875  -4.141   6.162  0.00  0.00    -0.466 OA
ENDBRANCH   8  23
BRANCH   6  28
ATOM     28  C   UNL     1       5.067  -1.552   4.383  0.00  0.00    +0.412 C 
ATOM     29  F   UNL     1       5.033  -0.157   4.468  0.00  0.00    -0.168 F 
ATOM     30  F   UNL     1       6.281  -2.022   4.895  0.00  0.00    -0.168 F 
ATOM     31  F   UNL     1       4.944  -1.941   3.045  0.00  0.00    -0.168 F 
ENDBRANCH   6  28
TORSDOF 3
