REMARK  Name = ZINC50892961
REMARK  8 active torsions:
REMARK  status: ('A' for Active; 'I' for Inactive)
REMARK    1  A    between atoms: C_1  and  C_2
REMARK    2  A    between atoms: C_2  and  C_3
REMARK    3  A    between atoms: C_3  and  C_4
REMARK    4  A    between atoms: N_7  and  C_10
REMARK    5  A    between atoms: C_10  and  C_12
REMARK    6  A    between atoms: C_10  and  C_18
REMARK    7  A    between atoms: C_18  and  C_20
REMARK    8  A    between atoms: C_18  and  N_21
REMARK                            x       y       z     vdW  Elec       q    Type
REMARK                         _______ _______ _______ _____ _____    ______ ____
ROOT
ATOM      1  C   UNL     1      -2.306  -6.021   1.355  0.00  0.00    +0.079 C 
ENDROOT
BRANCH   1   5
ATOM      2  C   UNL     1      -0.683  -2.176   0.423  0.00  0.00    -0.009 C 
ATOM      3  C   UNL     1      -0.076  -2.994   1.567  0.00  0.00    +0.019 C 
ATOM      4  C   UNL     1      -0.450  -4.467   1.389  0.00  0.00    +0.085 C 
ATOM      5  N   UNL     1      -1.912  -4.606   1.386  0.00  0.00    -0.296 NA
ATOM      6  C   UNL     1      -2.513  -3.868   0.268  0.00  0.00    +0.085 C 
ATOM      7  C   UNL     1      -2.201  -2.377   0.413  0.00  0.00    +0.019 C 
BRANCH   2   8
ATOM      8  C   UNL     1      -0.364  -0.694   0.629  0.00  0.00    +0.003 C 
BRANCH   8  10
ATOM      9  C   UNL     1       1.466   1.005   0.721  0.00  0.00    +0.004 C 
ATOM     10  C   UNL     1       1.147  -0.477   0.515  0.00  0.00    -0.003 C 
ENDBRANCH   8  10
ENDBRANCH   2   8
ENDBRANCH   1   5
BRANCH   1  11
ATOM     11  C   UNL     1      -1.702  -6.685   0.145  0.00  0.00    +0.006 A 
ATOM     12  C   UNL     1      -1.002  -7.843   0.068  0.00  0.00    +0.028 A 
ATOM     13  C   UNL     1      -0.537  -8.265  -1.164  0.00  0.00    +0.025 A 
ATOM     14  C   UNL     1      -0.796  -7.507  -2.258  0.00  0.00    +0.060 A 
ATOM     15  S   UNL     1      -1.729  -6.155  -1.559  0.00  0.00    -0.099 S 
ATOM     16 BR   UNL     1       0.445  -9.873  -1.321  0.00  0.00    -0.050 Br
ENDBRANCH   1  11
BRANCH   1  17
ATOM     17  C   UNL     1      -3.831  -6.123   1.285  0.00  0.00    -0.056 C 
ATOM     18  C   UNL     1      -4.445  -5.449   2.513  0.00  0.00    -0.012 C 
BRANCH  17  19
ATOM     19  N   UNL     1      -4.226  -7.538   1.254  0.00  0.00    +0.381 N 
ATOM     20  H   UNL     1      -3.896  -7.997   2.090  0.00  0.00    -0.090 HD
ATOM     21  H   UNL     1      -5.232  -7.606   1.208  0.00  0.00    -0.090 HD
ATOM     22  H   UNL     1      -3.821  -7.983   0.444  0.00  0.00    -0.090 HD
ENDBRANCH  17  19
ENDBRANCH   1  17
TORSDOF 6
