REMARK  Name = ZINC29515868
REMARK  4 active torsions:
REMARK  status: ('A' for Active; 'I' for Inactive)
REMARK    1  A    between atoms: C_1  and  C_2
REMARK    2  A    between atoms: C_5  and  C_28
REMARK    3  A    between atoms: C_10  and  C_12
REMARK    4  A    between atoms: N_15  and  C_17
REMARK                            x       y       z     vdW  Elec       q    Type
REMARK                         _______ _______ _______ _____ _____    ______ ____
ROOT
ATOM      1  C   UNL     1       5.128  -2.107   0.417  0.00  0.00    +0.151 A 
ATOM      2  C   UNL     1       5.675  -1.198  -0.504  0.00  0.00    +0.006 A 
ATOM      3  C   UNL     1       4.712  -0.271  -0.732  0.00  0.00    +0.049 A 
ATOM      4  N   UNL     1       3.645  -0.612   0.024  0.00  0.00    -0.236 N 
ATOM      5  N   UNL     1       3.903  -1.686   0.687  0.00  0.00    -0.161 NA
ATOM      6  C   UNL     1       4.880   0.907  -1.656  0.00  0.00    +0.056 C 
ATOM      7  C   UNL     1       6.376   1.090  -1.940  0.00  0.00    +0.006 C 
ATOM      8  C   UNL     1       6.988  -0.249  -2.360  0.00  0.00    +0.005 C 
ATOM      9  C   UNL     1       7.033  -1.194  -1.151  0.00  0.00    +0.039 C 
ENDROOT
BRANCH   1  17
ATOM     10  C   UNL     1       6.075  -3.953   4.525  0.00  0.00    +0.009 C 
ATOM     11  C   UNL     1       5.460  -5.217   3.922  0.00  0.00    +0.004 C 
ATOM     12  C   UNL     1       3.942  -5.191   4.119  0.00  0.00    +0.009 C 
ATOM     13  C   UNL     1       3.361  -3.941   3.454  0.00  0.00    +0.004 C 
ATOM     14  C   UNL     1       3.653  -3.984   1.951  0.00  0.00    +0.111 C 
ATOM     15  N   UNL     1       5.099  -4.155   1.755  0.00  0.00    -0.296 N 
ATOM     16  C   UNL     1       5.774  -5.278   2.419  0.00  0.00    +0.111 C 
ATOM     17  C   UNL     1       5.792  -3.301   0.975  0.00  0.00    +0.267 C 
ATOM     18  O   UNL     1       6.964  -3.515   0.732  0.00  0.00    -0.268 OA
ATOM     19  C   UNL     1       1.849  -3.899   3.680  0.00  0.00    +0.009 C 
ENDBRANCH   1  17
BRANCH   4  20
ATOM     20  C   UNL     1       2.436   0.095   0.075  0.00  0.00    +0.066 A 
ATOM     21  C   UNL     1       1.937   0.702  -1.069  0.00  0.00    +0.030 A 
ATOM     22  C   UNL     1       0.745   1.398  -1.016  0.00  0.00    +0.040 A 
ATOM     23  C   UNL     1       0.048   1.491   0.177  0.00  0.00    +0.124 A 
ATOM     24  C   UNL     1       0.544   0.885   1.319  0.00  0.00    +0.040 A 
ATOM     25  C   UNL     1       1.735   0.189   1.271  0.00  0.00    +0.030 A 
ATOM     26  F   UNL     1      -1.115   2.177   0.227  0.00  0.00    -0.205 F 
ENDBRANCH   4  20
TORSDOF 2
