REMARK  Name = ZINC11121930
REMARK  5 active torsions:
REMARK  status: ('A' for Active; 'I' for Inactive)
REMARK    1  A    between atoms: C_3  and  C_9
REMARK    2  A    between atoms: C_6  and  C_7
REMARK    3  A    between atoms: C_15  and  C_17
REMARK    4  A    between atoms: N_20  and  S_23
REMARK    5  A    between atoms: S_23  and  C_26
REMARK                            x       y       z     vdW  Elec       q    Type
REMARK                         _______ _______ _______ _____ _____    ______ ____
ROOT
ATOM      1  C   UNL     1      -0.625  10.872   7.097  0.00  0.00    +0.080 A 
ATOM      2  C   UNL     1       0.466  11.606   6.716  0.00  0.00    +0.076 A 
ATOM      3  S   UNL     1       1.294  10.437   5.646  0.00  0.00    -0.060 S 
ATOM      4  C   UNL     1       0.115   9.104   5.815  0.00  0.00    +0.165 A 
ATOM      5  N   UNL     1      -0.773   9.640   6.631  0.00  0.00    -0.225 NA
ATOM      6  N   UNL     1       0.128   7.841   5.236  0.00  0.00    -0.264 N 
ATOM      7  C   UNL     1       1.136   7.486   4.416  0.00  0.00    +0.222 C 
ATOM      8  O   UNL     1       2.033   8.268   4.184  0.00  0.00    -0.275 OA
ATOM      9  H   UNL     1      -0.590   7.216   5.422  0.00  0.00    +0.157 HD
ENDROOT
BRANCH   1  12
ATOM     10  C   UNL     1      -3.674  11.228   9.251  0.00  0.00    +0.019 A 
ATOM     11  C   UNL     1      -2.741  10.694   8.400  0.00  0.00    +0.011 A 
ATOM     12  C   UNL     1      -1.632  11.450   8.016  0.00  0.00    +0.001 A 
ATOM     13  C   UNL     1      -1.468  12.748   8.502  0.00  0.00    +0.011 A 
ATOM     14  C   UNL     1      -2.402  13.287   9.349  0.00  0.00    +0.019 A 
ATOM     15  C   UNL     1      -3.514  12.530   9.734  0.00  0.00    +0.052 A 
BRANCH  15  16
ATOM     16  C   UNL     1      -4.487  13.089  10.624  0.00  0.00    +0.099 C 
ATOM     17  N   UNL     1      -5.259  13.533  11.329  0.00  0.00    -0.191 NA
ENDBRANCH  15  16
ENDBRANCH   1  12
BRANCH   7  18
ATOM     18  C   UNL     1       1.149   6.116   3.788  0.00  0.00    +0.078 C 
ATOM     19  C   UNL     1       2.394   5.970   2.909  0.00  0.00    +0.030 C 
ATOM     20  C   UNL     1       2.422   4.565   2.300  0.00  0.00    +0.110 C 
ATOM     21  N   UNL     1       1.154   4.329   1.596  0.00  0.00    -0.177 NA
ATOM     22  C   UNL     1      -0.107   4.535   2.322  0.00  0.00    +0.110 C 
ATOM     23  C   UNL     1      -0.106   5.935   2.932  0.00  0.00    +0.030 C 
BRANCH  21  24
ATOM     24  S   UNL     1       1.146   3.847   0.011  0.00  0.00    +0.061 S 
ATOM     25  O   UNL     1       2.380   4.274  -0.549  0.00  0.00    -0.153 OA
ATOM     26  O   UNL     1      -0.110   4.239  -0.526  0.00  0.00    -0.153 OA
BRANCH  24  27
ATOM     27  C   UNL     1       1.171   2.086   0.002  0.00  0.00    +0.106 A 
ATOM     28  C   UNL     1      -0.017   1.378   0.010  0.00  0.00    +0.030 A 
ATOM     29  C   UNL     1       0.002  -0.004   0.002  0.00  0.00    +0.022 A 
ATOM     30  C   UNL     1       1.210  -0.679  -0.013  0.00  0.00    +0.041 A 
ATOM     31  C   UNL     1       2.398   0.030  -0.021  0.00  0.00    +0.022 A 
ATOM     32  C   UNL     1       2.378   1.412  -0.013  0.00  0.00    +0.030 A 
ATOM     33 CL   UNL     1       1.234  -2.415  -0.022  0.00  0.00    -0.084 Cl
ENDBRANCH  24  27
ENDBRANCH  21  24
ENDBRANCH   7  18
TORSDOF 5
