REMARK  Name = ZINC40713821
REMARK  1 active torsions:
REMARK  status: ('A' for Active; 'I' for Inactive)
REMARK    1  A    between atoms: C_6  and  N_7
REMARK                            x       y       z     vdW  Elec       q    Type
REMARK                         _______ _______ _______ _____ _____    ______ ____
ROOT
ATOM      1  C   UNL     1       1.265   1.414   1.189  0.00  0.00    +0.043 A 
ATOM      2  C   UNL     1       1.178   2.062  -0.037  0.00  0.00    +0.038 A 
ATOM      3  C   UNL     1       1.113   1.313  -1.195  0.00  0.00    +0.128 A 
ATOM      4  N   UNL     1       1.132  -0.007  -1.153  0.00  0.00    -0.237 NA
ATOM      5  C   UNL     1       1.214  -0.665  -0.009  0.00  0.00    +0.142 A 
ATOM      6  C   UNL     1       1.283   0.026   1.204  0.00  0.00    +0.066 A 
ATOM      7  N   UNL     1       1.231  -2.058  -0.014  0.00  0.00    -0.313 N 
ATOM      8  C   UNL     1      -0.017  -2.823   0.111  0.00  0.00    +0.107 C 
ATOM      9  C   UNL     1      -0.108  -3.809  -1.058  0.00  0.00    +0.023 C 
ATOM     10  C   UNL     1       1.155  -4.673  -1.093  0.00  0.00    -0.005 C 
ATOM     11  C   UNL     1       1.047  -5.676  -2.244  0.00  0.00    +0.004 C 
ATOM     12  C   UNL     1       2.308  -6.541  -2.290  0.00  0.00    +0.000 C 
ATOM     13  C   UNL     1       3.530  -5.646  -2.510  0.00  0.00    +0.000 C 
ATOM     14  C   UNL     1       3.641  -4.646  -1.358  0.00  0.00    +0.005 C 
ATOM     15  C   UNL     1       2.381  -3.780  -1.305  0.00  0.00    +0.009 C 
ATOM     16  C   UNL     1       2.497  -2.791  -0.148  0.00  0.00    +0.110 C 
ATOM     17 BR   UNL     1       1.148   3.951  -0.118  0.00  0.00    -0.049 Br
ENDROOT
BRANCH   6  18
ATOM     18  N   UNL     1       1.370  -0.672   2.414  0.00  0.00    -0.355 N 
ATOM     19  H   UNL     1       1.331  -0.190   3.255  0.00  0.00    +0.142 HD
ATOM     20  H   UNL     1       1.470  -1.637   2.412  0.00  0.00    +0.142 HD
ENDBRANCH   6  18
TORSDOF 1
