REMARK  Name = ZINC07168579
REMARK  7 active torsions:
REMARK  status: ('A' for Active; 'I' for Inactive)
REMARK    1  A    between atoms: C_1  and  C_2
REMARK    2  A    between atoms: C_2  and  C_4
REMARK    3  A    between atoms: C_2  and  O_15
REMARK    4  A    between atoms: N_6  and  C_7
REMARK    5  A    between atoms: C_7  and  C_13
REMARK    6  A    between atoms: O_15  and  C_16
REMARK    7  A    between atoms: C_19  and  N_22
REMARK                            x       y       z     vdW  Elec       q    Type
REMARK                         _______ _______ _______ _____ _____    ______ ____
ROOT
ATOM      1  C   UNL     1      -2.268  -0.528  -1.133  0.00  0.00    +0.062 C 
ATOM      2  C   UNL     1      -1.288  -0.774   0.017  0.00  0.00    +0.255 C 
ENDROOT
BRANCH   2   3
ATOM      3  C   UNL     1      -0.006  -0.028  -0.247  0.00  0.00    +0.255 C 
ATOM      4  O   UNL     1       1.025  -0.640  -0.430  0.00  0.00    -0.272 OA
ATOM      5  N   UNL     1      -0.004   1.319  -0.280  0.00  0.00    -0.294 N 
ATOM      6  H   UNL     1      -0.830   1.809  -0.138  0.00  0.00    +0.150 HD
BRANCH   5   7
ATOM      7  C   UNL     1       1.242   2.044  -0.537  0.00  0.00    +0.121 C 
ATOM      8  C   UNL     1       2.265   1.700   0.547  0.00  0.00    +0.041 C 
ATOM      9  C   UNL     1       3.567   2.457   0.279  0.00  0.00    +0.003 C 
ATOM     10  C   UNL     1       3.295   3.962   0.295  0.00  0.00    +0.000 C 
ATOM     11  C   UNL     1       2.272   4.307  -0.790  0.00  0.00    +0.003 C 
ATOM     12  C   UNL     1       0.970   3.550  -0.521  0.00  0.00    +0.041 C 
BRANCH   7  13
ATOM     13  C   UNL     1       1.774   1.656  -1.854  0.00  0.00    +0.088 C 
ATOM     14  N   UNL     1       2.184   1.356  -2.870  0.00  0.00    -0.194 NA
ENDBRANCH   7  13
ENDBRANCH   5   7
ENDBRANCH   2   3
BRANCH   2  15
ATOM     15  O   UNL     1      -1.014  -2.173   0.117  0.00  0.00    -0.480 OA
BRANCH  15  16
ATOM     16  C   UNL     1      -1.890  -2.923   0.836  0.00  0.00    +0.122 A 
ATOM     17  C   UNL     1      -3.046  -2.347   1.342  0.00  0.00    +0.048 A 
ATOM     18  C   UNL     1      -3.938  -3.113   2.068  0.00  0.00    +0.036 A 
ATOM     19  C   UNL     1      -3.674  -4.451   2.298  0.00  0.00    +0.126 A 
ATOM     20  C   UNL     1      -2.520  -5.026   1.799  0.00  0.00    +0.036 A 
ATOM     21  C   UNL     1      -1.628  -4.266   1.068  0.00  0.00    +0.048 A 
BRANCH  19  22
ATOM     22  N   UNL     1      -4.628  -5.268   3.080  0.00  0.00    +0.056 N 
ATOM     23  O   UNL     1      -4.397  -6.447   3.284  0.00  0.00    -0.126 OA
ATOM     24  O   UNL     1      -5.645  -4.762   3.521  0.00  0.00    -0.126 OA
ENDBRANCH  19  22
ENDBRANCH  15  16
ENDBRANCH   2  15
TORSDOF 6
