REMARK  Name = ZINC01037346
REMARK  5 active torsions:
REMARK  status: ('A' for Active; 'I' for Inactive)
REMARK    1  A    between atoms: C_5  and  C_7
REMARK    2  A    between atoms: C_13  and  C_28
REMARK    3  A    between atoms: C_14  and  C_21
REMARK    4  A    between atoms: C_16  and  C_19
REMARK    5  A    between atoms: C_17  and  N_18
REMARK                            x       y       z     vdW  Elec       q    Type
REMARK                         _______ _______ _______ _____ _____    ______ ____
ROOT
ATOM      1  C   UNL     1      -3.870   7.453  -1.585  0.00  0.00    +0.030 C 
ATOM      2  C   UNL     1      -3.076   6.397  -1.272  0.00  0.00    +0.080 A 
ATOM      3  C   UNL     1      -2.699   5.874   0.047  0.00  0.00    +0.271 A 
ATOM      4  O   UNL     1      -3.108   6.399   1.066  0.00  0.00    -0.266 OA
ATOM      5  N   UNL     1      -1.887   4.800   0.103  0.00  0.00    -0.256 N 
ATOM      6  C   UNL     1      -1.460   4.256  -1.093  0.00  0.00    +0.104 A 
ATOM      7  C   UNL     1      -0.643   3.177  -1.196  0.00  0.00    +0.073 C 
ATOM      8  C   UNL     1      -0.161   2.517   0.080  0.00  0.00    +0.107 C 
ATOM      9  C   UNL     1      -0.655   3.143   1.369  0.00  0.00    +0.080 C 
ATOM     10  C   UNL     1      -1.464   4.219   1.304  0.00  0.00    +0.119 C 
ATOM     11  S   UNL     1      -2.210   5.270  -2.352  0.00  0.00    -0.065 S 
ENDROOT
BRANCH   1  16
ATOM     12  C   UNL     1      -4.592   6.843  -5.213  0.00  0.00    +0.001 A 
ATOM     13  C   UNL     1      -5.072   8.082  -5.603  0.00  0.00    +0.001 A 
ATOM     14  C   UNL     1      -5.161   9.117  -4.689  0.00  0.00    +0.020 A 
ATOM     15  C   UNL     1      -4.772   8.921  -3.379  0.00  0.00    +0.048 A 
ATOM     16  C   UNL     1      -4.286   7.671  -2.977  0.00  0.00    -0.005 A 
ATOM     17  C   UNL     1      -4.194   6.632  -3.911  0.00  0.00    +0.009 A 
ATOM     18 CL   UNL     1      -4.885  10.221  -2.234  0.00  0.00    -0.083 Cl
ENDBRANCH   1  16
BRANCH   8  19
ATOM     19  C   UNL     1      -0.599   1.075   0.059  0.00  0.00    -0.016 A 
ATOM     20  C   UNL     1      -1.945   0.761   0.049  0.00  0.00    +0.006 A 
ATOM     21  C   UNL     1      -2.346  -0.561   0.030  0.00  0.00    +0.000 A 
ATOM     22  C   UNL     1      -1.402  -1.571   0.020  0.00  0.00    +0.001 A 
ATOM     23  C   UNL     1      -0.056  -1.259   0.030  0.00  0.00    +0.020 A 
ATOM     24  C   UNL     1       0.347   0.065   0.049  0.00  0.00    +0.045 A 
ATOM     25 CL   UNL     1       2.038   0.458   0.062  0.00  0.00    -0.083 Cl
ENDBRANCH   8  19
BRANCH  10  26
ATOM     26  N   UNL     1      -1.900   4.776   2.482  0.00  0.00    -0.343 N 
ATOM     27  H   UNL     1      -2.746   5.250   2.510  0.00  0.00    +0.144 HD
ATOM     28  H   UNL     1      -1.363   4.694   3.285  0.00  0.00    +0.144 HD
ENDBRANCH  10  26
BRANCH   9  29
ATOM     29  C   UNL     1      -0.266   2.604   2.637  0.00  0.00    +0.099 C 
ATOM     30  N   UNL     1       0.042   2.176   3.643  0.00  0.00    -0.191 NA
ENDBRANCH   9  29
BRANCH   7  31
ATOM     31  C   UNL     1      -0.248   2.675  -2.477  0.00  0.00    +0.098 C 
ATOM     32  N   UNL     1       0.067   2.277  -3.494  0.00  0.00    -0.191 NA
ENDBRANCH   7  31
TORSDOF 5
