REMARK  Name = ZINC36304386
REMARK  18 active torsions:
REMARK  status: ('A' for Active; 'I' for Inactive)
REMARK    1  A    between atoms: C_1  and  C_2
REMARK    2  A    between atoms: C_3  and  C_22
REMARK    3  A    between atoms: C_4  and  O_13
REMARK    4  A    between atoms: N_5  and  C_7
REMARK    5  A    between atoms: O_13  and  C_14
REMARK    6  A    between atoms: C_19  and  O_20
REMARK    7  A    between atoms: O_20  and  C_21
REMARK    8  A    between atoms: C_22  and  N_23
REMARK    9  A    between atoms: N_23  and  C_24
REMARK   10  A    between atoms: N_23  and  C_30
REMARK   11  A    between atoms: C_24  and  C_25
REMARK   12  A    between atoms: C_30  and  C_31
REMARK   13  A    between atoms: C_31  and  C_33
REMARK   14  A    between atoms: C_31  and  O_38
REMARK   15  A    between atoms: C_33  and  O_34
REMARK   16  A    between atoms: O_34  and  C_35
REMARK   17  A    between atoms: C_35  and  C_36
REMARK   18  A    between atoms: C_35  and  C_37
REMARK                            x       y       z     vdW  Elec       q    Type
REMARK                         _______ _______ _______ _____ _____    ______ ____
ROOT
ATOM      1  C   UNL     1       0.906   1.318   0.173  0.00  0.00    +0.068 C 
ATOM      2  C   UNL     1       0.502  -0.130   0.065  0.00  0.00    +0.065 A 
ATOM      3  C   UNL     1       0.129  -0.788  -1.111  0.00  0.00    +0.021 A 
ATOM      4  C   UNL     1      -0.161  -2.078  -0.793  0.00  0.00    +0.225 A 
ATOM      5  N   UNL     1       0.026  -2.221   0.546  0.00  0.00    -0.200 N 
ATOM      6  N   UNL     1       0.447  -0.985   1.054  0.00  0.00    -0.168 NA
ENDROOT
BRANCH   5   7
ATOM      7  C   UNL     1      -0.163  -3.396   1.286  0.00  0.00    +0.069 A 
ATOM      8  C   UNL     1      -1.275  -4.194   1.052  0.00  0.00    +0.028 A 
ATOM      9  C   UNL     1      -1.459  -5.352   1.782  0.00  0.00    +0.002 A 
ATOM     10  C   UNL     1      -0.536  -5.717   2.746  0.00  0.00    +0.000 A 
ATOM     11  C   UNL     1       0.572  -4.924   2.981  0.00  0.00    +0.002 A 
ATOM     12  C   UNL     1       0.764  -3.768   2.250  0.00  0.00    +0.028 A 
ENDBRANCH   5   7
BRANCH   4  13
ATOM     13  O   UNL     1      -0.564  -3.046  -1.655  0.00  0.00    -0.434 OA
BRANCH  13  14
ATOM     14  C   UNL     1      -1.893  -3.150  -1.922  0.00  0.00    +0.172 A 
ATOM     15  C   UNL     1      -2.780  -2.216  -1.410  0.00  0.00    +0.050 A 
ATOM     16  C   UNL     1      -4.131  -2.324  -1.683  0.00  0.00    +0.004 A 
ATOM     17  C   UNL     1      -4.601  -3.361  -2.466  0.00  0.00    +0.004 A 
ATOM     18  C   UNL     1      -3.722  -4.296  -2.980  0.00  0.00    +0.049 A 
ATOM     19  C   UNL     1      -2.366  -4.192  -2.715  0.00  0.00    +0.162 A 
BRANCH  19  20
ATOM     20  O   UNL     1      -1.499  -5.107  -3.225  0.00  0.00    -0.491 OA
ATOM     21  C   UNL     1      -2.055  -6.149  -4.030  0.00  0.00    +0.277 C 
ENDBRANCH  19  20
ENDBRANCH  13  14
ENDBRANCH   4  13
BRANCH   3  22
ATOM     22  C   UNL     1       0.059  -0.176  -2.486  0.00  0.00    -0.035 C 
BRANCH  22  23
ATOM     23  N   UNL     1       1.397  -0.182  -3.093  0.00  0.00    +0.389 N 
ATOM     24  H   UNL     1       2.050   0.272  -2.472  0.00  0.00    -0.081 HD
BRANCH  23  25
ATOM     25  C   UNL     1       1.358   0.537  -4.373  0.00  0.00    -0.003 C 
BRANCH  25  26
ATOM     26  C   UNL     1       1.052   1.991  -4.124  0.00  0.00    +0.089 A 
ATOM     27  C   UNL     1       1.961   2.970  -3.966  0.00  0.00    +0.042 A 
ATOM     28  C   UNL     1       1.241   4.168  -3.756  0.00  0.00    +0.041 A 
ATOM     29  C   UNL     1      -0.066   3.850  -3.798  0.00  0.00    +0.195 A 
ATOM     30  O   UNL     1      -0.174   2.531  -4.027  0.00  0.00    -0.470 OA
ENDBRANCH  25  26
ENDBRANCH  23  25
BRANCH  23  31
ATOM     31  C   UNL     1       1.825  -1.569  -3.323  0.00  0.00    -0.044 C 
BRANCH  31  32
ATOM     32  C   UNL     1       3.265  -1.580  -3.838  0.00  0.00    +0.124 C 
BRANCH  32  33
ATOM     33  O   UNL     1       4.138  -1.079  -2.823  0.00  0.00    -0.391 OA
ATOM     34  H   UNL     1       4.124  -1.592  -2.004  0.00  0.00    +0.210 HD
ENDBRANCH  32  33
BRANCH  32  35
ATOM     35  C   UNL     1       3.668  -3.012  -4.196  0.00  0.00    +0.189 C 
BRANCH  35  36
ATOM     36  O   UNL     1       4.970  -3.007  -4.785  0.00  0.00    -0.375 OA
BRANCH  36  37
ATOM     37  C   UNL     1       5.444  -4.303  -5.157  0.00  0.00    +0.112 C 
ATOM     38  C   UNL     1       6.378  -4.177  -6.362  0.00  0.00    +0.037 C 
ATOM     39  C   UNL     1       6.204  -4.925  -3.985  0.00  0.00    +0.037 C 
ENDBRANCH  36  37
ENDBRANCH  35  36
ENDBRANCH  32  35
ENDBRANCH  31  32
ENDBRANCH  23  31
ENDBRANCH  22  23
ENDBRANCH   3  22
TORSDOF 14
