REMARK  Name = ZINC49114289
REMARK  3 active torsions:
REMARK  status: ('A' for Active; 'I' for Inactive)
REMARK    1  A    between atoms: C_1  and  N_2
REMARK    2  A    between atoms: C_9  and  C_31
REMARK    3  A    between atoms: C_11  and  C_25
REMARK                            x       y       z     vdW  Elec       q    Type
REMARK                         _______ _______ _______ _____ _____    ______ ____
ROOT
ATOM      1  C   UNL     1      -0.401   1.146  -0.123  0.00  0.00    -0.096 C 
ATOM      2  N   UNL     1      -0.181  -0.302  -0.007  0.00  0.00    +0.379 N 
ATOM      3  C   UNL     1       0.586  -0.772  -1.166  0.00  0.00    -0.072 C 
ATOM      4  C   UNL     1       0.662  -2.303  -1.147  0.00  0.00    +0.056 C 
ATOM      5  C   UNL     1       1.236  -2.728   0.191  0.00  0.00    +0.139 C 
ATOM      6  O   UNL     1       2.124  -3.544   0.260  0.00  0.00    -0.297 OA
ATOM      7  C   UNL     1       0.658  -2.095   1.431  0.00  0.00    +0.054 C 
ATOM      8  C   UNL     1       0.551  -0.586   1.234  0.00  0.00    -0.061 C 
ATOM      9  C   UNL     1       1.545  -2.412   2.648  0.00  0.00    +0.054 C 
ATOM     10  C   UNL     1       0.617  -3.165   3.629  0.00  0.00    +0.093 C 
ATOM     11  N   UNL     1      -0.454  -3.740   2.772  0.00  0.00    -0.291 NA
ATOM     12  C   UNL     1      -0.708  -2.699   1.757  0.00  0.00    +0.135 C 
ATOM     13  C   UNL     1      -1.670  -1.661   2.261  0.00  0.00    +0.005 A 
ATOM     14  C   UNL     1      -1.654  -0.794   3.331  0.00  0.00    +0.027 A 
ATOM     15  C   UNL     1      -2.717   0.069   3.540  0.00  0.00    +0.041 A 
ATOM     16  C   UNL     1      -3.794   0.056   2.671  0.00  0.00    +0.022 A 
ATOM     17  C   UNL     1      -3.814  -0.812   1.599  0.00  0.00    +0.025 A 
ATOM     18  C   UNL     1      -2.749  -1.682   1.382  0.00  0.00    +0.039 A 
ATOM     19  N   UNL     1      -2.540  -2.639   0.385  0.00  0.00    -0.283 N 
ATOM     20  C   UNL     1      -1.365  -3.279   0.534  0.00  0.00    +0.243 C 
ATOM     21  O   UNL     1      -0.921  -4.154  -0.180  0.00  0.00    -0.273 OA
ATOM     22 CL   UNL     1      -2.698   1.162   4.888  0.00  0.00    -0.084 Cl
ATOM     23  H   UNL     1      -0.149  -4.599   2.340  0.00  0.00    +0.124 HD
ATOM     24  H   UNL     1      -3.168  -2.820  -0.331  0.00  0.00    +0.155 HD
ATOM     25  H   UNL     1      -1.073  -0.775   0.016  0.00  0.00    -0.082 HD
ENDROOT
BRANCH  10  26
ATOM     26  C   UNL     1       1.376  -4.261   4.332  0.00  0.00    -0.030 A 
ATOM     27  C   UNL     1       2.535  -3.966   5.024  0.00  0.00    +0.005 A 
ATOM     28  C   UNL     1       3.231  -4.971   5.668  0.00  0.00    +0.000 A 
ATOM     29  C   UNL     1       2.767  -6.273   5.622  0.00  0.00    +0.000 A 
ATOM     30  C   UNL     1       1.606  -6.568   4.931  0.00  0.00    +0.000 A 
ATOM     31  C   UNL     1       0.908  -5.562   4.290  0.00  0.00    +0.005 A 
ENDBRANCH  10  26
BRANCH   9  32
ATOM     32  C   UNL     1       2.702  -3.287   2.241  0.00  0.00    -0.042 A 
ATOM     33  C   UNL     1       2.532  -4.655   2.140  0.00  0.00    +0.004 A 
ATOM     34  C   UNL     1       3.593  -5.458   1.766  0.00  0.00    +0.000 A 
ATOM     35  C   UNL     1       4.825  -4.893   1.492  0.00  0.00    +0.000 A 
ATOM     36  C   UNL     1       4.995  -3.525   1.593  0.00  0.00    +0.000 A 
ATOM     37  C   UNL     1       3.933  -2.721   1.962  0.00  0.00    +0.004 A 
ENDBRANCH   9  32
TORSDOF 2
