REMARK  Name = ZINC63851682
REMARK  8 active torsions:
REMARK  status: ('A' for Active; 'I' for Inactive)
REMARK    1  A    between atoms: C_1  and  C_2
REMARK    2  A    between atoms: C_2  and  C_3
REMARK    3  A    between atoms: C_2  and  C_4
REMARK    4  A    between atoms: C_6  and  C_24
REMARK    5  A    between atoms: C_7  and  N_9
REMARK    6  A    between atoms: N_9  and  N_10
REMARK    7  A    between atoms: C_11  and  C_13
REMARK    8  A    between atoms: C_13  and  C_14
REMARK                            x       y       z     vdW  Elec       q    Type
REMARK                         _______ _______ _______ _____ _____    ______ ____
ROOT
ATOM      1  N   UNL     1       4.092  -2.832  -2.056  0.00  0.00    -0.234 N 
ATOM      2  C   UNL     1       5.141  -3.557  -2.493  0.00  0.00    +0.233 C 
ATOM      3  O   UNL     1       5.334  -3.687  -3.683  0.00  0.00    -0.274 OA
ATOM      4  H   UNL     1       3.937  -2.727  -1.105  0.00  0.00    +0.173 HD
ENDROOT
BRANCH   1   5
ATOM      5  N   UNL     1       3.225  -2.229  -2.977  0.00  0.00    -0.232 N 
ATOM      6  H   UNL     1       3.380  -2.333  -3.929  0.00  0.00    +0.173 HD
BRANCH   5  10
ATOM      7  C   UNL     1       0.707  -0.490  -1.238  0.00  0.00    +0.202 A 
ATOM      8  N   UNL     1       0.340  -0.232  -2.455  0.00  0.00    -0.200 NA
ATOM      9  C   UNL     1       1.213  -0.835  -3.312  0.00  0.00    +0.202 A 
ATOM     10  C   UNL     1       2.152  -1.487  -2.530  0.00  0.00    +0.241 A 
ATOM     11  O   UNL     1       1.814  -1.250  -1.249  0.00  0.00    -0.423 OA
BRANCH   7  13
ATOM     12  C   UNL     1      -0.019   1.526   0.010  0.00  0.00    +0.017 C 
ATOM     13  C   UNL     1       0.002  -0.004   0.002  0.00  0.00    +0.069 C 
ATOM     14  C   UNL     1      -1.433  -0.534   0.013  0.00  0.00    +0.017 C 
ENDBRANCH   7  13
BRANCH   9  15
ATOM     15  C   UNL     1       1.168  -0.799  -4.742  0.00  0.00    +0.124 C 
ATOM     16  N   UNL     1       1.133  -0.772  -5.878  0.00  0.00    -0.189 NA
ENDBRANCH   9  15
ENDBRANCH   5  10
ENDBRANCH   1   5
BRANCH   2  17
ATOM     17  C   UNL     1       6.073  -4.205  -1.503  0.00  0.00    +0.133 C 
BRANCH  17  18
ATOM     18  C   UNL     1       7.153  -4.951  -2.244  0.00  0.00    -0.031 A 
ATOM     19  C   UNL     1       7.015  -6.281  -2.498  0.00  0.00    +0.005 A 
ATOM     20  C   UNL     1       8.003  -6.987  -3.181  0.00  0.00    +0.001 A 
ATOM     21  C   UNL     1       9.135  -6.368  -3.614  0.00  0.00    +0.008 A 
ATOM     22  C   UNL     1       9.313  -4.995  -3.370  0.00  0.00    -0.018 A 
ATOM     23  C   UNL     1       8.305  -4.276  -2.680  0.00  0.00    -0.014 A 
ATOM     24  C   UNL     1       8.481  -2.902  -2.441  0.00  0.00    +0.009 A 
ATOM     25  C   UNL     1       9.611  -2.281  -2.879  0.00  0.00    +0.001 A 
ATOM     26  C   UNL     1      10.598  -2.988  -3.563  0.00  0.00    +0.001 A 
ATOM     27  C   UNL     1      10.469  -4.322  -3.800  0.00  0.00    +0.008 A 
ENDBRANCH  17  18
ENDBRANCH   2  17
TORSDOF 6
