REMARK  Name = ZINC67584408
REMARK  11 active torsions:
REMARK  status: ('A' for Active; 'I' for Inactive)
REMARK    1  A    between atoms: C_1  and  C_2
REMARK    2  A    between atoms: C_2  and  C_3
REMARK    3  A    between atoms: C_3  and  C_4
REMARK    4  A    between atoms: N_6  and  C_7
REMARK    5  A    between atoms: C_11  and  N_14
REMARK    6  A    between atoms: C_12  and  C_13
REMARK    7  A    between atoms: N_17  and  C_18
REMARK    8  A    between atoms: C_18  and  C_20
REMARK    9  A    between atoms: C_18  and  C_21
REMARK   10  A    between atoms: C_21  and  C_22
REMARK   11  A    between atoms: C_21  and  C_23
REMARK                            x       y       z     vdW  Elec       q    Type
REMARK                         _______ _______ _______ _____ _____    ______ ____
ROOT
ATOM      1  C   UNL     1       1.266  -4.090   2.230  0.00  0.00    +0.038 A 
ATOM      2  C   UNL     1       0.662  -4.748   1.165  0.00  0.00    +0.024 A 
ATOM      3  C   UNL     1       0.579  -6.127   1.161  0.00  0.00    +0.004 A 
ATOM      4  C   UNL     1       1.097  -6.856   2.215  0.00  0.00    +0.024 A 
ATOM      5  C   UNL     1       1.701  -6.204   3.282  0.00  0.00    +0.039 A 
ATOM      6  C   UNL     1       1.791  -4.819   3.286  0.00  0.00    -0.008 A 
ATOM      7  C   UNL     1       2.452  -4.109   4.439  0.00  0.00    +0.047 C 
ENDROOT
BRANCH   5   8
ATOM      8  N   UNL     1       2.224  -6.943   4.349  0.00  0.00    -0.269 N 
ATOM      9  C   UNL     1       2.790  -8.145   4.123  0.00  0.00    +0.304 C 
ATOM     10  O   UNL     1       2.769  -8.627   3.006  0.00  0.00    -0.253 OA
ATOM     11  N   UNL     1       3.379  -8.814   5.134  0.00  0.00    -0.296 N 
ATOM     12  H   UNL     1       2.179  -6.590   5.252  0.00  0.00    +0.156 HD
ATOM     13  H   UNL     1       3.396  -8.430   6.025  0.00  0.00    +0.151 HD
BRANCH  11  14
ATOM     14  C   UNL     1       3.994 -10.121   4.888  0.00  0.00    +0.074 C 
ATOM     15  C   UNL     1       2.926 -11.213   4.983  0.00  0.00    +0.028 C 
BRANCH  14  16
ATOM     16  C   UNL     1       5.080 -10.378   5.934  0.00  0.00    +0.003 C 
ATOM     17  C   UNL     1       5.723 -11.743   5.677  0.00  0.00    +0.009 C 
ATOM     18  C   UNL     1       6.148  -9.286   5.840  0.00  0.00    +0.009 C 
ENDBRANCH  14  16
ENDBRANCH  11  14
ENDBRANCH   5   8
BRANCH   1  21
ATOM     19  C   UNL     1       1.327  -2.014   1.069  0.00  0.00    +0.217 C 
ATOM     20  O   UNL     1       1.336  -2.615   0.016  0.00  0.00    -0.275 OA
ATOM     21  N   UNL     1       1.349  -2.693   2.233  0.00  0.00    -0.285 N 
ATOM     22  H   UNL     1       1.423  -2.214   3.073  0.00  0.00    +0.155 HD
BRANCH  19  23
ATOM     23  C   UNL     1       1.290  -0.507   1.077  0.00  0.00    +0.096 C 
BRANCH  23  25
ATOM     24  C   UNL     1       1.232   1.539  -0.356  0.00  0.00    +0.004 C 
ATOM     25  C   UNL     1       1.270   0.009  -0.363  0.00  0.00    +0.006 C 
ENDBRANCH  23  25
ENDBRANCH  19  23
ENDBRANCH   1  21
TORSDOF 6
