REMARK  Name = ZINC14544802
REMARK  7 active torsions:
REMARK  status: ('A' for Active; 'I' for Inactive)
REMARK    1  A    between atoms: C_1  and  C_2
REMARK    2  A    between atoms: C_2  and  C_3
REMARK    3  A    between atoms: C_2  and  C_4
REMARK    4  A    between atoms: C_2  and  N_5
REMARK    5  A    between atoms: N_5  and  S_6
REMARK    6  A    between atoms: S_6  and  C_9
REMARK    7  A    between atoms: C_22  and  C_25
REMARK                            x       y       z     vdW  Elec       q    Type
REMARK                         _______ _______ _______ _____ _____    ______ ____
ROOT
ATOM      1  C   UNL     1      -3.595   5.058  -1.022  0.00  0.00    +0.106 A 
ATOM      2  C   UNL     1      -2.756   6.088  -0.637  0.00  0.00    +0.030 A 
ATOM      3  C   UNL     1      -1.434   5.830  -0.337  0.00  0.00    +0.025 A 
ATOM      4  C   UNL     1      -0.936   4.536  -0.419  0.00  0.00    +0.031 A 
ATOM      5  C   UNL     1      -1.794   3.496  -0.795  0.00  0.00    -0.018 A 
ATOM      6  C   UNL     1      -3.111   3.765  -1.099  0.00  0.00    +0.034 A 
ATOM      7  C   UNL     1      -1.229   2.131  -0.847  0.00  0.00    +0.049 C 
ATOM      8  C   UNL     1      -1.800   1.078  -1.726  0.00  0.00    -0.023 C 
ATOM      9  C   UNL     1      -0.822   0.260  -2.096  0.00  0.00    -0.030 C 
ATOM     10  C   UNL     1       0.509   0.738  -1.514  0.00  0.00    +0.033 C 
ATOM     11  C   UNL     1       0.246   2.240  -1.334  0.00  0.00    +0.029 C 
ATOM     12  C   UNL     1       1.011   2.948  -0.230  0.00  0.00    +0.107 C 
ATOM     13  N   UNL     1       0.418   4.305  -0.146  0.00  0.00    -0.336 N 
ATOM     14  H   UNL     1       0.990   5.051   0.092  0.00  0.00    +0.147 HD
ENDROOT
BRANCH  12  15
ATOM     15  C   UNL     1       0.818   2.230   1.081  0.00  0.00    -0.002 A 
ATOM     16  C   UNL     1      -0.092   2.520   2.024  0.00  0.00    +0.089 A 
ATOM     17  N   UNL     1       0.032   1.652   3.075  0.00  0.00    -0.360 N 
ATOM     18  H   UNL     1      -0.516   1.664   3.875  0.00  0.00    +0.165 HD
ATOM     19  C   UNL     1       1.050   0.759   2.826  0.00  0.00    +0.047 A 
ATOM     20  C   UNL     1       1.583   1.078   1.564  0.00  0.00    +0.005 A 
ATOM     21  C   UNL     1       2.647   0.335   1.049  0.00  0.00    +0.010 A 
ATOM     22  C   UNL     1       3.157  -0.709   1.770  0.00  0.00    +0.001 A 
ATOM     23  C   UNL     1       2.631  -1.031   3.013  0.00  0.00    +0.002 A 
ATOM     24  C   UNL     1       1.585  -0.306   3.542  0.00  0.00    +0.026 A 
ENDBRANCH  12  15
BRANCH   1  25
ATOM     25  S   UNL     1      -5.280   5.393  -1.413  0.00  0.00    +0.059 S 
ATOM     26  O   UNL     1      -5.299   6.641  -2.092  0.00  0.00    -0.153 OA
ATOM     27  O   UNL     1      -5.808   4.205  -1.987  0.00  0.00    -0.153 OA
BRANCH  25  28
ATOM     28  N   UNL     1      -6.079   5.622   0.019  0.00  0.00    -0.185 NA
ATOM     29  H   UNL     1      -6.438   6.496   0.240  0.00  0.00    +0.149 HD
BRANCH  28  31
ATOM     30  C   UNL     1      -4.870   3.947   1.329  0.00  0.00    +0.029 C 
ATOM     31  C   UNL     1      -6.245   4.505   0.953  0.00  0.00    +0.032 C 
ATOM     32  C   UNL     1      -6.959   4.995   2.213  0.00  0.00    +0.029 C 
ATOM     33  C   UNL     1      -7.077   3.405   0.290  0.00  0.00    +0.029 C 
ENDBRANCH  28  31
ENDBRANCH  25  28
ENDBRANCH   1  25
TORSDOF 4
