REMARK  Name = ZINC55196557
REMARK  9 active torsions:
REMARK  status: ('A' for Active; 'I' for Inactive)
REMARK    1  A    between atoms: C_1  and  C_2
REMARK    2  A    between atoms: C_7  and  C_8
REMARK    3  A    between atoms: C_8  and  N_9
REMARK    4  A    between atoms: N_9  and  C_10
REMARK    5  A    between atoms: C_10  and  C_11
REMARK    6  A    between atoms: C_13  and  C_15
REMARK    7  A    between atoms: C_15  and  C_16
REMARK    8  A    between atoms: C_16  and  C_17
REMARK    9  A    between atoms: N_22  and  C_24
REMARK                            x       y       z     vdW  Elec       q    Type
REMARK                         _______ _______ _______ _____ _____    ______ ____
ROOT
ATOM      1  N   UNL     1      -1.388   0.091   3.019  0.00  0.00    -0.293 N 
ATOM      2  C   UNL     1      -2.027   1.210   2.624  0.00  0.00    +0.216 C 
ATOM      3  O   UNL     1      -1.429   2.062   2.002  0.00  0.00    -0.276 OA
ENDROOT
BRANCH   1   4
ATOM      4  C   UNL     1      -0.006  -0.151   2.597  0.00  0.00    +0.143 C 
BRANCH   4  11
ATOM      5  C   UNL     1       2.487  -1.011   1.418  0.00  0.00    +0.044 C 
ATOM      6  C   UNL     1       1.189  -1.237   0.685  0.00  0.00    -0.046 A 
ATOM      7  C   UNL     1       1.192  -1.861  -0.548  0.00  0.00    +0.003 A 
ATOM      8  C   UNL     1       0.002  -2.068  -1.220  0.00  0.00    +0.000 A 
ATOM      9  C   UNL     1      -1.191  -1.652  -0.658  0.00  0.00    +0.000 A 
ATOM     10  C   UNL     1      -1.194  -1.029   0.576  0.00  0.00    +0.005 A 
ATOM     11  C   UNL     1      -0.004  -0.826   1.250  0.00  0.00    -0.027 A 
ENDBRANCH   4  11
ENDBRANCH   1   4
BRANCH   1  12
ATOM     12  C   UNL     1      -2.076  -0.883   3.870  0.00  0.00    +0.134 C 
BRANCH  12  13
ATOM     13  C   UNL     1      -1.840  -0.540   5.318  0.00  0.00    -0.016 C 
ATOM     14  C   UNL     1      -2.858  -0.368   6.125  0.00  0.00    +0.005 C 
ENDBRANCH  12  13
ENDBRANCH   1  12
BRANCH   2  15
ATOM     15  C   UNL     1      -3.485   1.402   2.955  0.00  0.00    +0.096 C 
BRANCH  15  16
ATOM     16  C   UNL     1      -3.962   2.744   2.396  0.00  0.00    +0.011 C 
BRANCH  16  17
ATOM     17  C   UNL     1      -5.442   2.939   2.733  0.00  0.00    -0.027 C 
ATOM     18  C   UNL     1      -6.276   1.881   2.005  0.00  0.00    -0.000 C 
ATOM     19  C   UNL     1      -7.760   2.133   2.285  0.00  0.00    -0.018 C 
ATOM     20  C   UNL     1      -8.121   3.555   1.851  0.00  0.00    -0.079 C 
ATOM     21  N   UNL     1      -7.309   4.521   2.600  0.00  0.00    +0.378 N 
ATOM     22  C   UNL     1      -5.889   4.332   2.282  0.00  0.00    -0.076 C 
ATOM     23  C   UNL     1      -7.714   5.885   2.237  0.00  0.00    -0.096 C 
ATOM     24  H   UNL     1      -7.452   4.382   3.590  0.00  0.00    -0.082 HD
ENDBRANCH  16  17
ENDBRANCH  15  16
ENDBRANCH   2  15
TORSDOF 7
