REMARK  Name = ZINC43673585
REMARK  8 active torsions:
REMARK  status: ('A' for Active; 'I' for Inactive)
REMARK    1  A    between atoms: C_1  and  C_2
REMARK    2  A    between atoms: C_2  and  C_3
REMARK    3  A    between atoms: C_2  and  C_4
REMARK    4  A    between atoms: N_6  and  C_7
REMARK    5  A    between atoms: C_10  and  N_13
REMARK    6  A    between atoms: N_16  and  C_17
REMARK    7  A    between atoms: C_17  and  C_18
REMARK    8  A    between atoms: N_22  and  C_24
REMARK                            x       y       z     vdW  Elec       q    Type
REMARK                         _______ _______ _______ _____ _____    ______ ____
ROOT
ATOM      1  N   UNL     1      -6.981  -3.430  -0.151  0.00  0.00    -0.269 N 
ATOM      2  C   UNL     1      -7.304  -4.732  -0.022  0.00  0.00    +0.304 C 
ATOM      3  O   UNL     1      -6.427  -5.572   0.036  0.00  0.00    -0.253 OA
ATOM      4  N   UNL     1      -8.598  -5.103   0.041  0.00  0.00    -0.299 N 
ATOM      5  H   UNL     1      -7.679  -2.766  -0.265  0.00  0.00    +0.156 HD
ATOM      6  H   UNL     1      -9.297  -4.432  -0.006  0.00  0.00    +0.150 HD
ENDROOT
BRANCH   1  10
ATOM      7  C   UNL     1      -2.982  -2.253  -0.057  0.00  0.00    +0.034 A 
ATOM      8  C   UNL     1      -3.959  -1.434   0.493  0.00  0.00    +0.025 A 
ATOM      9  C   UNL     1      -5.284  -1.824   0.461  0.00  0.00    +0.025 A 
ATOM     10  C   UNL     1      -5.638  -3.034  -0.119  0.00  0.00    +0.035 A 
ATOM     11  C   UNL     1      -4.660  -3.853  -0.668  0.00  0.00    +0.025 A 
ATOM     12  C   UNL     1      -3.336  -3.461  -0.643  0.00  0.00    +0.025 A 
BRANCH   7  15
ATOM     13  C   UNL     1      -0.821  -2.163  -1.052  0.00  0.00    +0.220 C 
ATOM     14  O   UNL     1      -1.226  -2.850  -1.966  0.00  0.00    -0.275 OA
ATOM     15  N   UNL     1      -1.638  -1.858  -0.024  0.00  0.00    -0.285 N 
ATOM     16  H   UNL     1      -1.295  -1.365   0.738  0.00  0.00    +0.155 HD
BRANCH  13  18
ATOM     17  C   UNL     1       1.301  -2.135  -2.334  0.00  0.00    +0.017 C 
ATOM     18  C   UNL     1       0.595  -1.649  -1.067  0.00  0.00    +0.069 C 
ATOM     19  C   UNL     1       0.583  -0.119  -1.045  0.00  0.00    +0.017 C 
ENDBRANCH  13  18
ENDBRANCH   7  15
ENDBRANCH   1  10
BRANCH   4  20
ATOM     20  C   UNL     1      -8.949  -6.518   0.180  0.00  0.00    +0.110 C 
BRANCH  20  21
ATOM     21  C   UNL     1     -10.471  -6.665   0.228  0.00  0.00    +0.025 C 
ATOM     22  C   UNL     1     -11.098  -6.323  -1.150  0.00  0.00    +0.025 C 
ATOM     23  C   UNL     1     -12.409  -7.148  -1.108  0.00  0.00    +0.105 C 
ATOM     24  N   UNL     1     -12.048  -8.396  -0.411  0.00  0.00    -0.330 N 
ATOM     25  C   UNL     1     -10.871  -8.140   0.439  0.00  0.00    +0.110 C 
BRANCH  24  26
ATOM     26  C   UNL     1     -12.713  -9.618  -0.532  0.00  0.00    +0.030 A 
ATOM     27  C   UNL     1     -12.275 -10.723   0.186  0.00  0.00    +0.023 A 
ATOM     28  C   UNL     1     -12.935 -11.930   0.064  0.00  0.00    +0.002 A 
ATOM     29  C   UNL     1     -14.031 -12.039  -0.772  0.00  0.00    +0.000 A 
ATOM     30  C   UNL     1     -14.470 -10.940  -1.489  0.00  0.00    +0.002 A 
ATOM     31  C   UNL     1     -13.818  -9.729  -1.367  0.00  0.00    +0.023 A 
ENDBRANCH  24  26
ENDBRANCH  20  21
ENDBRANCH   4  20
TORSDOF 6
