REMARK  Name = ZINC13204903
REMARK  10 active torsions:
REMARK  status: ('A' for Active; 'I' for Inactive)
REMARK    1  A    between atoms: C_1  and  C_2
REMARK    2  A    between atoms: C_5  and  C_8
REMARK    3  A    between atoms: C_11  and  S_16
REMARK    4  A    between atoms: N_12  and  C_13
REMARK    5  A    between atoms: C_13  and  C_14
REMARK    6  A    between atoms: S_16  and  C_17
REMARK    7  A    between atoms: C_17  and  C_18
REMARK    8  A    between atoms: N_20  and  C_21
REMARK    9  A    between atoms: C_24  and  C_28
REMARK   10  A    between atoms: C_26  and  C_27
REMARK                            x       y       z     vdW  Elec       q    Type
REMARK                         _______ _______ _______ _____ _____    ______ ____
ROOT
ATOM      1  C   UNL     1      -1.747   0.906   2.004  0.00  0.00    +0.165 A 
ATOM      2  N   UNL     1      -2.148   1.772   2.905  0.00  0.00    -0.128 NA
ATOM      3  N   UNL     1      -1.314   2.747   2.979  0.00  0.00    -0.122 NA
ATOM      4  C   UNL     1      -0.326   2.560   2.132  0.00  0.00    +0.193 A 
ATOM      5  N   UNL     1      -0.570   1.386   1.479  0.00  0.00    -0.291 N 
ENDROOT
BRANCH   1  10
ATOM      6  C   UNL     1      -4.412  -3.976   0.529  0.00  0.00    +0.044 C 
ATOM      7  C   UNL     1      -3.714  -2.698   0.915  0.00  0.00    -0.050 A 
ATOM      8  C   UNL     1      -4.017  -2.084   2.118  0.00  0.00    +0.004 A 
ATOM      9  C   UNL     1      -3.382  -0.913   2.477  0.00  0.00    +0.012 A 
ATOM     10  C   UNL     1      -2.432  -0.348   1.625  0.00  0.00    +0.019 A 
ATOM     11  C   UNL     1      -2.134  -0.970   0.411  0.00  0.00    +0.012 A 
ATOM     12  C   UNL     1      -2.773  -2.143   0.066  0.00  0.00    +0.004 A 
ENDBRANCH   1  10
BRANCH   5  13
ATOM     13  C   UNL     1       0.254   0.764   0.439  0.00  0.00    +0.250 C 
BRANCH  13  14
ATOM     14  C   UNL     1      -0.167   1.281  -0.912  0.00  0.00    +0.375 C 
ATOM     15  O   UNL     1      -1.063   2.086  -0.998  0.00  0.00    -0.244 OA
ATOM     16  O   UNL     1       0.454   0.847  -2.020  0.00  0.00    -0.244 OA
ENDBRANCH  13  14
ENDBRANCH   5  13
BRANCH   4  17
ATOM     17  S   UNL     1       1.054   3.627   1.884  0.00  0.00    -0.077 S 
BRANCH  17  18
ATOM     18  C   UNL     1       0.666   4.926   3.084  0.00  0.00    +0.173 C 
BRANCH  18  19
ATOM     19  C   UNL     1       1.742   5.981   3.048  0.00  0.00    +0.227 C 
ATOM     20  O   UNL     1       2.679   5.866   2.286  0.00  0.00    -0.275 OA
ATOM     21  N   UNL     1       1.664   7.051   3.862  0.00  0.00    -0.285 N 
ATOM     22  H   UNL     1       0.950   7.112   4.516  0.00  0.00    +0.155 HD
BRANCH  21  23
ATOM     23  C   UNL     1       2.612   8.076   3.764  0.00  0.00    +0.036 A 
ATOM     24  C   UNL     1       3.921   7.781   3.405  0.00  0.00    +0.024 A 
ATOM     25  C   UNL     1       4.854   8.795   3.309  0.00  0.00    +0.005 A 
ATOM     26  C   UNL     1       4.486  10.102   3.570  0.00  0.00    -0.050 A 
ATOM     27  C   UNL     1       3.184  10.399   3.927  0.00  0.00    +0.008 A 
ATOM     28  C   UNL     1       2.244   9.391   4.020  0.00  0.00    -0.029 A 
ATOM     29  C   UNL     1       0.824   9.716   4.403  0.00  0.00    +0.045 C 
ATOM     30  C   UNL     1       5.507  11.206   3.465  0.00  0.00    +0.044 C 
ENDBRANCH  21  23
ENDBRANCH  18  19
ENDBRANCH  17  18
ENDBRANCH   4  17
TORSDOF 7
