REMARK  Name = ZINC20347553
REMARK  10 active torsions:
REMARK  status: ('A' for Active; 'I' for Inactive)
REMARK    1  A    between atoms: C_1  and  C_2
REMARK    2  A    between atoms: C_7  and  N_8
REMARK    3  A    between atoms: C_9  and  C_11
REMARK    4  A    between atoms: C_11  and  S_12
REMARK    5  A    between atoms: S_12  and  C_13
REMARK    6  A    between atoms: C_14  and  C_35
REMARK    7  A    between atoms: C_15  and  C_30
REMARK    8  A    between atoms: C_17  and  C_21
REMARK    9  A    between atoms: C_18  and  C_20
REMARK   10  A    between atoms: N_23  and  C_24
REMARK                            x       y       z     vdW  Elec       q    Type
REMARK                         _______ _______ _______ _____ _____    ______ ____
ROOT
ATOM      1  C   UNL     1       1.047   2.864  -0.253  0.00  0.00    +0.080 C 
ATOM      2  C   UNL     1       0.071   2.215  -0.943  0.00  0.00    +0.072 C 
ATOM      3  C   UNL     1      -1.378   2.571  -0.763  0.00  0.00    +0.134 C 
ATOM      4  C   UNL     1      -1.523   3.898  -0.080  0.00  0.00    +0.047 C 
ATOM      5  C   UNL     1      -0.499   4.475   0.569  0.00  0.00    +0.015 C 
ATOM      6  N   UNL     1       0.728   3.871   0.630  0.00  0.00    -0.312 N 
ATOM      7  C   UNL     1      -0.703   5.809   1.241  0.00  0.00    +0.061 C 
ATOM      8  H   UNL     1       1.459   4.192   1.386  0.00  0.00    +0.152 HD
ENDROOT
BRANCH   3   9
ATOM      9  C   UNL     1      -2.044   2.630  -2.114  0.00  0.00    +0.118 A 
ATOM     10  C   UNL     1      -3.160   1.968  -2.470  0.00  0.00    +0.045 A 
ATOM     11  C   UNL     1      -3.428   2.312  -3.815  0.00  0.00    +0.041 A 
ATOM     12  C   UNL     1      -2.461   3.164  -4.200  0.00  0.00    +0.195 A 
ATOM     13  O   UNL     1      -1.629   3.357  -3.164  0.00  0.00    -0.467 OA
ENDBRANCH   3   9
BRANCH   4  14
ATOM     14  C   UNL     1      -2.772   4.563  -0.125  0.00  0.00    +0.247 C 
ATOM     15  O   UNL     1      -3.691   4.180   0.576  0.00  0.00    -0.270 OA
ATOM     16  N   UNL     1      -2.944   5.620  -0.944  0.00  0.00    -0.282 N 
ATOM     17  H   UNL     1      -2.148   5.905  -1.648  0.00  0.00    +0.155 HD
BRANCH  16  18
ATOM     18  C   UNL     1      -4.133   6.354  -0.897  0.00  0.00    +0.034 A 
ATOM     19  C   UNL     1      -4.816   6.497   0.303  0.00  0.00    +0.023 A 
ATOM     20  C   UNL     1      -5.987   7.228   0.347  0.00  0.00    +0.002 A 
ATOM     21  C   UNL     1      -6.486   7.807  -0.806  0.00  0.00    +0.000 A 
ATOM     22  C   UNL     1      -5.811   7.662  -2.004  0.00  0.00    +0.002 A 
ATOM     23  C   UNL     1      -4.636   6.937  -2.053  0.00  0.00    +0.023 A 
ENDBRANCH  16  18
ENDBRANCH   4  14
BRANCH   2  24
ATOM     24  C   UNL     1       0.430   1.177  -1.861  0.00  0.00    +0.098 C 
ATOM     25  N   UNL     1       0.716   0.353  -2.590  0.00  0.00    -0.191 NA
ENDBRANCH   2  24
BRANCH   1  26
ATOM     26  S   UNL     1       2.733   2.411  -0.490  0.00  0.00    -0.100 S 
BRANCH  26  27
ATOM     27  C   UNL     1       3.533   3.572   0.645  0.00  0.00    +0.171 C 
BRANCH  27  29
ATOM     28  N   UNL     1       5.831   4.120   1.380  0.00  0.00    -0.285 N 
ATOM     29  C   UNL     1       5.025   3.363   0.609  0.00  0.00    +0.227 C 
ATOM     30  O   UNL     1       5.501   2.513  -0.114  0.00  0.00    -0.275 OA
ATOM     31  H   UNL     1       5.396   4.838   2.091  0.00  0.00    +0.155 HD
BRANCH  28  38
ATOM     32  C   UNL     1       7.419   6.464   1.663  0.00  0.00    +0.045 C 
ATOM     33  C   UNL     1       8.033   5.111   1.408  0.00  0.00    -0.029 A 
ATOM     34  C   UNL     1       9.405   4.982   1.309  0.00  0.00    +0.005 A 
ATOM     35  C   UNL     1       9.968   3.742   1.069  0.00  0.00    +0.000 A 
ATOM     36  C   UNL     1       9.161   2.628   0.931  0.00  0.00    +0.002 A 
ATOM     37  C   UNL     1       7.789   2.749   1.034  0.00  0.00    +0.023 A 
ATOM     38  C   UNL     1       7.220   3.993   1.275  0.00  0.00    +0.036 A 
ENDBRANCH  28  38
ENDBRANCH  27  29
ENDBRANCH  26  27
ENDBRANCH   1  26
TORSDOF 8
