REMARK  Name = ZINC16043024
REMARK  4 active torsions:
REMARK  status: ('A' for Active; 'I' for Inactive)
REMARK    1  A    between atoms: C_1  and  C_2
REMARK    2  A    between atoms: N_21  and  C_24
REMARK    3  A    between atoms: C_24  and  C_25
REMARK    4  A    between atoms: C_25  and  C_26
REMARK                            x       y       z     vdW  Elec       q    Type
REMARK                         _______ _______ _______ _____ _____    ______ ____
ROOT
ATOM      1  C   UNL     1      -1.662   1.979   3.721  0.00  0.00    +0.035 C 
ATOM      2  C   UNL     1      -2.306   2.776   2.585  0.00  0.00    +0.121 C 
ATOM      3  C   UNL     1      -3.797   2.883   2.813  0.00  0.00    +0.041 A 
ATOM      4  C   UNL     1      -4.718   2.607   1.865  0.00  0.00    -0.015 A 
ATOM      5  C   UNL     1      -6.020   2.829   2.462  0.00  0.00    +0.003 A 
ATOM      6  C   UNL     1      -7.322   2.707   1.968  0.00  0.00    +0.010 A 
ATOM      7  C   UNL     1      -8.345   3.007   2.834  0.00  0.00    +0.001 A 
ATOM      8  C   UNL     1      -8.110   3.414   4.138  0.00  0.00    +0.002 A 
ATOM      9  C   UNL     1      -6.831   3.543   4.652  0.00  0.00    +0.026 A 
ATOM     10  C   UNL     1      -5.773   3.244   3.796  0.00  0.00    +0.047 A 
ATOM     11  N   UNL     1      -4.420   3.264   3.972  0.00  0.00    -0.356 N 
ATOM     12  H   UNL     1      -3.967   3.510   4.794  0.00  0.00    +0.166 HD
ATOM     13  C   UNL     1      -4.398   2.151   0.465  0.00  0.00    +0.069 C 
ATOM     14  C   UNL     1      -2.929   2.478   0.163  0.00  0.00    +0.167 C 
ATOM     15  N   UNL     1      -2.103   2.073   1.300  0.00  0.00    -0.280 N 
ATOM     16  C   UNL     1      -1.183   1.112   1.226  0.00  0.00    +0.234 C 
ATOM     17  O   UNL     1      -0.604   0.806   2.247  0.00  0.00    -0.274 OA
ATOM     18  C   UNL     1      -0.815   0.387  -0.028  0.00  0.00    +0.203 C 
ATOM     19  N   UNL     1      -1.567   0.867  -1.175  0.00  0.00    -0.291 N 
ATOM     20  C   UNL     1      -2.512   1.801  -1.103  0.00  0.00    +0.237 C 
ATOM     21  O   UNL     1      -3.071   2.124  -2.130  0.00  0.00    -0.274 OA
ENDROOT
BRANCH  19  22
ATOM     22  C   UNL     1      -1.266   0.289  -2.487  0.00  0.00    +0.112 C 
BRANCH  22  23
ATOM     23  C   UNL     1      -2.155  -0.934  -2.722  0.00  0.00    +0.049 C 
BRANCH  23  24
ATOM     24  C   UNL     1      -1.846  -1.529  -4.072  0.00  0.00    -0.072 C 
ATOM     25  C   UNL     1      -0.998  -2.505  -4.125  0.00  0.00    -0.028 C 
ATOM     26  C   UNL     1      -0.584  -3.190  -5.394  0.00  0.00    +0.027 C 
ATOM     27  C   UNL     1      -1.584  -2.882  -6.510  0.00  0.00    +0.004 C 
ATOM     28  C   UNL     1      -1.813  -1.366  -6.551  0.00  0.00    +0.005 C 
ATOM     29  C   UNL     1      -2.545  -0.956  -5.269  0.00  0.00    +0.030 C 
ENDBRANCH  23  24
ENDBRANCH  22  23
ENDBRANCH  19  22
TORSDOF 3
