REMARK  Name = ZINC25145971
REMARK  6 active torsions:
REMARK  status: ('A' for Active; 'I' for Inactive)
REMARK    1  A    between atoms: C_4  and  C_7
REMARK    2  A    between atoms: C_7  and  C_9
REMARK    3  A    between atoms: C_7  and  N_19
REMARK    4  A    between atoms: C_20  and  C_22
REMARK    5  A    between atoms: N_27  and  S_29
REMARK    6  A    between atoms: S_29  and  C_32
REMARK                            x       y       z     vdW  Elec       q    Type
REMARK                         _______ _______ _______ _____ _____    ______ ____
ROOT
ATOM      1  N   UNL     1       3.611  -1.865  -0.930  0.00  0.00    -0.304 N 
ATOM      2  C   UNL     1       3.825  -1.716  -2.253  0.00  0.00    +0.218 C 
ATOM      3  O   UNL     1       4.099  -0.624  -2.704  0.00  0.00    -0.275 OA
ATOM      4  H   UNL     1       3.392  -2.738  -0.569  0.00  0.00    +0.150 HD
ENDROOT
BRANCH   2   5
ATOM      5  C   UNL     1       3.722  -2.906  -3.171  0.00  0.00    +0.091 C 
ATOM      6  C   UNL     1       2.312  -3.495  -3.089  0.00  0.00    +0.015 C 
ATOM      7  C   UNL     1       2.216  -4.723  -3.996  0.00  0.00    +0.018 C 
ATOM      8  C   UNL     1       2.482  -4.305  -5.446  0.00  0.00    +0.109 C 
ATOM      9  N   UNL     1       3.774  -3.608  -5.507  0.00  0.00    -0.175 NA
ATOM     10  C   UNL     1       4.006  -2.467  -4.611  0.00  0.00    +0.122 C 
BRANCH   9  11
ATOM     11  S   UNL     1       4.948  -4.100  -6.567  0.00  0.00    +0.067 S 
ATOM     12  O   UNL     1       6.188  -3.657  -6.033  0.00  0.00    -0.152 OA
ATOM     13  O   UNL     1       4.688  -5.467  -6.855  0.00  0.00    -0.152 OA
BRANCH  11  14
ATOM     14  C   UNL     1       4.700  -3.212  -8.068  0.00  0.00    +0.143 A 
ATOM     15  C   UNL     1       5.218  -2.019  -8.450  0.00  0.00    +0.036 A 
ATOM     16  C   UNL     1       4.881  -1.508  -9.690  0.00  0.00    +0.010 A 
ATOM     17  C   UNL     1       4.042  -2.215 -10.486  0.00  0.00    +0.047 A 
ATOM     18  S   UNL     1       3.707  -3.654  -9.485  0.00  0.00    -0.077 S 
ENDBRANCH  11  14
ENDBRANCH   9  11
ENDBRANCH   2   5
BRANCH   1  19
ATOM     19  C   UNL     1       3.711  -0.707  -0.038  0.00  0.00    +0.134 C 
BRANCH  19  20
ATOM     20  C   UNL     1       4.044  -1.175   1.356  0.00  0.00    -0.021 A 
ATOM     21  C   UNL     1       3.450  -2.325   1.857  0.00  0.00    +0.008 A 
ATOM     22  C   UNL     1       3.739  -2.765   3.118  0.00  0.00    +0.030 A 
ATOM     23  C   UNL     1       4.640  -2.054   3.914  0.00  0.00    +0.089 A 
ATOM     24  C   UNL     1       5.241  -0.890   3.408  0.00  0.00    +0.066 A 
ATOM     25  C   UNL     1       4.940  -0.460   2.122  0.00  0.00    +0.033 A 
ATOM     26  N   UNL     1       6.066  -0.420   4.410  0.00  0.00    -0.344 N 
ATOM     27  H   UNL     1       6.623   0.373   4.371  0.00  0.00    +0.167 HD
ATOM     28  C   UNL     1       5.952  -1.275   5.462  0.00  0.00    +0.197 A 
ATOM     29  N   UNL     1       5.119  -2.231   5.173  0.00  0.00    -0.236 NA
ENDBRANCH  19  20
BRANCH  19  33
ATOM     30  C   UNL     1      -0.017   1.378   0.010  0.00  0.00    +0.000 A 
ATOM     31  C   UNL     1       1.171   2.086   0.002  0.00  0.00    +0.000 A 
ATOM     32  C   UNL     1       2.377   1.411  -0.013  0.00  0.00    +0.006 A 
ATOM     33  C   UNL     1       2.396   0.029  -0.020  0.00  0.00    -0.023 A 
ATOM     34  C   UNL     1       1.208  -0.679  -0.012  0.00  0.00    +0.006 A 
ATOM     35  C   UNL     1       0.002  -0.004   0.002  0.00  0.00    +0.000 A 
ENDBRANCH  19  33
ENDBRANCH   1  19
TORSDOF 6
