REMARK  Name = ZINC47819198
REMARK  3 active torsions:
REMARK  status: ('A' for Active; 'I' for Inactive)
REMARK    1  A    between atoms: C_5  and  C_7
REMARK    2  A    between atoms: C_7  and  C_9
REMARK    3  A    between atoms: C_9  and  N_10
REMARK                            x       y       z     vdW  Elec       q    Type
REMARK                         _______ _______ _______ _____ _____    ______ ____
ROOT
ATOM      1  C   UNL     1      -0.036  -2.933  -0.014  0.00  0.00    +0.208 C 
ENDROOT
BRANCH   1   2
ATOM      2  N   UNL     1       0.260  -4.367  -0.026  0.00  0.00    -0.267 N 
ATOM      3  C   UNL     1       0.420  -5.167  -1.157  0.00  0.00    +0.091 A 
ATOM      4  C   UNL     1       0.362  -4.913  -2.518  0.00  0.00    +0.030 A 
ATOM      5  C   UNL     1       0.570  -5.940  -3.418  0.00  0.00    +0.002 A 
ATOM      6  C   UNL     1       0.835  -7.220  -2.964  0.00  0.00    +0.004 A 
ATOM      7  C   UNL     1       0.895  -7.481  -1.609  0.00  0.00    +0.048 A 
ATOM      8  C   UNL     1       0.688  -6.457  -0.698  0.00  0.00    +0.157 A 
ATOM      9  O   UNL     1       0.684  -6.411   0.656  0.00  0.00    -0.407 OA
ATOM     10  C   UNL     1       0.432  -5.154   1.055  0.00  0.00    +0.422 A 
ATOM     11  O   UNL     1       0.367  -4.784   2.211  0.00  0.00    -0.223 OA
ENDBRANCH   1   2
BRANCH   1  12
ATOM     12  C   UNL     1       1.254  -2.154  -0.023  0.00  0.00    +0.186 C 
ATOM     13  O   UNL     1       2.316  -2.739  -0.037  0.00  0.00    -0.290 OA
BRANCH  12  18
ATOM     14  C   UNL     1      -0.017   1.373   0.010  0.00  0.00    +0.001 A 
ATOM     15  C   UNL     1       1.170   2.087   0.002  0.00  0.00    +0.003 A 
ATOM     16  C   UNL     1       2.384   1.427  -0.013  0.00  0.00    +0.039 A 
ATOM     17  C   UNL     1       2.422   0.044  -0.022  0.00  0.00    +0.134 A 
ATOM     18  C   UNL     1       1.225  -0.684  -0.014  0.00  0.00    +0.054 A 
ATOM     19  C   UNL     1       0.002  -0.004   0.002  0.00  0.00    +0.014 A 
ATOM     20  F   UNL     1       3.609  -0.601  -0.038  0.00  0.00    -0.205 F 
ENDBRANCH  12  18
ENDBRANCH   1  12
TORSDOF 3
