REMARK  Name = ZINC66257560
REMARK  9 active torsions:
REMARK  status: ('A' for Active; 'I' for Inactive)
REMARK    1  A    between atoms: C_4  and  C_8
REMARK    2  A    between atoms: C_8  and  C_9
REMARK    3  A    between atoms: C_12  and  S_14
REMARK    4  A    between atoms: S_14  and  C_15
REMARK    5  A    between atoms: C_15  and  C_16
REMARK    6  A    between atoms: C_16  and  C_17
REMARK    7  A    between atoms: C_17  and  O_18
REMARK    8  A    between atoms: O_18  and  C_19
REMARK    9  A    between atoms: C_19  and  C_20
REMARK                            x       y       z     vdW  Elec       q    Type
REMARK                         _______ _______ _______ _____ _____    ______ ____
ROOT
ATOM      1  C   UNL     1       4.165  -0.963   1.377  0.00  0.00    +0.223 A 
ATOM      2  N   UNL     1       3.888  -2.010   2.097  0.00  0.00    -0.111 NA
ATOM      3  N   UNL     1       4.436  -1.894   3.255  0.00  0.00    -0.101 NA
ATOM      4  C   UNL     1       5.089  -0.758   3.315  0.00  0.00    +0.277 A 
ATOM      5  O   UNL     1       4.935  -0.147   2.125  0.00  0.00    -0.415 OA
ENDROOT
BRANCH   1   6
ATOM      6  C   UNL     1       3.713  -0.710  -0.038  0.00  0.00    +0.137 C 
BRANCH   6  10
ATOM      7  C   UNL     1      -0.017   1.378   0.010  0.00  0.00    +0.004 A 
ATOM      8  C   UNL     1       1.170   2.086   0.002  0.00  0.00    +0.039 A 
ATOM      9  C   UNL     1       2.379   1.411  -0.013  0.00  0.00    +0.128 A 
ATOM     10  C   UNL     1       2.398   0.026  -0.021  0.00  0.00    +0.015 A 
ATOM     11  C   UNL     1       1.209  -0.680  -0.013  0.00  0.00    +0.047 A 
ATOM     12  C   UNL     1       0.002  -0.004   0.002  0.00  0.00    +0.020 A 
ATOM     13 CL   UNL     1       1.232  -2.416  -0.022  0.00  0.00    -0.083 Cl
ATOM     14  F   UNL     1       3.539   2.103  -0.021  0.00  0.00    -0.205 F 
ENDBRANCH   6  10
ENDBRANCH   1   6
BRANCH   4  15
ATOM     15  S   UNL     1       6.002  -0.148   4.693  0.00  0.00    -0.066 S 
BRANCH  15  16
ATOM     16  C   UNL     1       5.815  -1.442   5.950  0.00  0.00    +0.081 C 
BRANCH  16  17
ATOM     17  C   UNL     1       6.570  -1.035   7.217  0.00  0.00    +0.039 C 
BRANCH  17  18
ATOM     18  C   UNL     1       6.412  -2.126   8.278  0.00  0.00    +0.161 C 
BRANCH  18  19
ATOM     19  O   UNL     1       7.117  -1.745   9.461  0.00  0.00    -0.371 OA
BRANCH  19  20
ATOM     20  C   UNL     1       7.033  -2.701  10.521  0.00  0.00    +0.272 C 
BRANCH  20  21
ATOM     21  C   UNL     1       7.820  -2.192  11.730  0.00  0.00    +0.413 C 
ATOM     22  F   UNL     1       7.282  -0.974  12.158  0.00  0.00    -0.168 F 
ATOM     23  F   UNL     1       7.738  -3.128  12.767  0.00  0.00    -0.168 F 
ATOM     24  F   UNL     1       9.160  -2.010  11.371  0.00  0.00    -0.168 F 
ENDBRANCH  20  21
ENDBRANCH  19  20
ENDBRANCH  18  19
ENDBRANCH  17  18
ENDBRANCH  16  17
ENDBRANCH  15  16
ENDBRANCH   4  15
TORSDOF 9
