REMARK  Name = ZINC20076438
REMARK  14 active torsions:
REMARK  status: ('A' for Active; 'I' for Inactive)
REMARK    1  A    between atoms: C_1  and  C_2
REMARK    2  A    between atoms: C_2  and  N_3
REMARK    3  A    between atoms: N_3  and  C_4
REMARK    4  A    between atoms: C_4  and  C_5
REMARK    5  A    between atoms: C_6  and  C_8
REMARK    6  A    between atoms: N_14  and  S_15
REMARK    7  A    between atoms: S_15  and  C_18
REMARK    8  A    between atoms: C_20  and  N_36
REMARK    9  A    between atoms: C_23  and  N_24
REMARK   10  A    between atoms: N_24  and  N_25
REMARK   11  A    between atoms: C_26  and  C_27
REMARK   12  A    between atoms: C_30  and  N_33
REMARK   13  A    between atoms: N_33  and  C_34
REMARK   14  A    between atoms: N_33  and  C_35
REMARK                            x       y       z     vdW  Elec       q    Type
REMARK                         _______ _______ _______ _____ _____    ______ ____
ROOT
ATOM      1  C   UNL     1      -1.240   1.913  -2.112  0.00  0.00    +0.130 A 
ATOM      2  C   UNL     1      -0.638   2.879  -2.894  0.00  0.00    +0.063 A 
ATOM      3  C   UNL     1      -1.110   3.131  -4.170  0.00  0.00    +0.128 A 
ATOM      4  C   UNL     1      -2.193   2.426  -4.662  0.00  0.00    +0.035 A 
ATOM      5  C   UNL     1      -2.803   1.462  -3.884  0.00  0.00    +0.029 A 
ATOM      6  C   UNL     1      -2.328   1.202  -2.604  0.00  0.00    +0.075 A 
ENDROOT
BRANCH   1   7
ATOM      7  S   UNL     1      -0.633   1.587  -0.490  0.00  0.00    +0.063 S 
ATOM      8  O   UNL     1      -1.496   2.269   0.410  0.00  0.00    -0.153 OA
ATOM      9  O   UNL     1      -0.407   0.186  -0.415  0.00  0.00    -0.153 OA
BRANCH   7  15
ATOM     10  C   UNL     1       2.054   1.648  -0.882  0.00  0.00    +0.166 C 
ATOM     11  C   UNL     1       2.771   2.610  -1.842  0.00  0.00    +0.030 C 
ATOM     12  C   UNL     1       3.043   3.932  -1.122  0.00  0.00    +0.003 C 
ATOM     13  C   UNL     1       1.716   4.570  -0.704  0.00  0.00    +0.017 C 
ATOM     14  C   UNL     1       0.987   3.633   0.265  0.00  0.00    +0.110 C 
ATOM     15  N   UNL     1       0.850   2.314  -0.367  0.00  0.00    -0.165 NA
BRANCH  10  17
ATOM     16  N   UNL     1       2.312  -0.762  -1.376  0.00  0.00    -0.301 N 
ATOM     17  C   UNL     1       1.662   0.394  -1.619  0.00  0.00    +0.234 C 
ATOM     18  O   UNL     1       0.762   0.424  -2.432  0.00  0.00    -0.274 OA
BRANCH  16  20
ATOM     19  C   UNL     1       2.658  -1.131   1.017  0.00  0.00    +0.024 C 
ATOM     20  C   UNL     1       3.329  -0.823  -0.324  0.00  0.00    +0.104 C 
ENDBRANCH  16  20
BRANCH  16  21
ATOM     21  C   UNL     1       2.001  -1.957  -2.164  0.00  0.00    +0.104 C 
ATOM     22  C   UNL     1       2.906  -2.005  -3.397  0.00  0.00    +0.024 C 
ENDBRANCH  16  21
ENDBRANCH  10  17
ENDBRANCH   7  15
ENDBRANCH   1   7
BRANCH   3  23
ATOM     23  N   UNL     1      -0.456   4.166  -5.010  0.00  0.00    +0.056 N 
ATOM     24  O   UNL     1      -0.874   4.393  -6.131  0.00  0.00    -0.126 OA
ATOM     25  O   UNL     1       0.497   4.788  -4.577  0.00  0.00    -0.126 OA
ENDBRANCH   3  23
BRANCH   6  26
ATOM     26  N   UNL     1      -2.942   0.229  -1.815  0.00  0.00    -0.236 N 
ATOM     27  H   UNL     1      -2.622   0.083  -0.773  0.00  0.00    +0.174 HD
BRANCH  26  28
ATOM     28  N   UNL     1      -3.967  -0.562  -2.349  0.00  0.00    -0.190 NA
ATOM     29  C   UNL     1      -4.539  -1.468  -1.615  0.00  0.00    +0.138 C 
BRANCH  29  30
ATOM     30  C   UNL     1      -5.617  -2.300  -2.177  0.00  0.00    -0.005 A 
ATOM     31  C   UNL     1      -6.030  -2.112  -3.499  0.00  0.00    +0.011 A 
ATOM     32  C   UNL     1      -7.036  -2.896  -4.023  0.00  0.00    +0.024 A 
ATOM     33  C   UNL     1      -7.647  -3.865  -3.234  0.00  0.00    +0.029 A 
ATOM     34  C   UNL     1      -7.242  -4.051  -1.917  0.00  0.00    +0.024 A 
ATOM     35  C   UNL     1      -6.234  -3.275  -1.388  0.00  0.00    +0.011 A 
BRANCH  33  36
ATOM     36  N   UNL     1      -8.668  -4.652  -3.767  0.00  0.00    -0.336 N 
ATOM     37  C   UNL     1      -9.224  -5.758  -2.983  0.00  0.00    +0.129 C 
ATOM     38  C   UNL     1      -9.184  -4.374  -5.109  0.00  0.00    +0.129 C 
ENDBRANCH  33  36
ENDBRANCH  29  30
ENDBRANCH  26  28
ENDBRANCH   6  26
TORSDOF 10
