REMARK  Name = ZINC63557198
REMARK  7 active torsions:
REMARK  status: ('A' for Active; 'I' for Inactive)
REMARK    1  A    between atoms: C_1  and  C_2
REMARK    2  A    between atoms: N_4  and  C_5
REMARK    3  A    between atoms: C_8  and  N_11
REMARK    4  A    between atoms: C_12  and  C_14
REMARK    5  A    between atoms: N_19  and  C_21
REMARK    6  A    between atoms: C_21  and  C_22
REMARK    7  A    between atoms: C_22  and  C_23
REMARK                            x       y       z     vdW  Elec       q    Type
REMARK                         _______ _______ _______ _____ _____    ______ ____
ROOT
ATOM      1  C   UNL     1      -1.678  -8.512  -0.017  0.00  0.00    +0.101 C 
ATOM      2  C   UNL     1      -0.911  -8.943  -1.288  0.00  0.00    +0.110 C 
ATOM      3  C   UNL     1      -1.603 -10.215  -1.726  0.00  0.00    +0.216 C 
ATOM      4  O   UNL     1      -1.146 -11.020  -2.510  0.00  0.00    -0.276 OA
ATOM      5  N   UNL     1      -2.797 -10.324  -1.118  0.00  0.00    -0.300 N 
ATOM      6  C   UNL     1      -3.054  -9.179  -0.236  0.00  0.00    +0.121 C 
ENDROOT
BRANCH   1   8
ATOM      7  N   UNL     1      -0.710  -6.244   0.177  0.00  0.00    -0.285 N 
ATOM      8  C   UNL     1      -1.810  -7.012   0.052  0.00  0.00    +0.222 C 
ATOM      9  O   UNL     1      -2.906  -6.497  -0.006  0.00  0.00    -0.275 OA
ATOM     10  H   UNL     1       0.160  -6.657   0.291  0.00  0.00    +0.155 HD
BRANCH   7  14
ATOM     11  C   UNL     1      -1.047  -2.089   0.075  0.00  0.00    +0.033 A 
ATOM     12  C   UNL     1       0.068  -2.709  -0.474  0.00  0.00    +0.025 A 
ATOM     13  C   UNL     1       0.179  -4.084  -0.440  0.00  0.00    +0.025 A 
ATOM     14  C   UNL     1      -0.823  -4.848   0.143  0.00  0.00    +0.034 A 
ATOM     15  C   UNL     1      -1.938  -4.228   0.693  0.00  0.00    +0.025 A 
ATOM     16  C   UNL     1      -2.047  -2.853   0.664  0.00  0.00    +0.025 A 
BRANCH  11  20
ATOM     17  C   UNL     1      -1.766   1.468   1.081  0.00  0.00    +0.109 C 
ATOM     18  C   UNL     1      -1.737  -0.038   1.069  0.00  0.00    +0.214 C 
ATOM     19  O   UNL     1      -2.232  -0.662   1.984  0.00  0.00    -0.276 OA
ATOM     20  N   UNL     1      -1.161  -0.693   0.041  0.00  0.00    -0.286 N 
ATOM     21  H   UNL     1      -0.824  -0.198  -0.722  0.00  0.00    +0.155 HD
ENDBRANCH  11  20
ENDBRANCH   7  14
ENDBRANCH   1   8
BRANCH   5  22
ATOM     22  C   UNL     1      -3.723 -11.443  -1.310  0.00  0.00    +0.112 C 
BRANCH  22  23
ATOM     23  C   UNL     1      -3.424 -12.535  -0.281  0.00  0.00    +0.052 C 
BRANCH  23  24
ATOM     24  C   UNL     1      -4.376 -13.686  -0.479  0.00  0.00    -0.040 C 
ATOM     25  C   UNL     1      -4.154 -14.812  -1.196  0.00  0.00    +0.000 A 
ATOM     26  C   UNL     1      -3.003 -15.283  -1.976  0.00  0.00    +0.030 A 
ATOM     27  C   UNL     1      -3.079 -16.482  -2.598  0.00  0.00    +0.042 A 
ATOM     28  C   UNL     1      -4.227 -17.284  -2.517  0.00  0.00    +0.022 A 
ATOM     29  C   UNL     1      -5.323 -16.918  -1.819  0.00  0.00    +0.027 A 
ATOM     30  C   UNL     1      -5.353 -15.677  -1.125  0.00  0.00    +0.043 A 
ATOM     31  N   UNL     1      -6.280 -15.108  -0.394  0.00  0.00    -0.380 N 
ATOM     32  C   UNL     1      -5.771 -13.820   0.088  0.00  0.00    +0.144 C 
ATOM     33 CL   UNL     1      -1.720 -17.042  -3.522  0.00  0.00    -0.084 Cl
ATOM     34  H   UNL     1      -7.156 -15.479  -0.200  0.00  0.00    +0.160 HD
ENDBRANCH  23  24
ENDBRANCH  22  23
ENDBRANCH   5  22
TORSDOF 6
