REMARK  Name = ZINC49188081
REMARK  5 active torsions:
REMARK  status: ('A' for Active; 'I' for Inactive)
REMARK    1  A    between atoms: C_1  and  C_2
REMARK    2  A    between atoms: C_5  and  C_7
REMARK    3  A    between atoms: C_7  and  C_9
REMARK    4  A    between atoms: C_7  and  N_10
REMARK    5  A    between atoms: C_17  and  C_20
REMARK                            x       y       z     vdW  Elec       q    Type
REMARK                         _______ _______ _______ _____ _____    ______ ____
ROOT
ATOM      1  N   UNL     1       2.201  -4.137  -0.921  0.00  0.00    -0.292 N 
ATOM      2  C   UNL     1       2.539  -5.311  -1.489  0.00  0.00    +0.303 C 
ATOM      3  O   UNL     1       1.940  -6.326  -1.189  0.00  0.00    -0.253 OA
ATOM      4  N   UNL     1       3.542  -5.361  -2.388  0.00  0.00    -0.285 N 
ATOM      5  C   UNL     1       4.351  -4.168  -2.675  0.00  0.00    +0.109 C 
ATOM      6  C   UNL     1       4.341  -3.917  -4.186  0.00  0.00    +0.020 C 
ATOM      7  C   UNL     1       4.806  -5.181  -4.912  0.00  0.00    +0.018 C 
ATOM      8  C   UNL     1       3.842  -6.330  -4.607  0.00  0.00    +0.119 C 
ATOM      9  C   UNL     1       3.850  -6.611  -3.097  0.00  0.00    +0.124 C 
ATOM     10  H   UNL     1       2.725  -3.341  -1.104  0.00  0.00    +0.151 HD
ENDROOT
BRANCH   8  11
ATOM     11  C   UNL     1       4.282  -7.566  -5.349  0.00  0.00    +0.361 C 
ATOM     12  O   UNL     1       4.054  -8.670  -4.885  0.00  0.00    -0.246 OA
ATOM     13  O   UNL     1       4.867  -7.462  -6.414  0.00  0.00    -0.246 OA
ENDBRANCH   8  11
BRANCH   1  14
ATOM     14  C   UNL     1       1.042  -4.061  -0.029  0.00  0.00    +0.108 C 
ATOM     15  C   UNL     1       1.462  -4.457   1.388  0.00  0.00    +0.033 C 
BRANCH  14  20
ATOM     16  C   UNL     1      -0.020   1.503   0.006  0.00  0.00    +0.051 C 
ATOM     17  C   UNL     1       0.000  -0.004  -0.002  0.00  0.00    -0.013 A 
ATOM     18  C   UNL     1      -1.041  -0.872  -0.003  0.00  0.00    +0.011 A 
ATOM     19  C   UNL     1      -0.782  -2.229  -0.012  0.00  0.00    +0.013 A 
ATOM     20  C   UNL     1       0.506  -2.653  -0.019  0.00  0.00    +0.010 A 
ATOM     21  S   UNL     1       1.402  -1.109  -0.020  0.00  0.00    -0.097 S 
ENDBRANCH  14  20
ENDBRANCH   1  14
TORSDOF 3
