REMARK  Name = ZINC34708268
REMARK  10 active torsions:
REMARK  status: ('A' for Active; 'I' for Inactive)
REMARK    1  A    between atoms: C_5  and  O_7
REMARK    2  A    between atoms: O_7  and  C_8
REMARK    3  A    between atoms: C_8  and  C_10
REMARK    4  A    between atoms: C_8  and  C_29
REMARK    5  A    between atoms: C_10  and  N_11
REMARK    6  A    between atoms: N_11  and  C_12
REMARK    7  A    between atoms: N_11  and  C_22
REMARK    8  A    between atoms: C_12  and  C_13
REMARK    9  A    between atoms: C_22  and  C_23
REMARK   10  A    between atoms: N_31  and  C_32
REMARK                            x       y       z     vdW  Elec       q    Type
REMARK                         _______ _______ _______ _____ _____    ______ ____
ROOT
ATOM      1  C   UNL     1      -0.549  -2.593  -0.112  0.00  0.00    +0.242 C 
ENDROOT
BRANCH   1   2
ATOM      2  C   UNL     1      -1.322  -2.812   1.163  0.00  0.00    +0.252 C 
ATOM      3  O   UNL     1      -0.878  -2.408   2.217  0.00  0.00    -0.272 OA
ATOM      4  N   UNL     1      -2.506  -3.455   1.132  0.00  0.00    -0.309 N 
ATOM      5  H   UNL     1      -2.861  -3.777   0.289  0.00  0.00    +0.149 HD
BRANCH   4   6
ATOM      6  C   UNL     1      -3.257  -3.668   2.372  0.00  0.00    +0.073 C 
ATOM      7  C   UNL     1      -2.752  -4.936   3.063  0.00  0.00    +0.022 C 
ATOM      8  C   UNL     1      -3.536  -5.158   4.358  0.00  0.00    +0.002 C 
ATOM      9  C   UNL     1      -5.024  -5.311   4.033  0.00  0.00    +0.000 C 
ATOM     10  C   UNL     1      -5.529  -4.043   3.342  0.00  0.00    +0.002 C 
ATOM     11  C   UNL     1      -4.744  -3.821   2.047  0.00  0.00    +0.022 C 
ENDBRANCH   4   6
ENDBRANCH   1   2
BRANCH   1  12
ATOM     12  O   UNL     1       0.603  -1.794   0.160  0.00  0.00    -0.479 OA
BRANCH  12  17
ATOM     13  C   UNL     1      -0.994   1.468  -0.052  0.00  0.00    +0.004 A 
ATOM     14  C   UNL     1       0.062   2.296   0.283  0.00  0.00    +0.003 A 
ATOM     15  C   UNL     1       1.300   1.756   0.577  0.00  0.00    +0.042 A 
ATOM     16  C   UNL     1       1.485   0.386   0.537  0.00  0.00    +0.165 A 
ATOM     17  C   UNL     1       0.425  -0.447   0.201  0.00  0.00    +0.157 A 
ATOM     18  C   UNL     1      -0.815   0.099  -0.093  0.00  0.00    +0.048 A 
ATOM     19  F   UNL     1       2.696  -0.142   0.823  0.00  0.00    -0.202 F 
ENDBRANCH  12  17
ENDBRANCH   1  12
BRANCH   1  20
ATOM     20  C   UNL     1      -0.111  -3.944  -0.681  0.00  0.00    -0.023 C 
BRANCH  20  21
ATOM     21  N   UNL     1       0.461  -3.749  -2.020  0.00  0.00    +0.387 N 
ATOM     22  H   UNL     1      -0.185  -3.223  -2.588  0.00  0.00    -0.081 HD
BRANCH  21  23
ATOM     23  C   UNL     1       1.727  -3.013  -1.909  0.00  0.00    -0.043 C 
BRANCH  23  24
ATOM     24  C   UNL     1       2.297  -2.783  -3.285  0.00  0.00    -0.060 A 
ATOM     25  C   UNL     1       3.149  -3.717  -3.844  0.00  0.00    +0.005 A 
ATOM     26  C   UNL     1       3.674  -3.511  -5.106  0.00  0.00    +0.050 A 
ATOM     27  C   UNL     1       3.346  -2.367  -5.815  0.00  0.00    +0.166 A 
ATOM     28  C   UNL     1       2.487  -1.426  -5.252  0.00  0.00    +0.166 A 
ATOM     29  C   UNL     1       1.961  -1.642  -3.989  0.00  0.00    +0.051 A 
ATOM     30  O   UNL     1       2.323  -0.400  -6.138  0.00  0.00    -0.453 OA
ATOM     31  C   UNL     1       3.408  -0.525  -7.076  0.00  0.00    +0.466 C 
ATOM     32  O   UNL     1       3.720  -1.931  -7.053  0.00  0.00    -0.453 OA
ENDBRANCH  23  24
ENDBRANCH  21  23
BRANCH  21  33
ATOM     33  C   UNL     1       0.708  -5.057  -2.642  0.00  0.00    -0.046 C 
BRANCH  33  34
ATOM     34  C   UNL     1      -0.626  -5.764  -2.890  0.00  0.00    +0.102 C 
ATOM     35  C   UNL     1      -0.374  -7.162  -3.494  0.00  0.00    +0.032 C 
ATOM     36  C   UNL     1      -1.514  -7.279  -4.541  0.00  0.00    +0.030 C 
ATOM     37  C   UNL     1      -1.635  -5.808  -5.012  0.00  0.00    +0.160 C 
ATOM     38  O   UNL     1      -1.403  -5.017  -3.833  0.00  0.00    -0.378 OA
ENDBRANCH  33  34
ENDBRANCH  21  33
ENDBRANCH  20  21
ENDBRANCH   1  20
TORSDOF 10
