REMARK  Name = ZINC34921649
REMARK  13 active torsions:
REMARK  status: ('A' for Active; 'I' for Inactive)
REMARK    1  A    between atoms: C_1  and  C_2
REMARK    2  A    between atoms: C_2  and  C_3
REMARK    3  A    between atoms: C_2  and  C_4
REMARK    4  A    between atoms: C_2  and  C_5
REMARK    5  A    between atoms: N_7  and  C_8
REMARK    6  A    between atoms: C_11  and  N_30
REMARK    7  A    between atoms: C_12  and  C_14
REMARK    8  A    between atoms: C_14  and  N_15
REMARK    9  A    between atoms: N_15  and  C_16
REMARK   10  A    between atoms: C_16  and  C_17
REMARK   11  A    between atoms: C_23  and  C_25
REMARK   12  A    between atoms: N_30  and  C_31
REMARK   13  A    between atoms: N_30  and  C_32
REMARK                            x       y       z     vdW  Elec       q    Type
REMARK                         _______ _______ _______ _____ _____    ______ ____
ROOT
ATOM      1  C   UNL     1       2.131  -2.379  -2.514  0.00  0.00    +0.034 A 
ATOM      2  C   UNL     1       2.695  -1.526  -3.453  0.00  0.00    +0.025 A 
ATOM      3  C   UNL     1       3.074  -2.012  -4.688  0.00  0.00    +0.025 A 
ATOM      4  C   UNL     1       2.893  -3.356  -4.991  0.00  0.00    +0.034 A 
ATOM      5  C   UNL     1       2.330  -4.209  -4.051  0.00  0.00    -0.007 A 
ATOM      6  C   UNL     1       1.955  -3.723  -2.814  0.00  0.00    +0.030 A 
ENDROOT
BRANCH   1   9
ATOM      7  C   UNL     1       1.234  -0.643  -1.154  0.00  0.00    +0.223 C 
ATOM      8  O   UNL     1       1.177   0.075  -2.129  0.00  0.00    -0.275 OA
ATOM      9  N   UNL     1       1.746  -1.885  -1.260  0.00  0.00    -0.285 N 
ATOM     10  H   UNL     1       1.849  -2.437  -0.469  0.00  0.00    +0.155 HD
BRANCH   7  12
ATOM     11  C   UNL     1       0.204   1.281   0.024  0.00  0.00    +0.020 C 
ATOM     12  C   UNL     1       0.730  -0.147   0.177  0.00  0.00    +0.039 C 
ATOM     13  C   UNL     1       1.874  -0.163   1.193  0.00  0.00    +0.020 C 
ATOM     14  C   UNL     1      -0.399  -1.056   0.667  0.00  0.00    +0.020 C 
ENDBRANCH   7  12
ENDBRANCH   1   9
BRANCH   4  15
ATOM     15  N   UNL     1       3.277  -3.849  -6.242  0.00  0.00    -0.336 N 
ATOM     16  C   UNL     1       4.624  -4.393  -6.433  0.00  0.00    +0.129 C 
ATOM     17  C   UNL     1       2.333  -3.821  -7.362  0.00  0.00    +0.129 C 
ENDBRANCH   4  15
BRANCH   5  18
ATOM     18  C   UNL     1       2.133  -5.667  -4.379  0.00  0.00    +0.145 C 
BRANCH  18  19
ATOM     19  N   UNL     1       1.435  -6.326  -3.273  0.00  0.00    -0.290 N 
ATOM     20  C   UNL     1       2.137  -6.835  -2.240  0.00  0.00    +0.254 C 
ATOM     21  O   UNL     1       1.568  -7.471  -1.373  0.00  0.00    -0.269 OA
BRANCH  20  22
ATOM     22  C   UNL     1       3.585  -6.622  -2.163  0.00  0.00    +0.074 A 
ATOM     23  C   UNL     1       4.498  -7.144  -1.260  0.00  0.00    +0.021 A 
ATOM     24  C   UNL     1       5.805  -6.759  -1.442  0.00  0.00    +0.008 A 
ATOM     25  C   UNL     1       6.109  -5.919  -2.462  0.00  0.00    +0.046 A 
ATOM     26  S   UNL     1       4.633  -5.631  -3.212  0.00  0.00    -0.092 S 
ENDBRANCH  20  22
BRANCH  19  27
ATOM     27  C   UNL     1      -0.026  -6.433  -3.288  0.00  0.00    +0.140 C 
BRANCH  27  28
ATOM     28  C   UNL     1      -0.435  -7.735  -3.982  0.00  0.00    +0.136 C 
ATOM     29  C   UNL     1      -1.972  -7.804  -4.100  0.00  0.00    +0.035 C 
ATOM     30  C   UNL     1      -2.258  -9.303  -3.810  0.00  0.00    +0.031 C 
ATOM     31  C   UNL     1      -1.151  -9.617  -2.772  0.00  0.00    +0.160 C 
ATOM     32  O   UNL     1      -0.008  -8.856  -3.200  0.00  0.00    -0.375 OA
ENDBRANCH  27  28
ENDBRANCH  19  27
ENDBRANCH  18  19
ENDBRANCH   5  18
TORSDOF 8
