REMARK  Name = ZINC39546214
REMARK  7 active torsions:
REMARK  status: ('A' for Active; 'I' for Inactive)
REMARK    1  A    between atoms: C_1  and  C_2
REMARK    2  A    between atoms: C_5  and  C_32
REMARK    3  A    between atoms: C_6  and  N_8
REMARK    4  A    between atoms: C_14  and  C_16
REMARK    5  A    between atoms: C_16  and  N_23
REMARK    6  A    between atoms: C_17  and  C_18
REMARK    7  A    between atoms: C_24  and  C_26
REMARK                            x       y       z     vdW  Elec       q    Type
REMARK                         _______ _______ _______ _____ _____    ______ ____
ROOT
ATOM      1  C   UNL     1      -1.223  -3.977   6.984  0.00  0.00    +0.097 C 
ATOM      2  C   UNL     1      -1.729  -3.161   7.946  0.00  0.00    +0.043 C 
ENDROOT
BRANCH   1   9
ATOM      3  N   UNL     1      -0.370  -2.378   2.442  0.00  0.00    -0.327 N 
ATOM      4  C   UNL     1       0.959  -2.724   2.966  0.00  0.00    +0.124 C 
ATOM      5  C   UNL     1       1.033  -2.296   4.437  0.00  0.00    +0.127 C 
ATOM      6  N   UNL     1      -0.157  -2.803   5.134  0.00  0.00    -0.294 N 
ATOM      7  C   UNL     1      -1.486  -2.457   4.611  0.00  0.00    +0.127 C 
ATOM      8  C   UNL     1      -1.560  -2.881   3.143  0.00  0.00    +0.124 C 
ATOM      9  C   UNL     1      -0.032  -3.573   6.234  0.00  0.00    +0.261 C 
ATOM     10  O   UNL     1       1.071  -3.931   6.603  0.00  0.00    -0.269 OA
BRANCH   3  16
ATOM     11  C   UNL     1      -0.784   2.086   0.428  0.00  0.00    +0.044 C 
ATOM     12  C   UNL     1      -0.703   0.587   0.297  0.00  0.00    -0.049 A 
ATOM     13  C   UNL     1      -0.757  -0.001  -0.954  0.00  0.00    +0.004 A 
ATOM     14  C   UNL     1      -0.683  -1.376  -1.079  0.00  0.00    +0.005 A 
ATOM     15  C   UNL     1      -0.555  -2.167   0.045  0.00  0.00    -0.029 A 
ATOM     16  C   UNL     1      -0.500  -1.580   1.303  0.00  0.00    +0.033 A 
ATOM     17  C   UNL     1      -0.569  -0.198   1.425  0.00  0.00    +0.026 A 
ATOM     18  C   UNL     1      -0.475  -3.666  -0.092  0.00  0.00    +0.045 C 
ENDBRANCH   3  16
ENDBRANCH   1   9
BRANCH   2  19
ATOM     19  C   UNL     1      -2.794  -3.610   8.766  0.00  0.00    +0.014 A 
ATOM     20  C   UNL     1      -3.523  -2.907   9.717  0.00  0.00    +0.015 A 
ATOM     21  C   UNL     1      -4.520  -3.567  10.391  0.00  0.00    +0.008 A 
ATOM     22  C   UNL     1      -4.761  -4.876  10.111  0.00  0.00    +0.046 A 
ATOM     23  S   UNL     1      -3.554  -5.223   8.842  0.00  0.00    -0.097 S 
ENDBRANCH   2  19
BRANCH   1  24
ATOM     24  N   UNL     1      -1.840  -5.204   6.710  0.00  0.00    -0.277 N 
ATOM     25  C   UNL     1      -1.132  -6.348   6.794  0.00  0.00    +0.248 C 
ATOM     26  O   UNL     1       0.016  -6.325   7.194  0.00  0.00    -0.270 OA
ATOM     27  H   UNL     1      -2.776  -5.231   6.459  0.00  0.00    +0.155 HD
BRANCH  25  28
ATOM     28  C   UNL     1      -1.752  -7.631   6.402  0.00  0.00    +0.037 A 
ATOM     29  C   UNL     1      -3.026  -7.649   5.832  0.00  0.00    +0.013 A 
ATOM     30  C   UNL     1      -3.599  -8.850   5.468  0.00  0.00    +0.001 A 
ATOM     31  C   UNL     1      -2.913 -10.035   5.665  0.00  0.00    +0.000 A 
ATOM     32  C   UNL     1      -1.649 -10.025   6.229  0.00  0.00    +0.001 A 
ATOM     33  C   UNL     1      -1.063  -8.830   6.593  0.00  0.00    +0.013 A 
ENDBRANCH  25  28
ENDBRANCH   1  24
TORSDOF 5
