REMARK  Name = ZINC04028886
REMARK  11 active torsions:
REMARK  status: ('A' for Active; 'I' for Inactive)
REMARK    1  A    between atoms: C_1  and  C_2
REMARK    2  A    between atoms: C_7  and  C_8
REMARK    3  A    between atoms: C_7  and  N_75
REMARK    4  A    between atoms: C_9  and  C_13
REMARK    5  A    between atoms: C_13  and  C_14
REMARK    6  A    between atoms: C_14  and  C_15
REMARK    7  A    between atoms: C_23  and  C_33
REMARK    8  A    between atoms: C_27  and  C_28
REMARK    9  A    between atoms: C_27  and  C_29
REMARK   10  A    between atoms: C_29  and  O_31
REMARK   11  A    between atoms: O_31  and  C_32
REMARK                            x       y       z     vdW  Elec       q    Type
REMARK                         _______ _______ _______ _____ _____    ______ ____
ROOT
ATOM      1  C   UNL     1       3.129   5.171  -3.274  0.00  0.00    +0.021 C 
ATOM      2  C   UNL     1       3.723   4.816  -1.930  0.00  0.00    -0.073 C 
ATOM      3  C   UNL     1       3.047   4.105  -1.061  0.00  0.00    +0.008 C 
ATOM      4  C   UNL     1       5.120   5.305  -1.615  0.00  0.00    +0.031 C 
ATOM      5  C   UNL     1       6.043   4.896  -2.767  0.00  0.00    +0.009 C 
ATOM      6  C   UNL     1       5.481   5.425  -4.089  0.00  0.00    +0.012 C 
ATOM      7  C   UNL     1       4.124   4.778  -4.373  0.00  0.00    -0.022 C 
ATOM      8  C   UNL     1       3.587   5.273  -5.718  0.00  0.00    +0.007 C 
ATOM      9  C   UNL     1       4.572   4.916  -6.832  0.00  0.00    +0.002 C 
ATOM     10  C   UNL     1       5.918   5.588  -6.549  0.00  0.00    +0.018 C 
ATOM     11  C   UNL     1       6.462   5.081  -5.213  0.00  0.00    +0.068 C 
ATOM     12  C   UNL     1       7.812   5.743  -4.930  0.00  0.00    +0.023 C 
ATOM     13  C   UNL     1       4.279   3.256  -4.404  0.00  0.00    +0.012 C 
ENDROOT
BRANCH  11  14
ATOM     14  C   UNL     1       6.641   3.586  -5.282  0.00  0.00    +0.313 C 
ATOM     15  O   UNL     1       6.435   3.000  -6.317  0.00  0.00    -0.250 OA
BRANCH  14  16
ATOM     16  O   UNL     1       7.031   2.906  -4.191  0.00  0.00    -0.468 OA
ATOM     17  C   UNL     1       7.183   1.469  -4.330  0.00  0.00    +0.280 C 
ENDBRANCH  14  16
ENDBRANCH  11  14
BRANCH   1  18
ATOM     18  C   UNL     1       1.818   4.408  -3.473  0.00  0.00    +0.013 C 
BRANCH  18  19
ATOM     19  C   UNL     1       0.737   5.009  -2.572  0.00  0.00    +0.039 C 
BRANCH  19  21
ATOM     20  C   UNL     1      -1.039   3.195  -2.338  0.00  0.00    +0.092 A 
ATOM     21  C   UNL     1      -0.585   4.347  -2.864  0.00  0.00    -0.008 A 
ATOM     22  C   UNL     1      -1.587   4.819  -3.743  0.00  0.00    +0.045 A 
ATOM     23  C   UNL     1      -2.593   3.927  -3.702  0.00  0.00    +0.195 A 
ATOM     24  O   UNL     1      -2.253   2.943  -2.853  0.00  0.00    -0.469 OA
BRANCH  20  25
ATOM     25  C   UNL     1      -0.306   2.332  -1.344  0.00  0.00    -0.003 C 
BRANCH  25  32
ATOM     26  C   UNL     1      -1.852   3.060   4.111  0.00  0.00    +0.007 C 
ATOM     27  C   UNL     1      -1.543   2.438   2.748  0.00  0.00    -0.018 C 
ATOM     28  C   UNL     1      -0.071   2.674   2.399  0.00  0.00    -0.016 C 
ATOM     29  C   UNL     1       0.217   2.102   1.009  0.00  0.00    -0.078 C 
ATOM     30  C   UNL     1      -2.068   2.503   0.308  0.00  0.00    -0.078 C 
ATOM     31  C   UNL     1      -2.424   3.087   1.677  0.00  0.00    -0.016 C 
ATOM     32  N   UNL     1      -0.645   2.785   0.021  0.00  0.00    +0.384 N 
ATOM     33  H   UNL     1      -0.487   3.797   0.085  0.00  0.00    -0.081 HD
ENDBRANCH  25  32
ENDBRANCH  20  25
ENDBRANCH  19  21
ENDBRANCH  18  19
ENDBRANCH   1  18
TORSDOF 7
