REMARK  Name = ZINC47043675
REMARK  10 active torsions:
REMARK  status: ('A' for Active; 'I' for Inactive)
REMARK    1  A    between atoms: C_1  and  C_2
REMARK    2  A    between atoms: C_2  and  C_3
REMARK    3  A    between atoms: C_2  and  C_4
REMARK    4  A    between atoms: C_4  and  C_6
REMARK    5  A    between atoms: C_4  and  C_20
REMARK    6  A    between atoms: C_6  and  N_7
REMARK    7  A    between atoms: N_10  and  N_11
REMARK    8  A    between atoms: N_11  and  C_12
REMARK    9  A    between atoms: C_12  and  N_14
REMARK   10  A    between atoms: N_14  and  C_15
REMARK                            x       y       z     vdW  Elec       q    Type
REMARK                         _______ _______ _______ _____ _____    ______ ____
ROOT
ATOM      1  N   UNL     1      -0.029  -2.198   1.031  0.00  0.00    -0.298 N 
ATOM      2  C   UNL     1       0.362  -3.473   1.220  0.00  0.00    +0.316 C 
ATOM      3  O   UNL     1       0.105  -4.319   0.385  0.00  0.00    -0.251 OA
ATOM      4  N   UNL     1       1.038  -3.813   2.336  0.00  0.00    -0.219 N 
ATOM      5  H   UNL     1       0.176  -1.523   1.697  0.00  0.00    +0.150 HD
ATOM      6  H   UNL     1       1.319  -4.731   2.472  0.00  0.00    +0.174 HD
ENDROOT
BRANCH   4   7
ATOM      7  N   UNL     1       1.334  -2.839   3.299  0.00  0.00    -0.245 N 
ATOM      8  H   UNL     1       1.053  -1.921   3.162  0.00  0.00    +0.172 HD
BRANCH   7   9
ATOM      9  C   UNL     1       2.010  -3.178   4.414  0.00  0.00    +0.147 C 
ATOM     10  S   UNL     1       2.372  -1.988   5.591  0.00  0.00    -0.017 S 
BRANCH   9  11
ATOM     11  N   UNL     1       2.401  -4.454   4.604  0.00  0.00    -0.323 N 
ATOM     12  H   UNL     1       2.196  -5.128   3.937  0.00  0.00    +0.148 HD
BRANCH  11  13
ATOM     13  C   UNL     1       3.136  -4.822   5.816  0.00  0.00    +0.072 C 
ATOM     14  C   UNL     1       2.147  -5.187   6.943  0.00  0.00    +0.022 C 
ATOM     15  C   UNL     1       2.036  -6.730   6.867  0.00  0.00    +0.002 C 
ATOM     16  C   UNL     1       3.486  -7.161   6.533  0.00  0.00    +0.002 C 
ATOM     17  C   UNL     1       3.987  -6.077   5.556  0.00  0.00    +0.022 C 
ENDBRANCH  11  13
ENDBRANCH   9  11
ENDBRANCH   7   9
ENDBRANCH   4   7
BRANCH   1  18
ATOM     18  C   UNL     1      -0.763  -1.829  -0.182  0.00  0.00    +0.114 C 
BRANCH  18  19
ATOM     19  C   UNL     1      -1.192  -0.363  -0.093  0.00  0.00    +0.039 C 
BRANCH  19  20
ATOM     20  C   UNL     1      -2.183  -0.196   1.030  0.00  0.00    -0.043 A 
ATOM     21  C   UNL     1      -3.375  -0.896   1.009  0.00  0.00    +0.004 A 
ATOM     22  C   UNL     1      -4.284  -0.743   2.039  0.00  0.00    +0.000 A 
ATOM     23  C   UNL     1      -4.002   0.109   3.090  0.00  0.00    +0.000 A 
ATOM     24  C   UNL     1      -2.809   0.809   3.111  0.00  0.00    +0.000 A 
ATOM     25  C   UNL     1      -1.898   0.652   2.083  0.00  0.00    +0.004 A 
ENDBRANCH  19  20
BRANCH  19  27
ATOM     26  C   UNL     1      -2.360   1.494  -1.289  0.00  0.00    +0.008 C 
ATOM     27  C   UNL     1      -1.840   0.060  -1.413  0.00  0.00    -0.008 C 
ATOM     28  C   UNL     1      -0.803  -0.011  -2.536  0.00  0.00    +0.008 C 
ENDBRANCH  19  27
ENDBRANCH  18  19
ENDBRANCH   1  18
TORSDOF 8
