REMARK  Name = ZINC04713283
REMARK  7 active torsions:
REMARK  status: ('A' for Active; 'I' for Inactive)
REMARK    1  A    between atoms: C_1  and  C_2
REMARK    2  A    between atoms: C_2  and  N_3
REMARK    3  A    between atoms: N_3  and  N_4
REMARK    4  A    between atoms: C_5  and  C_7
REMARK    5  A    between atoms: C_13  and  C_14
REMARK    6  A    between atoms: N_16  and  C_17
REMARK    7  A    between atoms: C_22  and  C_23
REMARK                            x       y       z     vdW  Elec       q    Type
REMARK                         _______ _______ _______ _____ _____    ______ ____
ROOT
ATOM      1  C   UNL     1      -2.681   2.567  -2.073  0.00  0.00    +0.243 C 
ATOM      2  O   UNL     1      -2.105   3.041  -3.036  0.00  0.00    -0.270 OA
ATOM      3  N   UNL     1      -4.028   2.568  -2.026  0.00  0.00    -0.281 N 
ATOM      4  H   UNL     1      -4.486   2.257  -1.229  0.00  0.00    +0.155 HD
ENDROOT
BRANCH   3   5
ATOM      5  C   UNL     1      -4.765   3.019  -3.123  0.00  0.00    +0.041 A 
ATOM      6  C   UNL     1      -4.173   3.093  -4.376  0.00  0.00    +0.024 A 
ATOM      7  C   UNL     1      -4.904   3.539  -5.460  0.00  0.00    +0.002 A 
ATOM      8  C   UNL     1      -6.227   3.914  -5.305  0.00  0.00    +0.001 A 
ATOM      9  C   UNL     1      -6.829   3.846  -4.064  0.00  0.00    +0.010 A 
ATOM     10  C   UNL     1      -6.104   3.393  -2.965  0.00  0.00    +0.003 A 
BRANCH  10  11
ATOM     11  C   UNL     1      -6.747   3.313  -1.631  0.00  0.00    -0.016 A 
ATOM     12  C   UNL     1      -6.646   2.146  -0.874  0.00  0.00    +0.008 A 
ATOM     13  C   UNL     1      -7.246   2.077   0.366  0.00  0.00    +0.001 A 
ATOM     14  C   UNL     1      -7.947   3.163   0.860  0.00  0.00    +0.000 A 
ATOM     15  C   UNL     1      -8.050   4.323   0.114  0.00  0.00    +0.001 A 
ATOM     16  C   UNL     1      -7.450   4.405  -1.126  0.00  0.00    +0.008 A 
ENDBRANCH  10  11
ENDBRANCH   3   5
BRANCH   1  19
ATOM     17  C   UNL     1       0.192   1.647   0.202  0.00  0.00    +0.062 C 
ATOM     18  C   UNL     1      -0.591   2.117  -0.997  0.00  0.00    +0.024 C 
ATOM     19  C   UNL     1      -1.937   2.014  -1.006  0.00  0.00    +0.087 C 
BRANCH  18  20
ATOM     20  N   UNL     1       0.060   2.648  -2.075  0.00  0.00    -0.268 N 
ATOM     21  H   UNL     1      -0.446   3.026  -2.810  0.00  0.00    +0.170 HD
BRANCH  20  22
ATOM     22  N   UNL     1       1.461   2.645  -2.117  0.00  0.00    -0.231 N 
ATOM     23  C   UNL     1       2.106   3.261  -3.128  0.00  0.00    +0.280 C 
ATOM     24  O   UNL     1       1.474   3.740  -4.049  0.00  0.00    -0.267 OA
ATOM     25  H   UNL     1       1.966   2.200  -1.419  0.00  0.00    +0.173 HD
BRANCH  23  26
ATOM     26  C   UNL     1       3.584   3.355  -3.115  0.00  0.00    +0.145 A 
ATOM     27  C   UNL     1       4.247   4.084  -4.102  0.00  0.00    +0.143 A 
ATOM     28  N   UNL     1       5.565   4.165  -4.087  0.00  0.00    -0.259 NA
ATOM     29  C   UNL     1       6.255   3.556  -3.139  0.00  0.00    +0.130 A 
ATOM     30  C   UNL     1       5.598   2.830  -2.155  0.00  0.00    +0.131 A 
ATOM     31  N   UNL     1       4.283   2.749  -2.160  0.00  0.00    -0.247 NA
ENDBRANCH  23  26
ENDBRANCH  20  22
ENDBRANCH  18  20
ENDBRANCH   1  19
TORSDOF 6
