REMARK  Name = ZINC25521418
REMARK  9 active torsions:
REMARK  status: ('A' for Active; 'I' for Inactive)
REMARK    1  A    between atoms: C_1  and  N_2
REMARK    2  A    between atoms: N_2  and  C_3
REMARK    3  A    between atoms: N_2  and  C_4
REMARK    4  A    between atoms: C_4  and  C_5
REMARK    5  A    between atoms: C_8  and  C_11
REMARK    6  A    between atoms: C_16  and  C_17
REMARK    7  A    between atoms: C_17  and  N_18
REMARK    8  A    between atoms: C_19  and  C_21
REMARK    9  A    between atoms: C_24  and  N_27
REMARK                            x       y       z     vdW  Elec       q    Type
REMARK                         _______ _______ _______ _____ _____    ______ ____
ROOT
ATOM      1  N   UNL     1       0.029  -0.493   0.344  0.00  0.00    -0.307 N 
ATOM      2  C   UNL     1      -1.022  -1.045  -0.293  0.00  0.00    +0.244 C 
ATOM      3  O   UNL     1      -1.977  -0.357  -0.598  0.00  0.00    -0.270 OA
ATOM      4  H   UNL     1       0.894  -1.116   0.620  0.00  0.00    +0.149 HD
ENDROOT
BRANCH   2   5
ATOM      5  C   UNL     1      -1.013  -2.484  -0.623  0.00  0.00    +0.037 A 
ATOM      6  C   UNL     1       0.086  -3.275  -0.279  0.00  0.00    +0.015 A 
ATOM      7  C   UNL     1       0.088  -4.618  -0.583  0.00  0.00    +0.027 A 
ATOM      8  C   UNL     1      -0.998  -5.185  -1.241  0.00  0.00    +0.051 A 
ATOM      9  C   UNL     1      -2.091  -4.400  -1.590  0.00  0.00    +0.027 A 
ATOM     10  C   UNL     1      -2.102  -3.058  -1.284  0.00  0.00    +0.015 A 
BRANCH   8  11
ATOM     11  N   UNL     1      -0.990  -6.547  -1.552  0.00  0.00    -0.267 N 
ATOM     12  C   UNL     1      -0.502  -6.962  -2.753  0.00  0.00    +0.207 A 
ATOM     13  N   UNL     1      -0.461  -8.208  -3.115  0.00  0.00    -0.237 NA
ATOM     14  C   UNL     1      -0.909  -9.199  -2.304  0.00  0.00    +0.078 A 
ATOM     15  C   UNL     1      -0.864 -10.540  -2.692  0.00  0.00    +0.028 A 
ATOM     16  C   UNL     1      -1.332 -11.513  -1.837  0.00  0.00    +0.002 A 
ATOM     17  C   UNL     1      -1.847 -11.179  -0.592  0.00  0.00    +0.001 A 
ATOM     18  C   UNL     1      -1.901  -9.863  -0.186  0.00  0.00    +0.015 A 
ATOM     19  C   UNL     1      -1.434  -8.863  -1.036  0.00  0.00    +0.065 A 
ATOM     20  C   UNL     1      -1.462  -7.443  -0.655  0.00  0.00    +0.266 A 
ATOM     21  O   UNL     1      -1.897  -7.087   0.425  0.00  0.00    -0.267 OA
ENDBRANCH   8  11
ENDBRANCH   2   5
BRANCH   1  22
ATOM     22  C   UNL     1       0.021   0.935   0.671  0.00  0.00    +0.140 C 
BRANCH  22  28
ATOM     23  C   UNL     1       2.476   1.423   0.448  0.00  0.00    -0.013 A 
ATOM     24  C   UNL     1       3.702   1.786   1.001  0.00  0.00    +0.009 A 
ATOM     25  C   UNL     1       3.799   2.034   2.356  0.00  0.00    +0.001 A 
ATOM     26  C   UNL     1       2.680   1.927   3.162  0.00  0.00    +0.000 A 
ATOM     27  C   UNL     1       1.459   1.572   2.617  0.00  0.00    +0.006 A 
ATOM     28  C   UNL     1       1.351   1.322   1.264  0.00  0.00    -0.023 A 
BRANCH  23  32
ATOM     29  C   UNL     1       2.166   0.639  -3.720  0.00  0.00    -0.064 A 
ATOM     30  C   UNL     1       1.362   1.603  -3.139  0.00  0.00    +0.002 A 
ATOM     31  C   UNL     1       1.459   1.862  -1.786  0.00  0.00    +0.009 A 
ATOM     32  C   UNL     1       2.368   1.149  -1.007  0.00  0.00    -0.018 A 
ATOM     33  C   UNL     1       3.178   0.183  -1.599  0.00  0.00    +0.009 A 
ATOM     34  C   UNL     1       3.069  -0.071  -2.951  0.00  0.00    +0.002 A 
BRANCH  29  35
ATOM     35  C   UNL     1       2.056   0.361  -5.197  0.00  0.00    -0.044 C 
BRANCH  35  37
ATOM     36  C   UNL     1       3.084   0.828  -7.339  0.00  0.00    -0.096 C 
ATOM     37  N   UNL     1       2.987   1.230  -5.929  0.00  0.00    +0.379 N 
ATOM     38  C   UNL     1       2.597   2.641  -5.809  0.00  0.00    -0.096 C 
ATOM     39  H   UNL     1       3.983   1.115  -5.477  0.00  0.00    -0.082 HD
ENDBRANCH  35  37
ENDBRANCH  29  35
ENDBRANCH  23  32
ENDBRANCH  22  28
ENDBRANCH   1  22
TORSDOF 7
