REMARK  Name = ZINC26539290
REMARK  5 active torsions:
REMARK  status: ('A' for Active; 'I' for Inactive)
REMARK    1  A    between atoms: C_1  and  C_2
REMARK    2  A    between atoms: C_6  and  C_22
REMARK    3  A    between atoms: C_7  and  N_8
REMARK    4  A    between atoms: N_8  and  S_9
REMARK    5  A    between atoms: S_9  and  C_12
REMARK                            x       y       z     vdW  Elec       q    Type
REMARK                         _______ _______ _______ _____ _____    ______ ____
ROOT
ATOM      1  N   UNL     1       0.212  -0.494   2.556  0.00  0.00    -0.215 N 
ATOM      2  H   UNL     1       0.269   0.460   2.724  0.00  0.00    +0.174 HD
ENDROOT
BRANCH   1   9
ATOM      3  C   UNL     1       2.591  -0.415   1.004  0.00  0.00    +0.046 C 
ATOM      4  C   UNL     1       1.294  -0.949   0.453  0.00  0.00    -0.027 A 
ATOM      5  C   UNL     1       1.238  -1.425  -0.841  0.00  0.00    +0.005 A 
ATOM      6  C   UNL     1       0.050  -1.918  -1.356  0.00  0.00    +0.001 A 
ATOM      7  C   UNL     1      -1.090  -1.938  -0.582  0.00  0.00    +0.015 A 
ATOM      8  C   UNL     1      -1.050  -1.460   0.730  0.00  0.00    +0.059 A 
ATOM      9  C   UNL     1       0.157  -0.967   1.251  0.00  0.00    +0.063 A 
BRANCH   8  10
ATOM     10  C   UNL     1      -2.266  -1.478   1.564  0.00  0.00    +0.243 C 
ATOM     11  O   UNL     1      -2.263  -0.940   2.654  0.00  0.00    -0.270 OA
ATOM     12  N   UNL     1      -3.380  -2.091   1.117  0.00  0.00    -0.325 N 
ATOM     13  H   UNL     1      -3.361  -2.582   0.281  0.00  0.00    +0.145 HD
ATOM     14  H   UNL     1      -4.200  -2.040   1.632  0.00  0.00    +0.145 HD
ENDBRANCH   8  10
ENDBRANCH   1   9
BRANCH   1  15
ATOM     15  S   UNL     1       0.181  -1.558   3.824  0.00  0.00    +0.072 S 
ATOM     16  O   UNL     1       0.205  -0.776   5.011  0.00  0.00    -0.150 OA
ATOM     17  O   UNL     1      -0.855  -2.490   3.547  0.00  0.00    -0.150 OA
BRANCH  15  18
ATOM     18  C   UNL     1       1.694  -2.460   3.784  0.00  0.00    +0.109 A 
ATOM     19  C   UNL     1       1.753  -3.687   3.150  0.00  0.00    +0.029 A 
ATOM     20  C   UNL     1       2.941  -4.389   3.125  0.00  0.00    +0.006 A 
ATOM     21  C   UNL     1       4.078  -3.872   3.732  0.00  0.00    -0.044 A 
ATOM     22  C   UNL     1       4.021  -2.648   4.360  0.00  0.00    -0.042 A 
ATOM     23  C   UNL     1       2.824  -1.942   4.382  0.00  0.00    +0.032 A 
ATOM     24  C   UNL     1       5.218  -2.021   5.024  0.00  0.00    +0.035 C 
ATOM     25  C   UNL     1       6.298  -3.068   5.285  0.00  0.00    +0.005 C 
ATOM     26  C   UNL     1       6.559  -3.829   3.980  0.00  0.00    +0.005 C 
ATOM     27  C   UNL     1       5.339  -4.695   3.675  0.00  0.00    +0.035 C 
ENDBRANCH  15  18
ENDBRANCH   1  15
TORSDOF 4
