REMARK  Name = ZINC44978219
REMARK  5 active torsions:
REMARK  status: ('A' for Active; 'I' for Inactive)
REMARK    1  A    between atoms: C_1  and  C_2
REMARK    2  A    between atoms: C_7  and  C_10
REMARK    3  A    between atoms: C_12  and  C_15
REMARK    4  A    between atoms: C_20  and  N_21
REMARK    5  A    between atoms: N_21  and  C_22
REMARK                            x       y       z     vdW  Elec       q    Type
REMARK                         _______ _______ _______ _____ _____    ______ ____
ROOT
ATOM      1  C   UNL     1       2.968  -0.494   2.419  0.00  0.00    +0.175 A 
ATOM      2  N   UNL     1       3.548   0.276   3.342  0.00  0.00    -0.191 NA
ATOM      3  C   UNL     1       4.001  -0.468   4.328  0.00  0.00    +0.260 A 
ATOM      4  O   UNL     1       3.712  -1.751   4.046  0.00  0.00    -0.333 OA
ATOM      5  N   UNL     1       3.034  -1.739   2.799  0.00  0.00    -0.061 NA
ENDROOT
BRANCH   1  11
ATOM      6  C   UNL     1       0.335   1.630  -0.244  0.00  0.00    +0.007 C 
ATOM      7  C   UNL     1       0.208   0.107  -0.165  0.00  0.00    -0.013 C 
ATOM      8  C   UNL     1       0.915  -0.526  -1.365  0.00  0.00    +0.003 C 
ATOM      9  C   UNL     1       2.394  -0.137  -1.350  0.00  0.00    +0.001 C 
ATOM     10  C   UNL     1       3.039  -0.636  -0.055  0.00  0.00    +0.011 C 
ATOM     11  C   UNL     1       2.333  -0.003   1.145  0.00  0.00    +0.061 C 
ATOM     12  C   UNL     1       0.853  -0.392   1.129  0.00  0.00    +0.014 C 
ENDBRANCH   1  11
BRANCH   3  13
ATOM     13  C   UNL     1       4.702   0.020   5.531  0.00  0.00    +0.060 A 
ATOM     14  C   UNL     1       4.195   1.105   6.248  0.00  0.00    +0.015 A 
ATOM     15  C   UNL     1       4.854   1.556   7.372  0.00  0.00    +0.001 A 
ATOM     16  C   UNL     1       6.020   0.937   7.794  0.00  0.00    +0.002 A 
ATOM     17  C   UNL     1       6.533  -0.137   7.095  0.00  0.00    +0.023 A 
ATOM     18  C   UNL     1       5.879  -0.608   5.965  0.00  0.00    +0.039 A 
BRANCH  18  19
ATOM     19  N   UNL     1       6.392  -1.694   5.262  0.00  0.00    -0.346 N 
ATOM     20  C   UNL     1       7.555  -2.418   5.780  0.00  0.00    +0.125 C 
ATOM     21  H   UNL     1       5.979  -1.971   4.429  0.00  0.00    +0.146 HD
ENDBRANCH  18  19
ENDBRANCH   3  13
TORSDOF 3
