REMARK  Name = ZINC63807431
REMARK  4 active torsions:
REMARK  status: ('A' for Active; 'I' for Inactive)
REMARK    1  A    between atoms: C_1  and  C_2
REMARK    2  A    between atoms: C_4  and  C_15
REMARK    3  A    between atoms: C_18  and  O_21
REMARK    4  A    between atoms: O_21  and  C_22
REMARK                            x       y       z     vdW  Elec       q    Type
REMARK                         _______ _______ _______ _____ _____    ______ ____
ROOT
ATOM      1  C   UNL     1      -0.175   1.769   0.475  0.00  0.00    +0.067 C 
ATOM      2  C   UNL     1       0.001   0.273   0.440  0.00  0.00    +0.064 C 
ATOM      3  C   UNL     1      -0.972  -0.599   0.254  0.00  0.00    +0.014 C 
ATOM      4  C   UNL     1      -2.468  -0.383   0.132  0.00  0.00    +0.108 C 
ATOM      5  S   UNL     1      -3.134  -1.780  -0.835  0.00  0.00    -0.139 S 
ATOM      6  C   UNL     1      -3.167  -3.164   0.324  0.00  0.00    +0.165 C 
ATOM      7  C   UNL     1      -2.106  -3.213   1.328  0.00  0.00    +0.225 C 
ATOM      8  O   UNL     1      -2.413  -3.790   2.350  0.00  0.00    -0.275 OA
ATOM      9  N   UNL     1      -0.878  -2.742   1.321  0.00  0.00    -0.288 N 
ATOM     10  C   UNL     1      -0.296  -1.951   0.249  0.00  0.00    +0.244 C 
ATOM     11  N   UNL     1       1.107  -1.607   0.521  0.00  0.00    -0.160 NA
ATOM     12  N   UNL     1       1.184  -0.374   0.589  0.00  0.00    -0.157 NA
ATOM     13  H   UNL     1      -0.319  -2.938   2.089  0.00  0.00    +0.151 HD
ENDROOT
BRANCH   4  14
ATOM     14  C   UNL     1      -2.743   0.915  -0.581  0.00  0.00    -0.030 A 
ATOM     15  C   UNL     1      -2.283   1.105  -1.871  0.00  0.00    +0.008 A 
ATOM     16  C   UNL     1      -2.534   2.295  -2.527  0.00  0.00    +0.046 A 
ATOM     17  C   UNL     1      -3.249   3.299  -1.890  0.00  0.00    +0.121 A 
ATOM     18  C   UNL     1      -3.710   3.106  -0.596  0.00  0.00    +0.046 A 
ATOM     19  C   UNL     1      -3.461   1.913   0.053  0.00  0.00    +0.008 A 
BRANCH  17  20
ATOM     20  O   UNL     1      -3.497   4.471  -2.533  0.00  0.00    -0.489 OA
BRANCH  20  21
ATOM     21  C   UNL     1      -3.099   4.556  -3.903  0.00  0.00    +0.173 C 
ATOM     22  C   UNL     1      -1.629   5.013  -3.999  0.00  0.00    +0.044 C 
ATOM     23  C   UNL     1      -1.599   5.936  -5.242  0.00  0.00    +0.004 C 
ATOM     24  C   UNL     1      -2.950   6.687  -5.144  0.00  0.00    +0.004 C 
ATOM     25  C   UNL     1      -3.939   5.620  -4.631  0.00  0.00    +0.044 C 
ENDBRANCH  20  21
ENDBRANCH  17  20
ENDBRANCH   4  14
TORSDOF 3
