REMARK  Name = ZINC12707292
REMARK  7 active torsions:
REMARK  status: ('A' for Active; 'I' for Inactive)
REMARK    1  A    between atoms: C_1  and  C_2
REMARK    2  A    between atoms: C_3  and  C_12
REMARK    3  A    between atoms: C_5  and  C_7
REMARK    4  A    between atoms: C_12  and  N_13
REMARK    5  A    between atoms: C_14  and  C_16
REMARK    6  A    between atoms: C_16  and  C_17
REMARK    7  A    between atoms: C_24  and  N_58
REMARK                            x       y       z     vdW  Elec       q    Type
REMARK                         _______ _______ _______ _____ _____    ______ ____
ROOT
ATOM      1  C   UNL     1       1.328   2.082  -0.166  0.00  0.00    +0.028 C 
ATOM      2  C   UNL     1       0.049   1.295  -0.107  0.00  0.00    +0.200 C 
ATOM      3  O   UNL     1      -1.004   1.895  -0.150  0.00  0.00    -0.278 OA
ATOM      4  N   UNL     1       0.023  -0.038  -0.014  0.00  0.00    -0.318 N 
ATOM      5  C   UNL     1       1.233  -0.851   0.075  0.00  0.00    +0.085 C 
ATOM      6  C   UNL     1       2.443  -0.044  -0.400  0.00  0.00    -0.058 C 
ATOM      7  H   UNL     1      -0.837  -0.486  -0.005  0.00  0.00    +0.149 HD
ATOM      8  N   UNL     1       2.442   1.246   0.319  0.00  0.00    +0.391 N 
ATOM      9  H   UNL     1       2.318   1.071   1.323  0.00  0.00    -0.080 HD
ENDROOT
BRANCH   8  10
ATOM     10  C   UNL     1       3.730   1.946   0.108  0.00  0.00    -0.059 C 
ATOM     11  C   UNL     1       4.134   1.955  -1.381  0.00  0.00    +0.020 C 
ATOM     12  C   UNL     1       5.645   1.820  -1.379  0.00  0.00    -0.046 A 
ATOM     13  C   UNL     1       6.569   2.079  -2.378  0.00  0.00    +0.004 A 
ATOM     14  C   UNL     1       7.916   1.883  -2.146  0.00  0.00    +0.000 A 
ATOM     15  C   UNL     1       8.345   1.427  -0.913  0.00  0.00    +0.000 A 
ATOM     16  C   UNL     1       7.425   1.169   0.084  0.00  0.00    +0.004 A 
ATOM     17  C   UNL     1       6.074   1.364  -0.147  0.00  0.00    -0.046 A 
ATOM     18  C   UNL     1       4.883   1.157   0.764  0.00  0.00    +0.020 C 
ENDBRANCH   8  10
BRANCH   1  19
ATOM     19  C   UNL     1       1.206   3.317   0.729  0.00  0.00    +0.089 C 
BRANCH  19  21
ATOM     20  N   UNL     1       0.741   3.804   3.109  0.00  0.00    -0.310 N 
ATOM     21  C   UNL     1       0.993   2.884   2.156  0.00  0.00    +0.212 C 
ATOM     22  O   UNL     1       1.048   1.708   2.448  0.00  0.00    -0.276 OA
ATOM     23  H   UNL     1       0.697   4.745   2.875  0.00  0.00    +0.149 HD
BRANCH  20  24
ATOM     24  C   UNL     1       0.533   3.384   4.497  0.00  0.00    +0.163 C 
BRANCH  24  27
ATOM     25  C   UNL     1       2.687   5.080   5.995  0.00  0.00    +0.088 C 
ATOM     26  C   UNL     1       1.200   5.324   5.998  0.00  0.00    +0.127 A 
ATOM     27  C   UNL     1       0.272   4.595   5.354  0.00  0.00    +0.100 A 
ATOM     28  N   UNL     1      -0.930   5.133   5.616  0.00  0.00    -0.212 NA
ATOM     29  C   UNL     1      -0.761   6.176   6.399  0.00  0.00    +0.234 A 
ATOM     30  O   UNL     1       0.554   6.315   6.646  0.00  0.00    -0.440 OA
BRANCH  29  31
ATOM     31  C   UNL     1      -1.829   7.044   6.916  0.00  0.00    +0.074 A 
ATOM     32  C   UNL     1      -1.732   8.151   7.738  0.00  0.00    +0.021 A 
ATOM     33  C   UNL     1      -2.887   8.809   8.091  0.00  0.00    +0.008 A 
ATOM     34  C   UNL     1      -4.080   8.354   7.625  0.00  0.00    +0.046 A 
ATOM     35  S   UNL     1      -3.591   6.947   6.640  0.00  0.00    -0.092 S 
ENDBRANCH  29  31
ENDBRANCH  24  27
ENDBRANCH  20  24
ENDBRANCH  19  21
ENDBRANCH   1  19
TORSDOF 6
