REMARK  Name = ZINC49469292
REMARK  11 active torsions:
REMARK  status: ('A' for Active; 'I' for Inactive)
REMARK    1  A    between atoms: C_1  and  C_2
REMARK    2  A    between atoms: C_3  and  C_12
REMARK    3  A    between atoms: C_5  and  C_7
REMARK    4  A    between atoms: N_17  and  C_19
REMARK    5  A    between atoms: C_19  and  C_20
REMARK    6  A    between atoms: C_20  and  N_21
REMARK    7  A    between atoms: N_24  and  C_25
REMARK    8  A    between atoms: C_28  and  C_31
REMARK    9  A    between atoms: C_31  and  C_32
REMARK   10  A    between atoms: C_31  and  C_33
REMARK   11  A    between atoms: C_31  and  C_34
REMARK                            x       y       z     vdW  Elec       q    Type
REMARK                         _______ _______ _______ _____ _____    ______ ____
ROOT
ATOM      1  C   UNL     1      -0.017  -0.174  -2.563  0.00  0.00    +0.100 A 
ATOM      2  C   UNL     1      -0.007  -1.077  -3.655  0.00  0.00    +0.036 A 
ATOM      3  C   UNL     1      -0.013  -0.563  -4.917  0.00  0.00    +0.074 A 
ATOM      4  C   UNL     1      -0.028   0.843  -5.059  0.00  0.00    +0.267 A 
ATOM      5  O   UNL     1      -0.033   1.348  -6.170  0.00  0.00    -0.266 OA
ATOM      6  N   UNL     1      -0.036   1.622  -3.961  0.00  0.00    -0.227 N 
ATOM      7  N   UNL     1      -0.036   1.123  -2.778  0.00  0.00    -0.168 NA
ENDROOT
BRANCH   1  10
ATOM      8  C   UNL     1      -0.047   1.499   0.022  0.00  0.00    +0.067 C 
ATOM      9  C   UNL     1      -0.025  -0.008   0.012  0.00  0.00    +0.055 A 
ATOM     10  C   UNL     1      -0.012  -0.691  -1.180  0.00  0.00    +0.062 A 
ATOM     11  S   UNL     1       0.011  -2.380  -0.592  0.00  0.00    -0.065 S 
ATOM     12  C   UNL     1       0.001  -2.003   1.156  0.00  0.00    +0.116 A 
ATOM     13  N   UNL     1      -0.012  -0.674   1.138  0.00  0.00    -0.243 NA
BRANCH  12  14
ATOM     14  C   UNL     1       0.012  -2.919   2.306  0.00  0.00    +0.044 A 
ATOM     15  C   UNL     1      -0.001  -2.623   3.656  0.00  0.00    +0.018 A 
ATOM     16  C   UNL     1       0.013  -3.664   4.555  0.00  0.00    +0.008 A 
ATOM     17  C   UNL     1       0.039  -4.941   4.092  0.00  0.00    +0.046 A 
ATOM     18  S   UNL     1       0.037  -4.704   2.323  0.00  0.00    -0.095 S 
ENDBRANCH  12  14
ENDBRANCH   1  10
BRANCH   6  19
ATOM     19  C   UNL     1      -0.051   3.078  -4.120  0.00  0.00    +0.166 C 
BRANCH  19  20
ATOM     20  C   UNL     1      -1.498   3.570  -4.176  0.00  0.00    +0.129 C 
BRANCH  20  21
ATOM     21  N   UNL     1      -1.513   5.026  -4.336  0.00  0.00    -0.297 N 
ATOM     22  C   UNL     1      -2.687   5.684  -4.410  0.00  0.00    +0.304 C 
ATOM     23  O   UNL     1      -3.734   5.069  -4.344  0.00  0.00    -0.253 OA
ATOM     24  N   UNL     1      -2.701   7.024  -4.556  0.00  0.00    -0.269 N 
ATOM     25  H   UNL     1      -0.678   5.517  -4.388  0.00  0.00    +0.150 HD
ATOM     26  H   UNL     1      -1.869   7.522  -4.542  0.00  0.00    +0.156 HD
BRANCH  24  27
ATOM     27  C   UNL     1      -3.916   7.696  -4.730  0.00  0.00    +0.035 A 
ATOM     28  C   UNL     1      -3.983   8.809  -5.559  0.00  0.00    +0.023 A 
ATOM     29  C   UNL     1      -5.184   9.470  -5.728  0.00  0.00    +0.006 A 
ATOM     30  C   UNL     1      -6.318   9.025  -5.074  0.00  0.00    -0.042 A 
ATOM     31  C   UNL     1      -6.254   7.918  -4.248  0.00  0.00    +0.006 A 
ATOM     32  C   UNL     1      -5.058   7.249  -4.079  0.00  0.00    +0.023 A 
BRANCH  30  33
ATOM     33  C   UNL     1      -7.627   9.749  -5.262  0.00  0.00    -0.013 C 
ATOM     34  C   UNL     1      -8.017   9.722  -6.741  0.00  0.00    +0.015 C 
ATOM     35  C   UNL     1      -8.714   9.060  -4.434  0.00  0.00    +0.015 C 
ATOM     36  C   UNL     1      -7.477  11.200  -4.800  0.00  0.00    +0.015 C 
ENDBRANCH  30  33
ENDBRANCH  24  27
ENDBRANCH  20  21
ENDBRANCH  19  20
ENDBRANCH   6  19
TORSDOF 7
