REMARK  Name = ZINC13778371
REMARK  12 active torsions:
REMARK  status: ('A' for Active; 'I' for Inactive)
REMARK    1  A    between atoms: C_1  and  C_2
REMARK    2  A    between atoms: C_2  and  C_4
REMARK    3  A    between atoms: C_2  and  O_38
REMARK    4  A    between atoms: C_4  and  N_5
REMARK    5  A    between atoms: N_5  and  C_6
REMARK    6  A    between atoms: C_6  and  C_7
REMARK    7  A    between atoms: C_7  and  C_9
REMARK    8  A    between atoms: C_7  and  O_10
REMARK    9  A    between atoms: C_29  and  C_31
REMARK   10  A    between atoms: C_29  and  C_32
REMARK   11  A    between atoms: C_34  and  S_36
REMARK   12  A    between atoms: S_36  and  C_37
REMARK                            x       y       z     vdW  Elec       q    Type
REMARK                         _______ _______ _______ _____ _____    ______ ____
ROOT
ATOM      1  N   UNL     1       4.035   6.107  -0.049  0.00  0.00    -0.309 N 
ATOM      2  C   UNL     1       4.587   4.876  -0.369  0.00  0.00    +0.140 A 
ATOM      3  C   UNL     1       3.862   3.705  -0.195  0.00  0.00    +0.080 A 
ATOM      4  C   UNL     1       4.414   2.460  -0.515  0.00  0.00    +0.094 A 
ATOM      5  C   UNL     1       3.545   1.291  -0.284  0.00  0.00    +0.038 A 
ATOM      6  C   UNL     1       3.853  -0.072  -0.517  0.00  0.00    -0.024 A 
ATOM      7  C   UNL     1       2.924  -1.026  -0.243  0.00  0.00    +0.022 A 
ATOM      8  C   UNL     1       1.672  -0.655   0.258  0.00  0.00    +0.128 A 
ATOM      9  N   UNL     1       1.385   0.619   0.473  0.00  0.00    -0.224 NA
ATOM     10  C   UNL     1       2.264   1.567   0.224  0.00  0.00    +0.113 A 
ATOM     11  S   UNL     1       2.232   3.335   0.392  0.00  0.00    -0.064 S 
ATOM     12  N   UNL     1       0.723  -1.630   0.532  0.00  0.00    -0.310 N 
ATOM     13  C   UNL     1      -0.503  -1.406  -0.248  0.00  0.00    +0.134 C 
ATOM     14  C   UNL     1      -1.498  -2.534   0.039  0.00  0.00    +0.178 C 
ATOM     15  O   UNL     1      -1.753  -2.592   1.445  0.00  0.00    -0.377 OA
ATOM     16  C   UNL     1      -0.581  -2.810   2.235  0.00  0.00    +0.178 C 
ATOM     17  C   UNL     1       0.422  -1.685   1.970  0.00  0.00    +0.134 C 
ATOM     18  C   UNL     1       3.212  -2.490  -0.459  0.00  0.00    +0.199 C 
ATOM     19  O   UNL     1       4.353  -2.650  -1.302  0.00  0.00    -0.369 OA
ATOM     20  C   UNL     1       5.492  -1.904  -0.856  0.00  0.00    +0.068 C 
ATOM     21  C   UNL     1       5.210  -0.416  -1.071  0.00  0.00    +0.070 C 
ATOM     22  C   UNL     1       6.725  -2.317  -1.663  0.00  0.00    +0.041 C 
ATOM     23  C   UNL     1       5.735  -2.173   0.630  0.00  0.00    +0.041 C 
ATOM     24  N   UNL     1       5.678   2.474  -0.997  0.00  0.00    -0.221 NA
ATOM     25  C   UNL     1       6.339   3.602  -1.151  0.00  0.00    +0.190 A 
ATOM     26  N   UNL     1       5.826   4.789  -0.850  0.00  0.00    -0.206 NA
ENDROOT
BRANCH  25  27
ATOM     27  S   UNL     1       7.982   3.534  -1.784  0.00  0.00    -0.089 S 
ATOM     28  C   UNL     1       8.157   1.746  -2.009  0.00  0.00    +0.093 C 
ENDBRANCH  25  27
BRANCH   1  29
ATOM     29  C   UNL     1       2.784   6.330  -0.786  0.00  0.00    +0.137 C 
BRANCH  29  31
ATOM     30  C   UNL     1       0.900   7.926  -1.165  0.00  0.00    +0.039 C 
ATOM     31  C   UNL     1       2.162   7.657  -0.344  0.00  0.00    +0.129 C 
BRANCH  31  32
ATOM     32  O   UNL     1       1.822   7.585   1.042  0.00  0.00    -0.391 OA
ATOM     33  H   UNL     1       2.605   7.396   1.791  0.00  0.00    +0.210 HD
ENDBRANCH  31  32
ENDBRANCH  29  31
ENDBRANCH   1  29
BRANCH   1  34
ATOM     34  C   UNL     1       4.993   7.193  -0.294  0.00  0.00    +0.137 C 
BRANCH  34  35
ATOM     35  C   UNL     1       5.283   7.288  -1.794  0.00  0.00    +0.129 C 
ATOM     36  C   UNL     1       6.427   8.275  -2.030  0.00  0.00    +0.039 C 
BRANCH  35  37
ATOM     37  O   UNL     1       4.113   7.742  -2.478  0.00  0.00    -0.391 OA
ATOM     38  H   UNL     1       4.130   7.872  -3.570  0.00  0.00    +0.210 HD
ENDBRANCH  35  37
ENDBRANCH  34  35
ENDBRANCH   1  34
TORSDOF 7
