REMARK  Name = ZINC36155103
REMARK  13 active torsions:
REMARK  status: ('A' for Active; 'I' for Inactive)
REMARK    1  A    between atoms: C_1  and  C_2
REMARK    2  A    between atoms: C_7  and  O_8
REMARK    3  A    between atoms: O_8  and  C_9
REMARK    4  A    between atoms: C_9  and  C_10
REMARK    5  A    between atoms: C_10  and  C_12
REMARK    6  A    between atoms: C_10  and  O_37
REMARK    7  A    between atoms: C_12  and  N_13
REMARK    8  A    between atoms: N_13  and  C_14
REMARK    9  A    between atoms: C_14  and  C_16
REMARK   10  A    between atoms: C_14  and  C_23
REMARK   11  A    between atoms: C_16  and  C_17
REMARK   12  A    between atoms: C_25  and  C_28
REMARK   13  A    between atoms: C_31  and  N_34
REMARK                            x       y       z     vdW  Elec       q    Type
REMARK                         _______ _______ _______ _____ _____    ______ ____
ROOT
ATOM      1  C   UNL     1       0.216  -0.659   8.458  0.00  0.00    +0.023 C 
ENDROOT
BRANCH   1   2
ATOM      2  C   UNL     1      -0.089   0.139   9.699  0.00  0.00    +0.214 A 
ATOM      3  N   UNL     1      -0.924  -0.204  10.639  0.00  0.00    -0.193 NA
ATOM      4  C   UNL     1      -0.950   0.739  11.598  0.00  0.00    +0.202 A 
ATOM      5  N   UNL     1      -0.120   1.697  11.266  0.00  0.00    -0.056 NA
ATOM      6  O   UNL     1       0.457   1.317  10.026  0.00  0.00    -0.339 OA
BRANCH   4   7
ATOM      7  C   UNL     1      -1.781   0.700  12.827  0.00  0.00    +0.023 A 
ATOM      8  C   UNL     1      -2.624  -0.383  13.067  0.00  0.00    +0.014 A 
ATOM      9  C   UNL     1      -3.394  -0.414  14.212  0.00  0.00    +0.033 A 
ATOM     10  C   UNL     1      -3.331   0.628  15.120  0.00  0.00    +0.126 A 
ATOM     11  C   UNL     1      -2.497   1.706  14.886  0.00  0.00    +0.033 A 
ATOM     12  C   UNL     1      -1.718   1.745  13.747  0.00  0.00    +0.014 A 
BRANCH  10  13
ATOM     13  N   UNL     1      -4.159   0.590  16.346  0.00  0.00    +0.056 N 
ATOM     14  O   UNL     1      -4.890  -0.351  16.552  0.00  0.00    -0.126 OA
ATOM     15  O   UNL     1      -4.106   1.499  17.140  0.00  0.00    -0.126 OA
ENDBRANCH  10  13
ENDBRANCH   4   7
ENDBRANCH   1   2
BRANCH   1  16
ATOM     16  N   UNL     1       0.230   0.234   7.292  0.00  0.00    +0.389 N 
ATOM     17  H   UNL     1       1.001   0.880   7.373  0.00  0.00    -0.085 HD
ATOM     18  H   UNL     1      -0.637   0.749   7.252  0.00  0.00    -0.085 HD
BRANCH  16  19
ATOM     19  C   UNL     1       0.385  -0.561   6.067  0.00  0.00    -0.046 C 
BRANCH  19  20
ATOM     20  C   UNL     1       0.267   0.354   4.847  0.00  0.00    +0.135 C 
BRANCH  20  21
ATOM     21  O   UNL     1      -1.015   0.985   4.846  0.00  0.00    -0.390 OA
ATOM     22  H   UNL     1      -1.758   0.366   4.812  0.00  0.00    +0.210 HD
ENDBRANCH  20  21
BRANCH  20  23
ATOM     23  C   UNL     1       0.428  -0.475   3.571  0.00  0.00    +0.258 C 
BRANCH  23  24
ATOM     24  O   UNL     1       0.435   0.394   2.436  0.00  0.00    -0.489 OA
BRANCH  24  31
ATOM     25  C   UNL     1       0.450   2.094   0.180  0.00  0.00    +0.047 C 
ATOM     26  C   UNL     1       0.586   0.598   0.071  0.00  0.00    -0.009 A 
ATOM     27  C   UNL     1       0.731   0.005  -1.169  0.00  0.00    +0.007 A 
ATOM     28  C   UNL     1       0.855  -1.368  -1.270  0.00  0.00    +0.000 A 
ATOM     29  C   UNL     1       0.835  -2.152  -0.132  0.00  0.00    +0.004 A 
ATOM     30  C   UNL     1       0.691  -1.565   1.110  0.00  0.00    +0.046 A 
ATOM     31  C   UNL     1       0.571  -0.186   1.215  0.00  0.00    +0.124 A 
ENDBRANCH  24  31
ENDBRANCH  23  24
ENDBRANCH  20  23
ENDBRANCH  19  20
ENDBRANCH  16  19
ENDBRANCH   1  16
BRANCH   1  32
ATOM     32  C   UNL     1       1.584  -1.328   8.605  0.00  0.00    +0.029 C 
BRANCH  32  33
ATOM     33  C   UNL     1       1.531  -2.343   9.717  0.00  0.00    -0.048 A 
ATOM     34  C   UNL     1       1.935  -1.992  10.992  0.00  0.00    +0.003 A 
ATOM     35  C   UNL     1       1.886  -2.923  12.013  0.00  0.00    +0.000 A 
ATOM     36  C   UNL     1       1.433  -4.204  11.759  0.00  0.00    +0.000 A 
ATOM     37  C   UNL     1       1.028  -4.554  10.485  0.00  0.00    +0.000 A 
ATOM     38  C   UNL     1       1.073  -3.622   9.465  0.00  0.00    +0.003 A 
ENDBRANCH  32  33
ENDBRANCH   1  32
TORSDOF 12
