REMARK  Name = ZINC21018130
REMARK  4 active torsions:
REMARK  status: ('A' for Active; 'I' for Inactive)
REMARK    1  A    between atoms: C_6  and  N_7
REMARK    2  A    between atoms: C_8  and  C_27
REMARK    3  A    between atoms: C_9  and  C_12
REMARK    4  A    between atoms: N_17  and  C_20
REMARK                            x       y       z     vdW  Elec       q    Type
REMARK                         _______ _______ _______ _____ _____    ______ ____
ROOT
ATOM      1  N   UNL     1      -0.072  -0.259   2.969  0.00  0.00    -0.236 N 
ATOM      2  C   UNL     1      -0.030   0.992   2.475  0.00  0.00    +0.060 A 
ATOM      3  C   UNL     1       0.736   1.751   3.338  0.00  0.00    +0.078 A 
ATOM      4  C   UNL     1       1.163   0.896   4.379  0.00  0.00    +0.148 A 
ATOM      5  N   UNL     1       0.680  -0.294   4.149  0.00  0.00    -0.174 NA
ENDROOT
BRANCH   3   6
ATOM      6  C   UNL     1       1.051   3.184   3.198  0.00  0.00    +0.250 C 
ATOM      7  O   UNL     1       0.153   3.993   3.057  0.00  0.00    -0.270 OA
ATOM      8  N   UNL     1       2.333   3.599   3.227  0.00  0.00    -0.294 N 
ATOM      9  C   UNL     1       3.426   2.654   3.503  0.00  0.00    +0.127 C 
ATOM     10  C   UNL     1       4.485   2.807   2.401  0.00  0.00    +0.124 C 
ATOM     11  N   UNL     1       4.891   4.215   2.310  0.00  0.00    -0.327 N 
ATOM     12  C   UNL     1       3.764   5.070   1.911  0.00  0.00    +0.124 C 
ATOM     13  C   UNL     1       2.676   5.009   2.988  0.00  0.00    +0.127 C 
BRANCH  11  14
ATOM     14  C   UNL     1       5.971   4.370   1.436  0.00  0.00    +0.030 A 
ATOM     15  C   UNL     1       5.875   5.244   0.360  0.00  0.00    +0.024 A 
ATOM     16  C   UNL     1       6.946   5.399  -0.498  0.00  0.00    +0.022 A 
ATOM     17  C   UNL     1       8.109   4.678  -0.294  0.00  0.00    +0.041 A 
ATOM     18  C   UNL     1       8.204   3.803   0.774  0.00  0.00    +0.022 A 
ATOM     19  C   UNL     1       7.139   3.648   1.639  0.00  0.00    +0.024 A 
ATOM     20 CL   UNL     1       9.450   4.870  -1.379  0.00  0.00    -0.084 Cl
ENDBRANCH  11  14
ENDBRANCH   3   6
BRANCH   2  21
ATOM     21  C   UNL     1      -0.701   1.477   1.216  0.00  0.00    +0.035 C 
ATOM     22  C   UNL     1      -1.812   2.466   1.577  0.00  0.00    -0.010 C 
ATOM     23  C   UNL     1      -2.450   3.002   0.292  0.00  0.00    -0.082 C 
ATOM     24  N   UNL     1      -1.426   3.666  -0.524  0.00  0.00    +0.379 N 
ATOM     25  C   UNL     1      -0.372   2.724  -0.923  0.00  0.00    -0.082 C 
ATOM     26  C   UNL     1       0.328   2.181   0.325  0.00  0.00    -0.010 C 
ATOM     27  H   UNL     1      -1.891   4.077  -1.432  0.00  0.00    -0.086 HD
ATOM     28  H   UNL     1      -0.967   4.481   0.055  0.00  0.00    -0.086 HD
ENDBRANCH   2  21
BRANCH   1  34
ATOM     29  C   UNL     1      -2.034  -1.173   1.894  0.00  0.00    +0.029 A 
ATOM     30  C   UNL     1      -2.699  -2.242   1.327  0.00  0.00    +0.022 A 
ATOM     31  C   UNL     1      -2.093  -3.484   1.269  0.00  0.00    +0.041 A 
ATOM     32  C   UNL     1      -0.816  -3.658   1.775  0.00  0.00    +0.022 A 
ATOM     33  C   UNL     1      -0.145  -2.591   2.339  0.00  0.00    +0.029 A 
ATOM     34  C   UNL     1      -0.751  -1.343   2.397  0.00  0.00    +0.066 A 
ATOM     35 CL   UNL     1      -2.934  -4.828   0.562  0.00  0.00    -0.084 Cl
ENDBRANCH   1  34
TORSDOF 4
