REMARK  Name = ZINC06557560
REMARK  5 active torsions:
REMARK  status: ('A' for Active; 'I' for Inactive)
REMARK    1  A    between atoms: C_4  and  C_7
REMARK    2  A    between atoms: C_7  and  C_10
REMARK    3  A    between atoms: N_8  and  O_9
REMARK    4  A    between atoms: C_10  and  C_11
REMARK    5  A    between atoms: C_11  and  O_21
REMARK                            x       y       z     vdW  Elec       q    Type
REMARK                         _______ _______ _______ _____ _____    ______ ____
ROOT
ATOM      1  C   UNL     1       5.658  -2.660   0.419  0.00  0.00    +0.174 C 
ATOM      2  C   UNL     1       5.987  -4.126   0.588  0.00  0.00    +0.014 A 
ATOM      3  C   UNL     1       6.056  -5.178  -0.298  0.00  0.00    +0.009 A 
ATOM      4  C   UNL     1       6.390  -6.442   0.156  0.00  0.00    +0.000 A 
ATOM      5  C   UNL     1       6.654  -6.643   1.499  0.00  0.00    +0.002 A 
ATOM      6  C   UNL     1       6.585  -5.591   2.388  0.00  0.00    +0.024 A 
ATOM      7  C   UNL     1       6.249  -4.315   1.938  0.00  0.00    +0.040 A 
ATOM      8  N   UNL     1       6.116  -3.110   2.629  0.00  0.00    -0.282 N 
ATOM      9  C   UNL     1       5.774  -2.094   1.818  0.00  0.00    +0.254 C 
ATOM     10  O   UNL     1       5.592  -0.941   2.146  0.00  0.00    -0.272 OA
ATOM     11  H   UNL     1       6.255  -3.016   3.584  0.00  0.00    +0.155 HD
ENDROOT
BRANCH   1  12
ATOM     12  O   UNL     1       6.598  -2.031  -0.455  0.00  0.00    -0.374 OA
ATOM     13  H   UNL     1       6.483  -1.074  -0.532  0.00  0.00    +0.211 HD
ENDBRANCH   1  12
BRANCH   1  14
ATOM     14  C   UNL     1       4.234  -2.488  -0.113  0.00  0.00    +0.108 C 
BRANCH  14  15
ATOM     15  C   UNL     1       3.895  -1.021  -0.175  0.00  0.00    +0.091 C 
ATOM     16  N   UNL     1       4.244  -0.319  -1.204  0.00  0.00    -0.091 NA
BRANCH  15  20
ATOM     17  C   UNL     1       1.795   0.809   3.029  0.00  0.00    +0.000 A 
ATOM     18  C   UNL     1       2.167   1.563   1.930  0.00  0.00    +0.001 A 
ATOM     19  C   UNL     1       2.850   0.975   0.886  0.00  0.00    +0.010 A 
ATOM     20  C   UNL     1       3.165  -0.384   0.940  0.00  0.00    -0.000 A 
ATOM     21  C   UNL     1       2.787  -1.139   2.052  0.00  0.00    +0.010 A 
ATOM     22  C   UNL     1       2.105  -0.538   3.089  0.00  0.00    +0.001 A 
ENDBRANCH  15  20
BRANCH  16  23
ATOM     23  O   UNL     1       4.822  -0.953  -2.330  0.00  0.00    -0.409 OA
ATOM     24  H   UNL     1       5.050  -0.348  -3.049  0.00  0.00    +0.328 HD
ENDBRANCH  16  23
ENDBRANCH  14  15
ENDBRANCH   1  14
TORSDOF 5
