REMARK  Name = ZINC39711363
REMARK  13 active torsions:
REMARK  status: ('A' for Active; 'I' for Inactive)
REMARK    1  A    between atoms: C_1  and  O_2
REMARK    2  A    between atoms: O_2  and  C_3
REMARK    3  A    between atoms: C_3  and  C_4
REMARK    4  A    between atoms: C_4  and  N_5
REMARK    5  A    between atoms: C_6  and  C_10
REMARK    6  A    between atoms: C_10  and  C_12
REMARK    7  A    between atoms: C_10  and  N_26
REMARK    8  A    between atoms: C_17  and  O_24
REMARK    9  A    between atoms: O_24  and  C_25
REMARK   10  A    between atoms: N_26  and  C_27
REMARK   11  A    between atoms: N_26  and  C_33
REMARK   12  A    between atoms: C_27  and  C_28
REMARK   13  A    between atoms: C_33  and  C_34
REMARK                            x       y       z     vdW  Elec       q    Type
REMARK                         _______ _______ _______ _____ _____    ______ ____
ROOT
ATOM      1  C   UNL     1       4.492  -2.534   1.099  0.00  0.00    +0.143 C 
ENDROOT
BRANCH   1   2
ATOM      2  C   UNL     1       5.882  -1.988   1.431  0.00  0.00    +0.123 C 
ATOM      3  C   UNL     1       5.712  -0.581   1.969  0.00  0.00    -0.003 C 
ATOM      4  C   UNL     1       6.359   0.423   1.311  0.00  0.00    -0.003 A 
ATOM      5  C   UNL     1       6.248   1.810   1.763  0.00  0.00    +0.055 A 
ATOM      6  C   UNL     1       6.912   2.780   1.074  0.00  0.00    +0.121 A 
ATOM      7  C   UNL     1       7.689   2.471  -0.048  0.00  0.00    +0.047 A 
ATOM      8  C   UNL     1       7.830   1.204  -0.515  0.00  0.00    +0.027 A 
ATOM      9  C   UNL     1       7.185   0.129   0.126  0.00  0.00    +0.041 A 
ATOM     10  N   UNL     1       7.332  -1.110  -0.343  0.00  0.00    -0.284 N 
ATOM     11  C   UNL     1       6.755  -2.163   0.208  0.00  0.00    +0.226 C 
ATOM     12  O   UNL     1       6.926  -3.271  -0.266  0.00  0.00    -0.275 OA
ATOM     13  H   UNL     1       7.888  -1.245  -1.126  0.00  0.00    +0.155 HD
BRANCH   6  14
ATOM     14  O   UNL     1       6.817   4.072   1.484  0.00  0.00    -0.495 OA
ATOM     15  C   UNL     1       7.533   5.048   0.725  0.00  0.00    +0.277 C 
ENDBRANCH   6  14
ENDBRANCH   1   2
BRANCH   1  17
ATOM     16  N   UNL     1       2.758  -3.343   2.785  0.00  0.00    -0.225 N 
ATOM     17  C   UNL     1       3.601  -2.408   2.307  0.00  0.00    +0.170 A 
ATOM     18  N   UNL     1       3.496  -1.368   3.097  0.00  0.00    -0.112 NA
ATOM     19  N   UNL     1       2.634  -1.649   4.013  0.00  0.00    -0.023 NA
ATOM     20  N   UNL     1       2.182  -2.839   3.823  0.00  0.00    -0.044 NA
BRANCH  16  21
ATOM     21  C   UNL     1       2.533  -4.678   2.226  0.00  0.00    +0.175 C 
BRANCH  21  22
ATOM     22  C   UNL     1       1.237  -4.679   1.412  0.00  0.00    +0.183 C 
BRANCH  22  24
ATOM     23  C   UNL     1      -0.278  -6.131   0.253  0.00  0.00    +0.194 C 
ATOM     24  O   UNL     1       0.945  -6.011   0.984  0.00  0.00    -0.381 OA
ENDBRANCH  22  24
ENDBRANCH  21  22
ENDBRANCH  16  21
ENDBRANCH   1  17
BRANCH   1  25
ATOM     25  N   UNL     1       4.601  -3.948   0.715  0.00  0.00    -0.280 NA
BRANCH  25  26
ATOM     26  C   UNL     1       4.746  -4.090  -0.740  0.00  0.00    +0.159 C 
BRANCH  26  27
ATOM     27  C   UNL     1       3.393  -3.973  -1.393  0.00  0.00    +0.119 A 
ATOM     28  C   UNL     1       2.832  -2.835  -1.841  0.00  0.00    +0.046 A 
ATOM     29  C   UNL     1       1.571  -3.184  -2.376  0.00  0.00    +0.041 A 
ATOM     30  C   UNL     1       1.437  -4.514  -2.223  0.00  0.00    +0.195 A 
ATOM     31  O   UNL     1       2.546  -4.987  -1.633  0.00  0.00    -0.467 OA
ENDBRANCH  26  27
ENDBRANCH  25  26
BRANCH  25  32
ATOM     32  C   UNL     1       5.712  -4.601   1.421  0.00  0.00    +0.128 C 
BRANCH  32  33
ATOM     33  C   UNL     1       5.303  -4.889   2.843  0.00  0.00    +0.004 A 
ATOM     34  C   UNL     1       4.760  -6.016   3.364  0.00  0.00    +0.012 A 
ATOM     35  C   UNL     1       4.463  -6.056   4.713  0.00  0.00    +0.008 A 
ATOM     36  C   UNL     1       4.724  -4.966   5.476  0.00  0.00    +0.045 A 
ATOM     37  S   UNL     1       5.416  -3.835   4.280  0.00  0.00    -0.100 S 
ENDBRANCH  32  33
ENDBRANCH  25  32
ENDBRANCH   1  25
TORSDOF 11
