REMARK  Name = ZINC00907317
REMARK  4 active torsions:
REMARK  status: ('A' for Active; 'I' for Inactive)
REMARK    1  A    between atoms: C_1  and  C_2
REMARK    2  A    between atoms: C_10  and  N_26
REMARK    3  A    between atoms: C_11  and  C_15
REMARK    4  A    between atoms: C_18  and  C_20
REMARK                            x       y       z     vdW  Elec       q    Type
REMARK                         _______ _______ _______ _____ _____    ______ ____
ROOT
ATOM      1  C   UNL     1       1.208  -2.169  -0.022  0.00  0.00    +0.044 C 
ATOM      2  C   UNL     1       1.192  -0.662  -0.013  0.00  0.00    -0.050 A 
ATOM      3  C   UNL     1       2.399   0.037  -0.021  0.00  0.00    +0.005 A 
ATOM      4  C   UNL     1       2.420   1.398  -0.013  0.00  0.00    +0.028 A 
ATOM      5  C   UNL     1       1.211   2.116   0.002  0.00  0.00    +0.072 A 
ATOM      6  C   UNL     1      -0.017   1.404   0.010  0.00  0.00    +0.001 A 
ATOM      7  C   UNL     1       0.002  -0.004   0.002  0.00  0.00    +0.013 A 
ATOM      8  C   UNL     1      -1.227   2.106   0.019  0.00  0.00    +0.022 A 
ATOM      9  C   UNL     1      -1.197   3.512   0.031  0.00  0.00    +0.030 A 
ATOM     10  C   UNL     1      -2.320   4.440   0.047  0.00  0.00    +0.054 A 
ATOM     11  C   UNL     1      -2.064   5.778   0.051  0.00  0.00    +0.099 A 
ATOM     12  S   UNL     1      -0.284   5.866   0.035  0.00  0.00    -0.062 S 
ATOM     13  C   UNL     1       0.086   4.128   0.023  0.00  0.00    +0.111 A 
ATOM     14  N   UNL     1       1.206   3.452   0.009  0.00  0.00    -0.239 NA
ENDROOT
BRANCH  11  15
ATOM     15  C   UNL     1      -3.025   6.884   0.065  0.00  0.00    +0.257 A 
ATOM     16  N   UNL     1      -4.339   6.777   0.077  0.00  0.00    -0.106 NA
ATOM     17  N   UNL     1      -4.863   7.952   0.087  0.00  0.00    -0.107 NA
ATOM     18  C   UNL     1      -3.910   8.856   0.082  0.00  0.00    +0.249 A 
ATOM     19  O   UNL     1      -2.729   8.201   0.074  0.00  0.00    -0.415 OA
BRANCH  18  20
ATOM     20  C   UNL     1      -4.097  10.320   0.091  0.00  0.00    +0.038 A 
ATOM     21  C   UNL     1      -2.987  11.169   0.091  0.00  0.00    +0.013 A 
ATOM     22  C   UNL     1      -3.169  12.536   0.093  0.00  0.00    +0.001 A 
ATOM     23  C   UNL     1      -4.446  13.068   0.108  0.00  0.00    +0.000 A 
ATOM     24  C   UNL     1      -5.550  12.233   0.114  0.00  0.00    +0.001 A 
ATOM     25  C   UNL     1      -5.383  10.864   0.106  0.00  0.00    +0.013 A 
ENDBRANCH  18  20
ENDBRANCH  11  15
BRANCH  10  26
ATOM     26  N   UNL     1      -3.633   3.967   0.056  0.00  0.00    -0.356 N 
ATOM     27  H   UNL     1      -4.374   4.593   0.067  0.00  0.00    +0.142 HD
ATOM     28  H   UNL     1      -3.805   3.013   0.053  0.00  0.00    +0.142 HD
ENDBRANCH  10  26
TORSDOF 3
