REMARK  Name = ZINC32910720
REMARK  9 active torsions:
REMARK  status: ('A' for Active; 'I' for Inactive)
REMARK    1  A    between atoms: C_1  and  C_2
REMARK    2  A    between atoms: C_2  and  C_3
REMARK    3  A    between atoms: C_3  and  C_4
REMARK    4  A    between atoms: C_4  and  C_5
REMARK    5  A    between atoms: C_5  and  N_6
REMARK    6  A    between atoms: C_14  and  S_15
REMARK    7  A    between atoms: S_15  and  C_16
REMARK    8  A    between atoms: C_16  and  C_17
REMARK    9  A    between atoms: N_19  and  N_20
REMARK                            x       y       z     vdW  Elec       q    Type
REMARK                         _______ _______ _______ _____ _____    ______ ____
ROOT
ATOM      1  C   UNL     1      -1.344  -3.629   5.119  0.00  0.00    +0.240 C 
ATOM      2  O   UNL     1      -1.355  -2.498   5.559  0.00  0.00    -0.273 OA
ATOM      3  N   UNL     1      -1.322  -4.680   5.963  0.00  0.00    -0.223 N 
ATOM      4  H   UNL     1      -1.312  -5.705   5.564  0.00  0.00    +0.174 HD
ENDROOT
BRANCH   3   5
ATOM      5  N   UNL     1      -1.312  -4.466   7.347  0.00  0.00    -0.137 N 
ATOM      6  C   UNL     1      -2.380  -4.650   8.151  0.00  0.00    +0.263 C 
ATOM      7  O   UNL     1      -3.488  -5.018   7.825  0.00  0.00    -0.271 OA
ATOM      8  C   UNL     1      -1.903  -4.302   9.542  0.00  0.00    +0.114 C 
ATOM      9  C   UNL     1      -2.015  -5.514  10.461  0.00  0.00    +0.035 C 
ATOM     10  C   UNL     1      -1.502  -5.149  11.856  0.00  0.00    +0.003 C 
ATOM     11  C   UNL     1      -2.326  -3.987  12.414  0.00  0.00    +0.000 C 
ATOM     12  C   UNL     1      -2.184  -2.772  11.495  0.00  0.00    +0.003 C 
ATOM     13  C   UNL     1      -2.700  -3.127  10.098  0.00  0.00    +0.035 C 
ATOM     14  N   UNL     1      -0.496  -3.927   9.354  0.00  0.00    -0.284 N 
ATOM     15  C   UNL     1      -0.240  -4.060   8.038  0.00  0.00    +0.326 C 
ATOM     16  O   UNL     1       0.843  -3.833   7.534  0.00  0.00    -0.251 OA
ATOM     17  H   UNL     1       0.111  -3.618  10.217  0.00  0.00    +0.151 HD
ENDBRANCH   3   5
BRANCH   1  18
ATOM     18  C   UNL     1      -1.355  -3.858   3.630  0.00  0.00    +0.174 C 
BRANCH  18  19
ATOM     19  S   UNL     1      -1.384  -2.264   2.774  0.00  0.00    -0.078 S 
BRANCH  19  28
ATOM     20  N   UNL     1      -1.413  -1.998   0.005  0.00  0.00    -0.319 N 
ATOM     21  C   UNL     1      -1.419  -2.814  -1.115  0.00  0.00    +0.069 A 
ATOM     22  C   UNL     1      -1.442  -2.573  -2.480  0.00  0.00    +0.028 A 
ATOM     23  C   UNL     1      -1.440  -3.631  -3.365  0.00  0.00    +0.002 A 
ATOM     24  C   UNL     1      -1.415  -4.937  -2.898  0.00  0.00    +0.002 A 
ATOM     25  C   UNL     1      -1.384  -5.195  -1.546  0.00  0.00    +0.030 A 
ATOM     26  C   UNL     1      -1.390  -4.135  -0.637  0.00  0.00    +0.090 A 
ATOM     27  N   UNL     1      -1.379  -4.069   0.720  0.00  0.00    -0.222 NA
ATOM     28  C   UNL     1      -1.392  -2.815   1.100  0.00  0.00    +0.170 A 
BRANCH  20  29
ATOM     29  C   UNL     1      -1.433  -0.534   0.013  0.00  0.00    +0.124 C 
BRANCH  29  30
ATOM     30  C   UNL     1       0.002  -0.004   0.002  0.00  0.00    +0.022 C 
BRANCH  30  31
ATOM     31  C   UNL     1      -0.019   1.526   0.010  0.00  0.00    +0.001 C 
BRANCH  31  33
ATOM     32  C   UNL     1       1.396   3.585   0.008  0.00  0.00    +0.004 C 
ATOM     33  C   UNL     1       1.417   2.055  -0.000  0.00  0.00    -0.003 C 
ENDBRANCH  31  33
ENDBRANCH  30  31
ENDBRANCH  29  30
ENDBRANCH  20  29
ENDBRANCH  19  28
ENDBRANCH  18  19
ENDBRANCH   1  18
TORSDOF 8
