REMARK  Name = ZINC59048605
REMARK  5 active torsions:
REMARK  status: ('A' for Active; 'I' for Inactive)
REMARK    1  A    between atoms: C_2  and  N_9
REMARK    2  A    between atoms: C_10  and  C_12
REMARK    3  A    between atoms: C_12  and  S_13
REMARK    4  A    between atoms: S_13  and  C_14
REMARK    5  A    between atoms: N_19  and  N_20
REMARK                            x       y       z     vdW  Elec       q    Type
REMARK                         _______ _______ _______ _____ _____    ______ ____
ROOT
ATOM      1  N   UNL     1       1.161   3.487   0.009  0.00  0.00    -0.285 N 
ATOM      2  C   UNL     1       2.317   4.173   0.104  0.00  0.00    +0.227 C 
ATOM      3  O   UNL     1       3.376   3.583   0.091  0.00  0.00    -0.275 OA
ATOM      4  H   UNL     1       0.318   3.962  -0.058  0.00  0.00    +0.155 HD
ENDROOT
BRANCH   1   6
ATOM      5  C   UNL     1       2.132   1.402   0.746  0.00  0.00    +0.043 A 
ATOM      6  C   UNL     1       1.177   2.087   0.008  0.00  0.00    +0.036 A 
ATOM      7  C   UNL     1       0.236   1.382  -0.732  0.00  0.00    +0.043 A 
ATOM      8  C   UNL     1       0.254  -0.000  -0.731  0.00  0.00    +0.044 A 
ATOM      9  C   UNL     1       1.207  -0.681   0.006  0.00  0.00    +0.040 A 
ATOM     10  C   UNL     1       2.145   0.020   0.744  0.00  0.00    +0.044 A 
ATOM     11 CL   UNL     1       3.340  -0.838   1.666  0.00  0.00    -0.083 Cl
ATOM     12 CL   UNL     1      -0.921  -0.883  -1.655  0.00  0.00    -0.083 Cl
ENDBRANCH   1   6
BRANCH   2  13
ATOM     13  C   UNL     1       2.293   5.675   0.225  0.00  0.00    +0.172 C 
BRANCH  13  14
ATOM     14  S   UNL     1       3.992   6.300   0.332  0.00  0.00    -0.088 S 
BRANCH  14  15
ATOM     15  C   UNL     1       3.797   8.046   0.468  0.00  0.00    +0.160 A 
ATOM     16  N   UNL     1       2.690   8.764   0.495  0.00  0.00    -0.133 NA
ATOM     17  N   UNL     1       2.765  10.133   0.608  0.00  0.00    -0.124 NA
ATOM     18  C   UNL     1       3.942  10.721   0.689  0.00  0.00    +0.196 A 
ATOM     19  S   UNL     1       5.044   9.317   0.613  0.00  0.00    -0.023 S 
ATOM     20  N   UNL     1       4.245  12.073   0.806  0.00  0.00    -0.260 N 
ATOM     21  H   UNL     1       5.170  12.360   0.855  0.00  0.00    +0.168 HD
BRANCH  20  22
ATOM     22  N   UNL     1       3.240  12.996   0.854  0.00  0.00    -0.255 NA
ATOM     23  H   UNL     1       3.611  13.931   0.940  0.00  0.00    +0.140 HD
ATOM     24  H   UNL     1       2.639  12.919   0.047  0.00  0.00    +0.140 HD
ENDBRANCH  20  22
ENDBRANCH  14  15
ENDBRANCH  13  14
ENDBRANCH   2  13
TORSDOF 5
