REMARK  Name = ZINC54910849
REMARK  5 active torsions:
REMARK  status: ('A' for Active; 'I' for Inactive)
REMARK    1  A    between atoms: C_1  and  C_2
REMARK    2  A    between atoms: C_2  and  C_3
REMARK    3  A    between atoms: C_15  and  O_22
REMARK    4  A    between atoms: C_18  and  C_20
REMARK    5  A    between atoms: C_18  and  C_21
REMARK                            x       y       z     vdW  Elec       q    Type
REMARK                         _______ _______ _______ _____ _____    ______ ____
ROOT
ATOM      1  C   UNL     1      -1.787  -1.603   1.283  0.00  0.00    +0.075 C 
ATOM      2  C   UNL     1      -3.208  -2.174   1.275  0.00  0.00    +0.022 C 
ATOM      3  C   UNL     1      -3.948  -1.673   0.032  0.00  0.00    +0.003 C 
ATOM      4  C   UNL     1      -4.041  -0.146   0.072  0.00  0.00    +0.019 C 
ATOM      5  C   UNL     1      -2.629   0.448   0.067  0.00  0.00    +0.107 C 
ATOM      6  N   UNL     1      -1.862  -0.139   1.175  0.00  0.00    -0.307 N 
ATOM      7  C   UNL     1      -1.224   0.671   2.101  0.00  0.00    +0.161 A 
ATOM      8  N   UNL     1      -1.665   1.080   3.271  0.00  0.00    -0.229 NA
ATOM      9  C   UNL     1      -0.935   1.862   4.062  0.00  0.00    +0.057 A 
ATOM     10  C   UNL     1       0.283   2.197   3.568  0.00  0.00    +0.043 A 
ATOM     11  S   UNL     1       0.308   1.367   2.005  0.00  0.00    -0.054 S 
ATOM     12  C   UNL     1       1.324   3.050   4.210  0.00  0.00    +0.153 C 
ATOM     13  C   UNL     1       0.965   3.209   5.697  0.00  0.00    +0.043 C 
ATOM     14  C   UNL     1      -0.518   3.572   5.810  0.00  0.00    -0.027 C 
ATOM     15  C   UNL     1      -1.385   2.372   5.425  0.00  0.00    +0.063 C 
ATOM     16  C   UNL     1      -0.832   3.983   7.250  0.00  0.00    +0.011 C 
ATOM     17  C   UNL     1      -0.827   4.742   4.874  0.00  0.00    +0.011 C 
ENDROOT
BRANCH   1  19
ATOM     18  C   UNL     1      -0.889  -3.501   2.637  0.00  0.00    +0.006 C 
ATOM     19  C   UNL     1      -1.089  -1.985   2.590  0.00  0.00    +0.019 C 
ENDBRANCH   1  19
BRANCH  12  20
ATOM     20  O   UNL     1       2.603   2.425   4.087  0.00  0.00    -0.387 OA
ATOM     21  H   UNL     1       2.882   2.278   3.173  0.00  0.00    +0.210 HD
ENDBRANCH  12  20
TORSDOF 2
