REMARK  Name = ZINC34909705
REMARK  14 active torsions:
REMARK  status: ('A' for Active; 'I' for Inactive)
REMARK    1  A    between atoms: C_1  and  C_2
REMARK    2  A    between atoms: C_2  and  N_3
REMARK    3  A    between atoms: C_9  and  N_12
REMARK    4  A    between atoms: N_12  and  C_13
REMARK    5  A    between atoms: C_13  and  C_14
REMARK    6  A    between atoms: C_17  and  C_20
REMARK    7  A    between atoms: C_21  and  C_23
REMARK    8  A    between atoms: C_23  and  N_24
REMARK    9  A    between atoms: N_24  and  C_25
REMARK   10  A    between atoms: N_24  and  S_29
REMARK   11  A    between atoms: C_25  and  C_26
REMARK   12  A    between atoms: C_26  and  O_27
REMARK   13  A    between atoms: O_27  and  C_28
REMARK   14  A    between atoms: S_29  and  C_32
REMARK                            x       y       z     vdW  Elec       q    Type
REMARK                         _______ _______ _______ _____ _____    ______ ____
ROOT
ATOM      1  N   UNL     1      -6.060  -3.374   2.614  0.00  0.00    -0.293 N 
ATOM      2  C   UNL     1      -5.684  -2.890   3.814  0.00  0.00    +0.232 C 
ATOM      3  O   UNL     1      -4.531  -2.564   4.003  0.00  0.00    -0.274 OA
ENDROOT
BRANCH   1  10
ATOM      4  N   UNL     1      -0.980  -1.288  -0.017  0.00  0.00    -0.300 N 
ATOM      5  C   UNL     1      -1.284  -2.576   0.242  0.00  0.00    +0.302 C 
ATOM      6  O   UNL     1      -0.395  -3.389   0.403  0.00  0.00    -0.253 OA
ATOM      7  N   UNL     1      -2.572  -2.961   0.323  0.00  0.00    -0.286 N 
ATOM      8  C   UNL     1      -3.656  -2.018   0.016  0.00  0.00    +0.111 C 
ATOM      9  C   UNL     1      -4.630  -1.984   1.198  0.00  0.00    +0.041 C 
ATOM     10  C   UNL     1      -5.103  -3.407   1.505  0.00  0.00    +0.079 C 
ATOM     11  C   UNL     1      -3.902  -4.273   1.893  0.00  0.00    +0.041 C 
ATOM     12  C   UNL     1      -2.920  -4.334   0.713  0.00  0.00    +0.111 C 
ATOM     13  H   UNL     1      -1.686  -0.655  -0.218  0.00  0.00    +0.150 HD
BRANCH   4  15
ATOM     14  C   UNL     1       0.484   0.647  -0.318  0.00  0.00    +0.024 C 
ATOM     15  C   UNL     1       0.416  -0.846   0.006  0.00  0.00    +0.102 C 
ENDBRANCH   4  15
ENDBRANCH   1  10
BRANCH   1  16
ATOM     16  C   UNL     1      -7.425  -3.869   2.418  0.00  0.00    +0.143 C 
BRANCH  16  17
ATOM     17  C   UNL     1      -7.450  -5.364   2.607  0.00  0.00    -0.030 A 
ATOM     18  C   UNL     1      -7.143  -6.199   1.550  0.00  0.00    +0.005 A 
ATOM     19  C   UNL     1      -7.166  -7.571   1.724  0.00  0.00    +0.003 A 
ATOM     20  C   UNL     1      -7.495  -8.106   2.955  0.00  0.00    -0.050 A 
ATOM     21  C   UNL     1      -7.802  -7.270   4.013  0.00  0.00    +0.003 A 
ATOM     22  C   UNL     1      -7.775  -5.899   3.840  0.00  0.00    +0.005 A 
ATOM     23  C   UNL     1      -7.521  -9.601   3.144  0.00  0.00    +0.044 C 
ENDBRANCH  16  17
ENDBRANCH   1  16
BRANCH   2  24
ATOM     24  C   UNL     1      -6.697  -2.754   4.922  0.00  0.00    +0.205 C 
BRANCH  24  25
ATOM     25  N   UNL     1      -6.076  -2.091   6.072  0.00  0.00    -0.166 NA
BRANCH  25  26
ATOM     26  S   UNL     1      -5.436  -2.995   7.303  0.00  0.00    +0.061 S 
ATOM     27  O   UNL     1      -5.435  -2.166   8.457  0.00  0.00    -0.153 OA
ATOM     28  O   UNL     1      -6.097  -4.253   7.269  0.00  0.00    -0.153 OA
BRANCH  26  29
ATOM     29  C   UNL     1      -3.748  -3.302   6.901  0.00  0.00    +0.105 A 
ATOM     30  C   UNL     1      -3.405  -4.423   6.168  0.00  0.00    +0.028 A 
ATOM     31  C   UNL     1      -2.081  -4.664   5.853  0.00  0.00    +0.002 A 
ATOM     32  C   UNL     1      -1.100  -3.784   6.270  0.00  0.00    +0.000 A 
ATOM     33  C   UNL     1      -1.443  -2.663   7.003  0.00  0.00    +0.002 A 
ATOM     34  C   UNL     1      -2.768  -2.420   7.314  0.00  0.00    +0.028 A 
ENDBRANCH  26  29
ENDBRANCH  25  26
BRANCH  25  35
ATOM     35  C   UNL     1      -6.021  -0.628   6.132  0.00  0.00    +0.138 C 
BRANCH  35  36
ATOM     36  C   UNL     1      -7.330  -0.093   6.716  0.00  0.00    +0.176 C 
BRANCH  36  37
ATOM     37  O   UNL     1      -7.458  -0.523   8.073  0.00  0.00    -0.382 OA
ATOM     38  C   UNL     1      -8.653  -0.074   8.715  0.00  0.00    +0.194 C 
ENDBRANCH  36  37
ENDBRANCH  35  36
ENDBRANCH  25  35
ENDBRANCH  24  25
ENDBRANCH   2  24
TORSDOF 11
