REMARK  Name = ZINC01509805
REMARK  7 active torsions:
REMARK  status: ('A' for Active; 'I' for Inactive)
REMARK    1  A    between atoms: C_1  and  C_2
REMARK    2  A    between atoms: C_8  and  C_29
REMARK    3  A    between atoms: C_15  and  C_17
REMARK    4  A    between atoms: C_20  and  S_23
REMARK    5  A    between atoms: S_23  and  N_26
REMARK    6  A    between atoms: N_26  and  C_27
REMARK    7  A    between atoms: N_26  and  C_28
REMARK                            x       y       z     vdW  Elec       q    Type
REMARK                         _______ _______ _______ _____ _____    ______ ____
ROOT
ATOM      1  C   UNL     1      -2.567   5.770   4.465  0.00  0.00    +0.044 C 
ATOM      2  C   UNL     1      -2.879   4.620   3.543  0.00  0.00    -0.050 A 
ATOM      3  C   UNL     1      -3.497   3.482   4.031  0.00  0.00    +0.005 A 
ATOM      4  C   UNL     1      -3.776   2.442   3.180  0.00  0.00    +0.024 A 
ATOM      5  C   UNL     1      -3.448   2.503   1.814  0.00  0.00    +0.039 A 
ATOM      6  C   UNL     1      -2.829   3.640   1.336  0.00  0.00    -0.001 A 
ATOM      7  C   UNL     1      -2.551   4.691   2.208  0.00  0.00    +0.011 A 
ATOM      8  C   UNL     1      -2.415   3.845  -0.088  0.00  0.00    +0.139 C 
ATOM      9  N   UNL     1      -3.291   3.247  -1.060  0.00  0.00    -0.278 N 
ATOM     10  C   UNL     1      -3.327   1.822  -1.336  0.00  0.00    +0.205 C 
ATOM     11  C   UNL     1      -3.919   1.087  -0.177  0.00  0.00    +0.235 C 
ATOM     12  O   UNL     1      -4.587   0.108  -0.435  0.00  0.00    -0.274 OA
ATOM     13  N   UNL     1      -3.790   1.391   1.083  0.00  0.00    -0.284 N 
ATOM     14  C   UNL     1      -4.122   4.053  -1.751  0.00  0.00    +0.248 C 
ATOM     15  O   UNL     1      -4.055   5.258  -1.612  0.00  0.00    -0.270 OA
ATOM     16  H   UNL     1      -3.986   0.633   1.655  0.00  0.00    +0.155 HD
ENDROOT
BRANCH  14  17
ATOM     17  C   UNL     1      -5.117   3.470  -2.677  0.00  0.00    +0.037 A 
ATOM     18  C   UNL     1      -5.302   4.023  -3.945  0.00  0.00    +0.015 A 
ATOM     19  C   UNL     1      -6.228   3.471  -4.806  0.00  0.00    +0.029 A 
ATOM     20  C   UNL     1      -6.979   2.378  -4.411  0.00  0.00    +0.105 A 
ATOM     21  C   UNL     1      -6.804   1.828  -3.153  0.00  0.00    +0.029 A 
ATOM     22  C   UNL     1      -5.878   2.367  -2.285  0.00  0.00    +0.015 A 
BRANCH  20  23
ATOM     23  S   UNL     1      -8.165   1.683  -5.514  0.00  0.00    +0.060 S 
ATOM     24  O   UNL     1      -7.754   2.038  -6.827  0.00  0.00    -0.153 OA
ATOM     25  O   UNL     1      -8.350   0.333  -5.113  0.00  0.00    -0.153 OA
BRANCH  23  26
ATOM     26  N   UNL     1      -9.601   2.460  -5.242  0.00  0.00    -0.183 NA
ATOM     27  C   UNL     1      -9.933   3.672  -5.994  0.00  0.00    +0.131 C 
ATOM     28  C   UNL     1     -10.541   1.935  -4.248  0.00  0.00    +0.131 C 
ENDBRANCH  23  26
ENDBRANCH  20  23
ENDBRANCH  14  17
BRANCH   8  29
ATOM     29  C   UNL     1      -1.035   3.267  -0.271  0.00  0.00    -0.023 A 
ATOM     30  C   UNL     1       0.004   4.078  -0.688  0.00  0.00    +0.006 A 
ATOM     31  C   UNL     1       1.268   3.547  -0.862  0.00  0.00    +0.000 A 
ATOM     32  C   UNL     1       1.496   2.208  -0.609  0.00  0.00    +0.000 A 
ATOM     33  C   UNL     1       0.458   1.397  -0.188  0.00  0.00    +0.000 A 
ATOM     34  C   UNL     1      -0.808   1.927  -0.019  0.00  0.00    +0.006 A 
ENDBRANCH   8  29
TORSDOF 4
