REMARK  Name = ZINC40982035
REMARK  14 active torsions:
REMARK  status: ('A' for Active; 'I' for Inactive)
REMARK    1  A    between atoms: C_1  and  C_2
REMARK    2  A    between atoms: C_2  and  C_3
REMARK    3  A    between atoms: C_3  and  C_4
REMARK    4  A    between atoms: C_4  and  O_5
REMARK    5  A    between atoms: O_5  and  C_6
REMARK    6  A    between atoms: C_10  and  C_12
REMARK    7  A    between atoms: C_14  and  C_27
REMARK    8  A    between atoms: C_15  and  C_26
REMARK    9  A    between atoms: C_20  and  S_22
REMARK   10  A    between atoms: S_22  and  C_23
REMARK   11  A    between atoms: C_23  and  C_24
REMARK   12  A    between atoms: C_24  and  C_25
REMARK   13  A    between atoms: N_29  and  C_30
REMARK   14  A    between atoms: C_35  and  C_36
REMARK                            x       y       z     vdW  Elec       q    Type
REMARK                         _______ _______ _______ _____ _____    ______ ____
ROOT
ATOM      1  C   UNL     1       3.076  -6.263   5.080  0.00  0.00    +0.177 C 
ATOM      2  C   UNL     1       4.231  -7.084   4.574  0.00  0.00    +0.060 C 
ATOM      3  C   UNL     1       4.248  -8.425   4.612  0.00  0.00    +0.018 C 
ATOM      4  N   UNL     1       3.207  -9.155   5.131  0.00  0.00    -0.287 N 
ATOM      5  C   UNL     1       2.245  -8.469   5.859  0.00  0.00    +0.219 A 
ATOM      6  N   UNL     1       2.172  -7.115   5.849  0.00  0.00    -0.220 N 
ATOM      7  N   UNL     1       1.111  -6.766   6.682  0.00  0.00    -0.141 NA
ATOM      8  C   UNL     1       0.602  -7.890   7.139  0.00  0.00    +0.210 A 
ATOM      9  N   UNL     1       1.296  -8.920   6.633  0.00  0.00    -0.187 NA
ATOM     10  C   UNL     1       5.449  -9.154   4.067  0.00  0.00    +0.061 C 
ATOM     11  H   UNL     1       3.147 -10.114   4.995  0.00  0.00    +0.155 HD
ENDROOT
BRANCH   1  16
ATOM     12  C   UNL     1       1.536  -3.749   2.716  0.00  0.00    +0.121 A 
ATOM     13  C   UNL     1       0.965  -4.582   1.764  0.00  0.00    +0.045 A 
ATOM     14  C   UNL     1       1.080  -5.953   1.889  0.00  0.00    +0.004 A 
ATOM     15  C   UNL     1       1.764  -6.495   2.962  0.00  0.00    +0.006 A 
ATOM     16  C   UNL     1       2.332  -5.668   3.912  0.00  0.00    -0.015 A 
ATOM     17  C   UNL     1       2.225  -4.296   3.788  0.00  0.00    +0.051 A 
BRANCH  12  18
ATOM     18  O   UNL     1       1.424  -2.400   2.595  0.00  0.00    -0.492 OA
BRANCH  18  19
ATOM     19  C   UNL     1       0.701  -1.908   1.465  0.00  0.00    +0.229 C 
BRANCH  19  20
ATOM     20  C   UNL     1       0.682  -0.379   1.499  0.00  0.00    +0.041 C 
BRANCH  20  22
ATOM     21  C   UNL     1      -0.112   1.678   0.323  0.00  0.00    +0.004 C 
ATOM     22  C   UNL     1      -0.093   0.149   0.289  0.00  0.00    -0.000 C 
ENDBRANCH  20  22
ENDBRANCH  19  20
ENDBRANCH  18  19
ENDBRANCH  12  18
ENDBRANCH   1  16
BRANCH   2  23
ATOM     23  C   UNL     1       5.351  -6.411   4.033  0.00  0.00    +0.248 C 
ATOM     24  O   UNL     1       6.145  -5.857   4.773  0.00  0.00    -0.270 OA
ATOM     25  N   UNL     1       5.541  -6.382   2.699  0.00  0.00    -0.281 N 
ATOM     26  H   UNL     1       4.878  -6.769   2.107  0.00  0.00    +0.155 HD
BRANCH  25  27
ATOM     27  C   UNL     1       6.694  -5.795   2.169  0.00  0.00    +0.037 A 
ATOM     28  C   UNL     1       7.257  -4.686   2.787  0.00  0.00    +0.023 A 
ATOM     29  C   UNL     1       8.396  -4.108   2.261  0.00  0.00    +0.002 A 
ATOM     30  C   UNL     1       8.975  -4.632   1.120  0.00  0.00    +0.000 A 
ATOM     31  C   UNL     1       8.417  -5.736   0.502  0.00  0.00    +0.005 A 
ATOM     32  C   UNL     1       7.282  -6.322   1.026  0.00  0.00    -0.029 A 
ATOM     33  C   UNL     1       6.677  -7.529   0.356  0.00  0.00    +0.045 C 
ENDBRANCH  25  27
ENDBRANCH   2  23
BRANCH   8  34
ATOM     34  S   UNL     1      -0.769  -8.021   8.238  0.00  0.00    -0.084 S 
BRANCH  34  35
ATOM     35  C   UNL     1      -0.969  -9.807   8.478  0.00  0.00    +0.077 C 
BRANCH  35  36
ATOM     36  C   UNL     1      -2.143 -10.066   9.426  0.00  0.00    +0.008 C 
ATOM     37  C   UNL     1      -2.312 -11.573   9.629  0.00  0.00    +0.004 C 
ENDBRANCH  35  36
ENDBRANCH  34  35
ENDBRANCH   8  34
TORSDOF 10
