REMARK  Name = ZINC01152981
REMARK  12 active torsions:
REMARK  status: ('A' for Active; 'I' for Inactive)
REMARK    1  A    between atoms: C_1  and  C_2
REMARK    2  A    between atoms: C_3  and  C_32
REMARK    3  A    between atoms: C_4  and  C_10
REMARK    4  A    between atoms: N_12  and  C_26
REMARK    5  A    between atoms: C_14  and  C_15
REMARK    6  A    between atoms: C_18  and  O_24
REMARK    7  A    between atoms: C_19  and  N_21
REMARK    8  A    between atoms: O_24  and  C_25
REMARK    9  A    between atoms: C_32  and  O_34
REMARK   10  A    between atoms: O_34  and  C_35
REMARK   11  A    between atoms: C_35  and  C_36
REMARK   12  A    between atoms: C_35  and  C_37
REMARK                            x       y       z     vdW  Elec       q    Type
REMARK                         _______ _______ _______ _____ _____    ______ ____
ROOT
ATOM      1  C   UNL     1      -2.717  -0.865   0.972  0.00  0.00    +0.023 A 
ATOM      2  C   UNL     1      -3.758  -1.724   1.020  0.00  0.00    +0.121 A 
ATOM      3  N   UNL     1      -3.442  -2.805   0.260  0.00  0.00    -0.239 N 
ATOM      4  N   UNL     1      -2.165  -2.599  -0.277  0.00  0.00    -0.166 NA
ATOM      5  C   UNL     1      -1.722  -1.436   0.153  0.00  0.00    +0.098 A 
ENDROOT
BRANCH   1   9
ATOM      6  C   UNL     1      -5.650   1.496   3.839  0.00  0.00    +0.061 C 
ATOM      7  C   UNL     1      -4.269   1.095   3.389  0.00  0.00    +0.021 C 
ATOM      8  C   UNL     1      -4.037   0.870   2.079  0.00  0.00    +0.078 C 
ATOM      9  C   UNL     1      -2.634   0.468   1.670  0.00  0.00    +0.147 C 
ATOM     10  N   UNL     1      -1.632   0.356   2.744  0.00  0.00    -0.288 N 
ATOM     11  C   UNL     1      -2.017   0.614   4.009  0.00  0.00    +0.304 C 
ATOM     12  O   UNL     1      -1.198   0.524   4.903  0.00  0.00    -0.252 OA
ATOM     13  N   UNL     1      -3.273   0.966   4.314  0.00  0.00    -0.273 N 
ATOM     14  H   UNL     1      -0.717   0.102   2.545  0.00  0.00    +0.151 HD
ATOM     15  H   UNL     1      -3.487   1.138   5.245  0.00  0.00    +0.156 HD
BRANCH   8  16
ATOM     16  C   UNL     1      -5.067   1.004   1.119  0.00  0.00    +0.339 C 
ATOM     17  O   UNL     1      -6.211   1.209   1.480  0.00  0.00    -0.245 OA
BRANCH  16  18
ATOM     18  O   UNL     1      -4.782   0.904  -0.196  0.00  0.00    -0.459 OA
BRANCH  18  19
ATOM     19  C   UNL     1      -5.848   1.162  -1.112  0.00  0.00    +0.171 C 
ATOM     20  C   UNL     1      -5.825   2.637  -1.519  0.00  0.00    +0.052 C 
ATOM     21  C   UNL     1      -5.675   0.287  -2.356  0.00  0.00    +0.052 C 
ENDBRANCH  18  19
ENDBRANCH  16  18
ENDBRANCH   8  16
ENDBRANCH   1   9
BRANCH   5  22
ATOM     22  C   UNL     1      -0.408  -0.829  -0.173  0.00  0.00    +0.005 A 
ATOM     23  C   UNL     1      -0.332   0.511  -0.548  0.00  0.00    +0.014 A 
ATOM     24  C   UNL     1       0.891   1.073  -0.850  0.00  0.00    +0.048 A 
ATOM     25  C   UNL     1       2.045   0.304  -0.781  0.00  0.00    +0.150 A 
ATOM     26  C   UNL     1       1.972  -1.031  -0.408  0.00  0.00    +0.168 A 
ATOM     27  C   UNL     1       0.752  -1.598  -0.105  0.00  0.00    +0.046 A 
BRANCH  26  28
ATOM     28  N   UNL     1       3.205  -1.847  -0.337  0.00  0.00    +0.060 N 
ATOM     29  O   UNL     1       3.142  -3.018  -0.010  0.00  0.00    -0.126 OA
ATOM     30  O   UNL     1       4.283  -1.347  -0.604  0.00  0.00    -0.126 OA
ENDBRANCH  26  28
BRANCH  25  31
ATOM     31  O   UNL     1       3.249   0.860  -1.080  0.00  0.00    -0.493 OA
ATOM     32  C   UNL     1       3.251   2.239  -1.456  0.00  0.00    +0.277 C 
ENDBRANCH  25  31
ENDBRANCH   5  22
BRANCH   3  33
ATOM     33  C   UNL     1      -4.255  -3.926   0.045  0.00  0.00    +0.065 A 
ATOM     34  C   UNL     1      -5.507  -4.003   0.640  0.00  0.00    +0.028 A 
ATOM     35  C   UNL     1      -6.307  -5.107   0.422  0.00  0.00    +0.002 A 
ATOM     36  C   UNL     1      -5.858  -6.141  -0.379  0.00  0.00    +0.000 A 
ATOM     37  C   UNL     1      -4.609  -6.070  -0.968  0.00  0.00    +0.002 A 
ATOM     38  C   UNL     1      -3.807  -4.966  -0.759  0.00  0.00    +0.028 A 
ENDBRANCH   3  33
TORSDOF 8
