REMARK  Name = ZINC63139214
REMARK  6 active torsions:
REMARK  status: ('A' for Active; 'I' for Inactive)
REMARK    1  A    between atoms: C_1  and  C_2
REMARK    2  A    between atoms: C_2  and  C_3
REMARK    3  A    between atoms: C_2  and  C_4
REMARK    4  A    between atoms: C_7  and  C_10
REMARK    5  A    between atoms: N_29  and  C_32
REMARK    6  A    between atoms: C_32  and  C_33
REMARK                            x       y       z     vdW  Elec       q    Type
REMARK                         _______ _______ _______ _____ _____    ______ ____
ROOT
ATOM      1  C   UNL     1       2.707  -1.868  -4.752  0.00  0.00    +0.133 C 
ATOM      2  C   UNL     1       2.426  -3.360  -4.957  0.00  0.00    +0.131 C 
ATOM      3  C   UNL     1       3.168  -4.101  -3.852  0.00  0.00    -0.034 C 
ATOM      4  C   UNL     1       2.261  -4.836  -3.219  0.00  0.00    -0.001 A 
ATOM      5  C   UNL     1       2.382  -5.809  -2.122  0.00  0.00    +0.010 A 
ATOM      6  C   UNL     1       1.224  -6.382  -1.699  0.00  0.00    +0.001 A 
ATOM      7  C   UNL     1      -0.027  -6.087  -2.251  0.00  0.00    +0.002 A 
ATOM      8  C   UNL     1      -0.230  -5.209  -3.266  0.00  0.00    +0.026 A 
ATOM      9  C   UNL     1       0.914  -4.547  -3.799  0.00  0.00    +0.043 A 
ATOM     10  N   UNL     1       1.008  -3.678  -4.788  0.00  0.00    -0.375 N 
ATOM     11  C   UNL     1       4.637  -3.887  -3.580  0.00  0.00    +0.065 C 
ATOM     12  C   UNL     1       4.850  -2.365  -3.488  0.00  0.00    +0.167 C 
ATOM     13  N   UNL     1       4.169  -1.701  -4.597  0.00  0.00    -0.279 N 
ATOM     14  C   UNL     1       4.812  -0.941  -5.491  0.00  0.00    +0.234 C 
ATOM     15  O   UNL     1       4.157  -0.450  -6.387  0.00  0.00    -0.274 OA
ATOM     16  C   UNL     1       6.276  -0.655  -5.465  0.00  0.00    +0.204 C 
ATOM     17  N   UNL     1       6.941  -1.293  -4.341  0.00  0.00    -0.287 N 
ATOM     18  C   UNL     1       6.312  -2.063  -3.450  0.00  0.00    +0.237 C 
ATOM     19  O   UNL     1       6.968  -2.546  -2.552  0.00  0.00    -0.274 OA
ATOM     20  H   UNL     1       0.278  -3.309  -5.309  0.00  0.00    +0.160 HD
ENDROOT
BRANCH   1  24
ATOM     21  C   UNL     1       0.707  -0.490  -1.238  0.00  0.00    -0.045 A 
ATOM     22  C   UNL     1       0.429   0.087  -2.463  0.00  0.00    +0.004 A 
ATOM     23  C   UNL     1       1.076  -0.358  -3.600  0.00  0.00    +0.006 A 
ATOM     24  C   UNL     1       2.002  -1.381  -3.513  0.00  0.00    -0.025 A 
ATOM     25  C   UNL     1       2.281  -1.958  -2.288  0.00  0.00    +0.006 A 
ATOM     26  C   UNL     1       1.637  -1.509  -1.150  0.00  0.00    +0.004 A 
BRANCH  21  28
ATOM     27  C   UNL     1       0.302   1.482   0.210  0.00  0.00    +0.012 C 
ATOM     28  C   UNL     1       0.002  -0.004   0.002  0.00  0.00    +0.013 C 
ATOM     29  C   UNL     1      -1.507  -0.201  -0.160  0.00  0.00    +0.012 C 
ENDBRANCH  21  28
ENDBRANCH   1  24
BRANCH  17  30
ATOM     30  C   UNL     1       8.382  -1.082  -4.178  0.00  0.00    +0.143 C 
BRANCH  30  31
ATOM     31  C   UNL     1       8.617   0.134  -3.320  0.00  0.00    -0.026 A 
ATOM     32  C   UNL     1       8.729   1.381  -3.907  0.00  0.00    +0.009 A 
ATOM     33  C   UNL     1       8.945   2.499  -3.124  0.00  0.00    +0.050 A 
ATOM     34  C   UNL     1       9.050   2.373  -1.748  0.00  0.00    +0.166 A 
ATOM     35  C   UNL     1       8.937   1.117  -1.157  0.00  0.00    +0.167 A 
ATOM     36  C   UNL     1       8.715   0.001  -1.948  0.00  0.00    +0.054 A 
ATOM     37  O   UNL     1       9.075   1.257   0.194  0.00  0.00    -0.453 OA
ATOM     38  C   UNL     1       9.679   2.549   0.387  0.00  0.00    +0.466 C 
ATOM     39  O   UNL     1       9.259   3.300  -0.768  0.00  0.00    -0.453 OA
ENDBRANCH  30  31
ENDBRANCH  17  30
TORSDOF 4
