REMARK  Name = ZINC08923411
REMARK  11 active torsions:
REMARK  status: ('A' for Active; 'I' for Inactive)
REMARK    1  A    between atoms: C_1  and  C_2
REMARK    2  A    between atoms: C_2  and  O_3
REMARK    3  A    between atoms: O_3  and  C_4
REMARK    4  A    between atoms: C_6  and  C_18
REMARK    5  A    between atoms: C_9  and  O_10
REMARK    6  A    between atoms: O_10  and  C_11
REMARK    7  A    between atoms: C_11  and  C_13
REMARK    8  A    between atoms: C_29  and  C_30
REMARK    9  A    between atoms: C_29  and  C_31
REMARK   10  A    between atoms: C_29  and  N_61
REMARK   11  A    between atoms: C_32  and  O_34
REMARK                            x       y       z     vdW  Elec       q    Type
REMARK                         _______ _______ _______ _____ _____    ______ ____
ROOT
ATOM      1  C   UNL     1       1.191  -2.186  -0.027  0.00  0.00    +0.224 C 
ATOM      2  N   UNL     1       2.423  -2.655  -0.688  0.00  0.00    -0.313 N 
ATOM      3  C   UNL     1       2.386  -2.737  -2.059  0.00  0.00    +0.080 A 
ATOM      4  C   UNL     1       1.189  -2.891  -2.771  0.00  0.00    +0.067 A 
ATOM      5  C   UNL     1       1.318  -2.969  -4.213  0.00  0.00    -0.027 A 
ATOM      6  C   UNL     1       2.581  -2.878  -4.696  0.00  0.00    -0.021 A 
ATOM      7  S   UNL     1       3.604  -2.690  -3.261  0.00  0.00    -0.080 S 
ATOM      8  C   UNL     1       2.990  -2.930  -6.134  0.00  0.00    -0.035 C 
ATOM      9  C   UNL     1       0.616  -2.740  -6.576  0.00  0.00    -0.073 C 
ATOM     10  C   UNL     1       0.147  -3.141  -5.174  0.00  0.00    +0.018 C 
ATOM     11  C   UNL     1      -0.068  -2.954  -1.981  0.00  0.00    +0.220 C 
ATOM     12  N   UNL     1      -0.003  -2.664  -0.713  0.00  0.00    -0.223 NA
ATOM     13  H   UNL     1       3.215  -2.894  -0.182  0.00  0.00    +0.149 HD
ATOM     14  N   UNL     1       1.851  -3.478  -6.910  0.00  0.00    +0.384 N 
ATOM     15  H   UNL     1       1.726  -4.467  -6.666  0.00  0.00    -0.081 HD
ENDROOT
BRANCH   1  18
ATOM     16  C   UNL     1      -0.030   1.389  -0.021  0.00  0.00    +0.163 A 
ATOM     17  C   UNL     1      -0.020   0.004  -0.029  0.00  0.00    +0.056 A 
ATOM     18  C   UNL     1       1.182  -0.679  -0.018  0.00  0.00    -0.002 A 
ATOM     19  C   UNL     1       2.376   0.018   0.003  0.00  0.00    +0.011 A 
ATOM     20  C   UNL     1       2.374   1.400   0.012  0.00  0.00    +0.050 A 
ATOM     21  C   UNL     1       1.172   2.091   0.001  0.00  0.00    +0.173 A 
BRANCH  16  22
ATOM     22  O   UNL     1      -1.211   2.062  -0.038  0.00  0.00    -0.489 OA
BRANCH  22  24
ATOM     23  C   UNL     1      -3.623   2.202  -0.082  0.00  0.00    +0.048 C 
ATOM     24  C   UNL     1      -2.405   1.277  -0.065  0.00  0.00    +0.226 C 
ENDBRANCH  22  24
ENDBRANCH  16  22
BRANCH  21  25
ATOM     25  O   UNL     1       1.168   3.450   0.009  0.00  0.00    -0.418 OA
BRANCH  25  26
ATOM     26  C   UNL     1       0.965   4.055   1.198  0.00  0.00    +0.351 C 
ATOM     27  O   UNL     1       0.895   3.390   2.214  0.00  0.00    -0.244 OA
BRANCH  26  28
ATOM     28  C   UNL     1       0.829   5.511   1.265  0.00  0.00    +0.097 A 
ATOM     29  C   UNL     1       0.619   6.319   2.372  0.00  0.00    +0.022 A 
ATOM     30  C   UNL     1       0.529   7.670   2.151  0.00  0.00    +0.008 A 
ATOM     31  C   UNL     1       0.647   8.145   0.883  0.00  0.00    +0.046 A 
ATOM     32  S   UNL     1       0.899   6.709  -0.055  0.00  0.00    -0.090 S 
ENDBRANCH  26  28
ENDBRANCH  25  26
ENDBRANCH  21  25
ENDBRANCH   1  18
BRANCH  14  33
ATOM     33  C   UNL     1       2.128  -3.371  -8.359  0.00  0.00    -0.074 C 
ATOM     34  C   UNL     1       2.339  -1.909  -8.756  0.00  0.00    -0.014 C 
ATOM     35  C   UNL     1       3.389  -4.175  -8.685  0.00  0.00    -0.014 C 
ENDBRANCH  14  33
BRANCH  11  36
ATOM     36  O   UNL     1      -1.240  -3.300  -2.561  0.00  0.00    -0.492 OA
ATOM     37  H   UNL     1      -1.992  -3.309  -1.953  0.00  0.00    +0.294 HD
ENDBRANCH  11  36
TORSDOF 8
