REMARK  Name = ZINC39379308
REMARK  3 active torsions:
REMARK  status: ('A' for Active; 'I' for Inactive)
REMARK    1  A    between atoms: C_7  and  C_11
REMARK    2  A    between atoms: N_13  and  N_14
REMARK    3  A    between atoms: C_15  and  C_16
REMARK                            x       y       z     vdW  Elec       q    Type
REMARK                         _______ _______ _______ _____ _____    ______ ____
ROOT
ATOM      1  C   UNL     1       0.936  -2.809  -1.258  0.00  0.00    +0.241 C 
ATOM      2  O   UNL     1       0.330  -2.139  -2.067  0.00  0.00    -0.273 OA
ATOM      3  N   UNL     1       1.096  -4.132  -1.462  0.00  0.00    -0.206 N 
ATOM      4  H   UNL     1       1.580  -4.668  -0.814  0.00  0.00    +0.177 HD
ENDROOT
BRANCH   1  11
ATOM      5  C   UNL     1      -0.017   1.378   0.010  0.00  0.00    +0.000 A 
ATOM      6  C   UNL     1       1.174   2.082   0.002  0.00  0.00    +0.002 A 
ATOM      7  C   UNL     1       2.377   1.411  -0.013  0.00  0.00    +0.023 A 
ATOM      8  C   UNL     1       2.405   0.014  -0.021  0.00  0.00    +0.031 A 
ATOM      9  C   UNL     1       1.206  -0.682  -0.013  0.00  0.00    -0.013 A 
ATOM     10  C   UNL     1       0.002  -0.004   0.002  0.00  0.00    +0.006 A 
ATOM     11  C   UNL     1       1.510  -2.163  -0.023  0.00  0.00    +0.125 C 
ATOM     12  C   UNL     1       3.046  -2.241  -0.038  0.00  0.00    +0.119 C 
ATOM     13  N   UNL     1       3.501  -0.849  -0.036  0.00  0.00    -0.343 N 
ATOM     14  H   UNL     1       4.430  -0.568  -0.044  0.00  0.00    +0.146 HD
ENDBRANCH   1  11
BRANCH   3  15
ATOM     15  N   UNL     1       0.562  -4.733  -2.609  0.00  0.00    -0.187 NA
ATOM     16  C   UNL     1       0.716  -6.010  -2.807  0.00  0.00    +0.145 C 
BRANCH  16  17
ATOM     17  C   UNL     1       0.157  -6.638  -4.007  0.00  0.00    +0.033 A 
ATOM     18  C   UNL     1       0.203  -7.965  -4.399  0.00  0.00    +0.018 A 
ATOM     19  C   UNL     1      -0.402  -8.319  -5.583  0.00  0.00    +0.023 A 
ATOM     20  C   UNL     1      -1.021  -7.362  -6.325  0.00  0.00    +0.055 A 
ATOM     21  S   UNL     1      -0.767  -5.894  -5.341  0.00  0.00    -0.080 S 
ATOM     22 BR   UNL     1      -1.927  -7.542  -7.975  0.00  0.00    -0.043 Br
ENDBRANCH  16  17
ENDBRANCH   3  15
TORSDOF 3
