REMARK  Name = ZINC20841341
REMARK  13 active torsions:
REMARK  status: ('A' for Active; 'I' for Inactive)
REMARK    1  A    between atoms: C_1  and  C_2
REMARK    2  A    between atoms: C_2  and  C_3
REMARK    3  A    between atoms: C_3  and  C_4
REMARK    4  A    between atoms: C_4  and  O_5
REMARK    5  A    between atoms: O_5  and  C_6
REMARK    6  A    between atoms: C_9  and  C_12
REMARK    7  A    between atoms: C_13  and  C_28
REMARK    8  A    between atoms: C_14  and  N_27
REMARK    9  A    between atoms: C_18  and  N_26
REMARK   10  A    between atoms: C_19  and  C_21
REMARK   11  A    between atoms: C_21  and  O_23
REMARK   12  A    between atoms: O_23  and  C_24
REMARK   13  A    between atoms: C_24  and  C_25
REMARK                            x       y       z     vdW  Elec       q    Type
REMARK                         _______ _______ _______ _____ _____    ______ ____
ROOT
ATOM      1  C   UNL     1       1.315   2.500  -1.067  0.00  0.00    +0.014 A 
ATOM      2  C   UNL     1       0.150   1.877  -1.533  0.00  0.00    +0.100 A 
ATOM      3  C   UNL     1      -1.090   2.535  -1.414  0.00  0.00    +0.136 A 
ATOM      4  N   UNL     1      -1.157   3.732  -0.855  0.00  0.00    -0.224 NA
ATOM      5  C   UNL     1      -0.085   4.352  -0.404  0.00  0.00    +0.114 A 
ATOM      6  C   UNL     1       1.212   3.793  -0.474  0.00  0.00    +0.038 A 
ATOM      7  C   UNL     1       2.272   4.622   0.073  0.00  0.00    +0.056 A 
ATOM      8  C   UNL     1       1.936   5.852   0.602  0.00  0.00    +0.119 A 
ATOM      9  S   UNL     1       0.170   5.928   0.376  0.00  0.00    -0.060 S 
ENDROOT
BRANCH   1  13
ATOM     10  C   UNL     1       5.087   0.575  -1.415  0.00  0.00    +0.121 A 
ATOM     11  C   UNL     1       4.798   1.680  -2.205  0.00  0.00    +0.046 A 
ATOM     12  C   UNL     1       3.576   2.307  -2.095  0.00  0.00    +0.012 A 
ATOM     13  C   UNL     1       2.627   1.830  -1.188  0.00  0.00    -0.016 A 
ATOM     14  C   UNL     1       2.924   0.723  -0.391  0.00  0.00    +0.012 A 
ATOM     15  C   UNL     1       4.146   0.098  -0.510  0.00  0.00    +0.046 A 
BRANCH  10  16
ATOM     16  O   UNL     1       6.292  -0.041  -1.526  0.00  0.00    -0.492 OA
BRANCH  16  17
ATOM     17  C   UNL     1       6.524  -1.171  -0.683  0.00  0.00    +0.229 C 
BRANCH  17  18
ATOM     18  C   UNL     1       7.924  -1.727  -0.948  0.00  0.00    +0.041 C 
BRANCH  18  20
ATOM     19  C   UNL     1       9.572  -3.493  -0.311  0.00  0.00    +0.004 C 
ATOM     20  C   UNL     1       8.172  -2.938  -0.046  0.00  0.00    -0.000 C 
ENDBRANCH  18  20
ENDBRANCH  17  18
ENDBRANCH  16  17
ENDBRANCH  10  16
ENDBRANCH   1  13
BRANCH   7  21
ATOM     21  N   UNL     1       3.589   4.188   0.065  0.00  0.00    -0.356 N 
ATOM     22  H   UNL     1       4.381   4.826   0.483  0.00  0.00    +0.142 HD
ATOM     23  H   UNL     1       3.842   3.204  -0.360  0.00  0.00    +0.142 HD
ENDBRANCH   7  21
BRANCH   3  24
ATOM     24  N   UNL     1      -2.241   1.926  -1.879  0.00  0.00    -0.342 N 
ATOM     25  H   UNL     1      -3.210   2.438  -1.787  0.00  0.00    +0.144 HD
ATOM     26  H   UNL     1      -2.188   0.929  -2.341  0.00  0.00    +0.144 HD
ENDBRANCH   3  24
BRANCH   8  27
ATOM     27  C   UNL     1       2.787   6.818   1.183  0.00  0.00    +0.348 C 
ATOM     28  O   UNL     1       3.983   6.607   1.261  0.00  0.00    -0.244 OA
BRANCH  27  29
ATOM     29  O   UNL     1       2.273   7.976   1.651  0.00  0.00    -0.461 OA
BRANCH  29  30
ATOM     30  C   UNL     1       3.192   8.907   2.225  0.00  0.00    +0.229 C 
ATOM     31  C   UNL     1       2.432  10.149   2.696  0.00  0.00    +0.048 C 
ENDBRANCH  29  30
ENDBRANCH  27  29
ENDBRANCH   8  27
BRANCH   2  32
ATOM     32  C   UNL     1       0.220   0.579  -2.134  0.00  0.00    +0.103 C 
ATOM     33  N   UNL     1       0.276  -0.451  -2.610  0.00  0.00    -0.191 NA
ENDBRANCH   2  32
TORSDOF 11
