REMARK  Name = ZINC65265912
REMARK  6 active torsions:
REMARK  status: ('A' for Active; 'I' for Inactive)
REMARK    1  A    between atoms: C_1  and  C_2
REMARK    2  A    between atoms: C_4  and  C_32
REMARK    3  A    between atoms: N_5  and  C_7
REMARK    4  A    between atoms: C_7  and  C_8
REMARK    5  A    between atoms: C_8  and  C_9
REMARK    6  A    between atoms: N_26  and  C_27
REMARK                            x       y       z     vdW  Elec       q    Type
REMARK                         _______ _______ _______ _____ _____    ______ ____
ROOT
ATOM      1  C   UNL     1       1.488  -4.971   2.652  0.00  0.00    +0.217 C 
ATOM      2  O   UNL     1       0.454  -5.485   3.021  0.00  0.00    -0.276 OA
ATOM      3  N   UNL     1       2.672  -5.482   3.042  0.00  0.00    -0.299 N 
ATOM      4  C   UNL     1       4.000  -4.955   2.675  0.00  0.00    +0.110 C 
ATOM      5  C   UNL     1       4.951  -5.446   3.799  0.00  0.00    +0.050 C 
ATOM      6  C   UNL     1       4.364  -6.834   4.112  0.00  0.00    +0.091 C 
ATOM      7  C   UNL     1       2.855  -6.657   3.913  0.00  0.00    +0.137 C 
ATOM      8  C   UNL     1       4.695  -7.278   5.496  0.00  0.00    +0.095 C 
ATOM      9  N   UNL     1       5.854  -8.000   5.651  0.00  0.00    -0.303 N 
ATOM     10  C   UNL     1       5.804  -9.386   5.528  0.00  0.00    +0.037 A 
ATOM     11  C   UNL     1       6.457 -10.189   6.452  0.00  0.00    +0.023 A 
ATOM     12  C   UNL     1       6.422 -11.563   6.325  0.00  0.00    +0.002 A 
ATOM     13  C   UNL     1       5.733 -12.130   5.268  0.00  0.00    +0.000 A 
ATOM     14  C   UNL     1       5.081 -11.332   4.353  0.00  0.00    +0.007 A 
ATOM     15  C   UNL     1       5.098  -9.946   4.471  0.00  0.00    -0.012 A 
ATOM     16  C   UNL     1       4.323  -9.166   3.440  0.00  0.00    +0.119 C 
ATOM     17  N   UNL     1       4.904  -7.844   3.173  0.00  0.00    -0.299 NA
ATOM     18  N   UNL     1       3.931  -6.998   6.501  0.00  0.00    -0.372 N 
ATOM     19  H   UNL     1       4.747  -7.567   2.215  0.00  0.00    +0.123 HD
ATOM     20  H   UNL     1       3.165  -6.415   6.380  0.00  0.00    +0.161 HD
ATOM     21  H   UNL     1       6.692  -7.552   5.842  0.00  0.00    +0.153 HD
ENDROOT
BRANCH  18  22
ATOM     22  C   UNL     1       4.222  -7.559   7.822  0.00  0.00    +0.080 C 
ATOM     23  C   UNL     1       3.545  -8.938   7.971  0.00  0.00    +0.024 C 
ATOM     24  C   UNL     1       3.082  -8.976   9.449  0.00  0.00    +0.002 C 
ATOM     25  C   UNL     1       2.615  -7.520   9.698  0.00  0.00    +0.002 C 
ATOM     26  C   UNL     1       3.630  -6.658   8.920  0.00  0.00    +0.024 C 
ENDBRANCH  18  22
BRANCH   1  27
ATOM     27  C   UNL     1       1.450  -3.759   1.756  0.00  0.00    +0.119 C 
BRANCH  27  28
ATOM     28  C   UNL     1      -0.005  -3.386   1.465  0.00  0.00    +0.153 C 
BRANCH  28  33
ATOM     29  C   UNL     1      -0.140   1.397  -0.052  0.00  0.00    +0.067 C 
ATOM     30  C   UNL     1      -0.102  -0.110  -0.047  0.00  0.00    +0.060 A 
ATOM     31  C   UNL     1      -0.090  -0.934  -1.177  0.00  0.00    +0.047 A 
ATOM     32  C   UNL     1      -0.053  -2.219  -0.755  0.00  0.00    +0.036 A 
ATOM     33  N   UNL     1      -0.043  -2.209   0.594  0.00  0.00    -0.268 N 
ATOM     34  N   UNL     1      -0.068  -0.873   1.015  0.00  0.00    -0.176 NA
ATOM     35  C   UNL     1      -0.029  -3.443  -1.635  0.00  0.00    +0.065 C 
ENDBRANCH  28  33
ENDBRANCH  27  28
ENDBRANCH   1  27
TORSDOF 4
