REMARK  Name = ZINC59378004
REMARK  6 active torsions:
REMARK  status: ('A' for Active; 'I' for Inactive)
REMARK    1  A    between atoms: C_3  and  C_8
REMARK    2  A    between atoms: C_5  and  O_7
REMARK    3  A    between atoms: N_10  and  N_11
REMARK    4  A    between atoms: C_12  and  C_13
REMARK    5  A    between atoms: C_15  and  N_24
REMARK    6  A    between atoms: C_18  and  N_19
REMARK                            x       y       z     vdW  Elec       q    Type
REMARK                         _______ _______ _______ _____ _____    ______ ____
ROOT
ATOM      1  N   UNL     1       3.683   6.162  -0.108  0.00  0.00    -0.187 NA
ATOM      2  C   UNL     1       4.809   5.527  -0.224  0.00  0.00    +0.140 C 
ENDROOT
BRANCH   2   3
ATOM      3  C   UNL     1       6.079   6.273  -0.231  0.00  0.00    +0.018 A 
ATOM      4  C   UNL     1       6.073   7.670  -0.218  0.00  0.00    +0.044 A 
ATOM      5  C   UNL     1       7.265   8.363  -0.225  0.00  0.00    +0.127 A 
ATOM      6  C   UNL     1       8.470   7.681  -0.243  0.00  0.00    +0.034 A 
ATOM      7  C   UNL     1       8.492   6.300  -0.256  0.00  0.00    +0.026 A 
ATOM      8  C   UNL     1       7.302   5.585  -0.244  0.00  0.00    +0.039 A 
BRANCH   8   9
ATOM      9  N   UNL     1       7.322   4.192  -0.250  0.00  0.00    -0.329 N 
ATOM     10  C   UNL     1       7.433   3.342  -1.444  0.00  0.00    +0.105 C 
ATOM     11  C   UNL     1       7.387   1.875  -0.968  0.00  0.00    +0.020 C 
ATOM     12  C   UNL     1       6.685   1.979   0.411  0.00  0.00    +0.020 C 
ATOM     13  C   UNL     1       7.242   3.326   0.941  0.00  0.00    +0.105 C 
ENDBRANCH   8   9
BRANCH   5  14
ATOM     14  N   UNL     1       7.257   9.843  -0.212  0.00  0.00    +0.056 N 
ATOM     15  O   UNL     1       6.206  10.441  -0.196  0.00  0.00    -0.126 OA
ATOM     16  O   UNL     1       8.300  10.454  -0.217  0.00  0.00    -0.126 OA
ENDBRANCH   5  14
ENDBRANCH   2   3
BRANCH   1  19
ATOM     17  C   UNL     1       1.307   6.104   0.023  0.00  0.00    +0.263 C 
ATOM     18  O   UNL     1       1.289   7.320   0.036  0.00  0.00    -0.268 OA
ATOM     19  N   UNL     1       2.483   5.447   0.004  0.00  0.00    -0.203 N 
ATOM     20  H   UNL     1       2.500   4.479   0.067  0.00  0.00    +0.178 HD
BRANCH  17  23
ATOM     21  C   UNL     1      -1.132   3.247   0.017  0.00  0.00    +0.004 A 
ATOM     22  C   UNL     1       0.055   3.951   0.012  0.00  0.00    +0.013 A 
ATOM     23  C   UNL     1       0.037   5.346   0.027  0.00  0.00    +0.042 A 
ATOM     24  C   UNL     1      -1.182   6.024   0.047  0.00  0.00    +0.058 A 
ATOM     25  C   UNL     1      -2.367   5.308   0.052  0.00  0.00    +0.118 A 
ATOM     26  C   UNL     1      -2.340   3.919   0.036  0.00  0.00    +0.045 A 
BRANCH  25  27
ATOM     27  O   UNL     1      -3.557   5.963   0.072  0.00  0.00    -0.507 OA
ATOM     28  H   UNL     1      -3.911   6.163  -0.806  0.00  0.00    +0.292 HD
ENDBRANCH  25  27
ENDBRANCH  17  23
ENDBRANCH   1  19
TORSDOF 6
