REMARK  Name = ZINC38965655
REMARK  10 active torsions:
REMARK  status: ('A' for Active; 'I' for Inactive)
REMARK    1  A    between atoms: C_1  and  O_2
REMARK    2  A    between atoms: O_2  and  C_3
REMARK    3  A    between atoms: C_6  and  C_11
REMARK    4  A    between atoms: C_8  and  O_9
REMARK    5  A    between atoms: O_9  and  C_10
REMARK    6  A    between atoms: C_11  and  C_12
REMARK    7  A    between atoms: C_12  and  N_13
REMARK    8  A    between atoms: N_13  and  C_14
REMARK    9  A    between atoms: N_17  and  S_18
REMARK   10  A    between atoms: S_18  and  C_21
REMARK                            x       y       z     vdW  Elec       q    Type
REMARK                         _______ _______ _______ _____ _____    ______ ____
ROOT
ATOM      1  C   UNL     1       1.315  -3.727   7.659  0.00  0.00    +0.217 C 
ATOM      2  C   UNL     1       1.484  -5.171   8.076  0.00  0.00    +0.167 C 
ATOM      3  N   UNL     1       1.318  -6.130   7.214  0.00  0.00    -0.111 NA
ATOM      4  N   UNL     1       1.808  -5.447   9.349  0.00  0.00    -0.338 N 
ATOM      5  C   UNL     1       1.981  -4.493  10.240  0.00  0.00    +0.064 A 
ATOM      6  C   UNL     1       2.322  -4.822  11.577  0.00  0.00    +0.028 A 
ATOM      7  C   UNL     1       2.501  -3.848  12.495  0.00  0.00    +0.002 A 
ATOM      8  C   UNL     1       2.363  -2.483  12.192  0.00  0.00    +0.002 A 
ATOM      9  C   UNL     1       2.039  -2.060  10.950  0.00  0.00    +0.027 A 
ATOM     10  C   UNL     1       1.829  -3.059   9.892  0.00  0.00    +0.060 A 
ATOM     11  N   UNL     1       1.517  -2.689   8.682  0.00  0.00    -0.362 N 
ATOM     12  H   UNL     1       1.420  -1.750   8.461  0.00  0.00    +0.162 HD
ATOM     13  H   UNL     1       1.917  -6.372   9.620  0.00  0.00    +0.167 HD
ENDROOT
BRANCH   3  14
ATOM     14  S   UNL     1       1.506  -7.707   7.684  0.00  0.00    +0.107 S 
ATOM     15  O   UNL     1       2.878  -7.871   8.017  0.00  0.00    -0.146 OA
ATOM     16  O   UNL     1       0.461  -7.983   8.606  0.00  0.00    -0.146 OA
BRANCH  14  17
ATOM     17  C   UNL     1       1.207  -8.712   6.268  0.00  0.00    +0.150 A 
ATOM     18  C   UNL     1       2.085  -9.156   5.336  0.00  0.00    +0.037 A 
ATOM     19  C   UNL     1       1.621  -9.943   4.299  0.00  0.00    +0.010 A 
ATOM     20  C   UNL     1       0.301 -10.247   4.245  0.00  0.00    +0.047 A 
ATOM     21  S   UNL     1      -0.329  -9.416   5.694  0.00  0.00    -0.076 S 
ENDBRANCH  14  17
ENDBRANCH   3  14
BRANCH   1  22
ATOM     22  N   UNL     1       2.255  -3.465   6.561  0.00  0.00    -0.290 NA
ATOM     23  H   UNL     1       2.708  -4.315   6.262  0.00  0.00    +0.124 HD
BRANCH  22  24
ATOM     24  C   UNL     1       1.580  -2.804   5.436  0.00  0.00    +0.088 C 
BRANCH  24  25
ATOM     25  C   UNL     1       2.590  -2.548   4.315  0.00  0.00    +0.050 C 
BRANCH  25  29
ATOM     26  C   UNL     1       0.626  -0.619   1.042  0.00  0.00    +0.161 A 
ATOM     27  C   UNL     1       1.202   0.137   2.051  0.00  0.00    +0.049 A 
ATOM     28  C   UNL     1       1.836  -0.490   3.108  0.00  0.00    +0.007 A 
ATOM     29  C   UNL     1       1.897  -1.870   3.161  0.00  0.00    -0.042 A 
ATOM     30  C   UNL     1       1.325  -2.630   2.158  0.00  0.00    +0.053 A 
ATOM     31  C   UNL     1       0.683  -2.008   1.099  0.00  0.00    +0.162 A 
BRANCH  26  33
ATOM     32  C   UNL     1      -0.017   1.425   0.010  0.00  0.00    +0.277 C 
ATOM     33  O   UNL     1       0.002  -0.004   0.002  0.00  0.00    -0.491 OA
ENDBRANCH  26  33
BRANCH  31  34
ATOM     34  O   UNL     1       0.115  -2.754   0.114  0.00  0.00    -0.491 OA
ATOM     35  C   UNL     1       0.211  -4.174   0.238  0.00  0.00    +0.277 C 
ENDBRANCH  31  34
ENDBRANCH  25  29
ENDBRANCH  24  25
ENDBRANCH  22  24
ENDBRANCH   1  22
TORSDOF 8
