REMARK  Name = ZINC04123304
REMARK  2 active torsions:
REMARK  status: ('A' for Active; 'I' for Inactive)
REMARK    1  A    between atoms: C_3  and  C_13
REMARK    2  A    between atoms: N_4  and  C_6
REMARK                            x       y       z     vdW  Elec       q    Type
REMARK                         _______ _______ _______ _____ _____    ______ ____
ROOT
ATOM      1  C   UNL     1      -0.813   1.405  -0.088  0.00  0.00    +0.020 A 
ATOM      2  C   UNL     1      -0.537   2.747   0.191  0.00  0.00    +0.027 A 
ATOM      3  C   UNL     1       0.738   3.007  -0.280  0.00  0.00    +0.049 A 
ATOM      4  N   UNL     1       1.223   1.837  -0.828  0.00  0.00    -0.316 N 
ATOM      5  C   UNL     1       0.272   0.873  -0.700  0.00  0.00    +0.092 A 
ENDROOT
BRANCH   3   6
ATOM      6  C   UNL     1       1.419   4.244  -0.212  0.00  0.00    +0.054 C 
ATOM      7  C   UNL     1       2.655   4.312   0.358  0.00  0.00    +0.099 C 
ATOM      8  C   UNL     1       3.340   3.271   1.044  0.00  0.00    +0.266 C 
ATOM      9  O   UNL     1       2.931   2.140   1.236  0.00  0.00    -0.268 OA
ATOM     10  N   UNL     1       4.526   3.772   1.438  0.00  0.00    -0.235 N 
ATOM     11  C   UNL     1       4.624   5.056   1.053  0.00  0.00    +0.311 C 
ATOM     12  O   UNL     1       5.579   5.778   1.267  0.00  0.00    -0.252 OA
ATOM     13  N   UNL     1       3.509   5.423   0.394  0.00  0.00    -0.265 N 
ATOM     14  H   UNL     1       5.205   3.283   1.929  0.00  0.00    +0.159 HD
ATOM     15  H   UNL     1       3.330   6.296   0.013  0.00  0.00    +0.157 HD
ENDBRANCH   3   6
BRANCH   4  16
ATOM     16  C   UNL     1       2.484   1.671  -1.415  0.00  0.00    +0.047 A 
ATOM     17  C   UNL     1       2.924   2.564  -2.383  0.00  0.00    +0.027 A 
ATOM     18  C   UNL     1       4.170   2.401  -2.956  0.00  0.00    +0.017 A 
ATOM     19  C   UNL     1       4.974   1.341  -2.576  0.00  0.00    +0.018 A 
ATOM     20  C   UNL     1       4.536   0.446  -1.617  0.00  0.00    +0.017 A 
ATOM     21  C   UNL     1       3.293   0.608  -1.036  0.00  0.00    +0.027 A 
ATOM     22 BR   UNL     1       6.676   1.116  -3.370  0.00  0.00    -0.050 Br
ENDBRANCH   4  16
TORSDOF 2
