REMARK  Name = ZINC09382653
REMARK  8 active torsions:
REMARK  status: ('A' for Active; 'I' for Inactive)
REMARK    1  A    between atoms: C_1  and  C_2
REMARK    2  A    between atoms: C_2  and  C_4
REMARK    3  A    between atoms: C_2  and  N_23
REMARK    4  A    between atoms: C_4  and  C_6
REMARK    5  A    between atoms: C_4  and  N_57
REMARK    6  A    between atoms: N_13  and  C_16
REMARK    7  A    between atoms: N_23  and  S_24
REMARK    8  A    between atoms: S_24  and  C_27
REMARK                            x       y       z     vdW  Elec       q    Type
REMARK                         _______ _______ _______ _____ _____    ______ ____
ROOT
ATOM      1  C   UNL     1       0.918   5.160   0.020  0.00  0.00    -0.012 C 
ENDROOT
BRANCH   1   7
ATOM      2  C   UNL     1       2.641   6.631  -0.836  0.00  0.00    -0.059 C 
ATOM      3  C   UNL     1       3.886   6.689  -1.724  0.00  0.00    +0.086 C 
ATOM      4  N   UNL     1       3.522   6.319  -3.099  0.00  0.00    -0.333 N 
ATOM      5  C   UNL     1       2.953   4.965  -3.144  0.00  0.00    +0.086 C 
ATOM      6  C   UNL     1       1.708   4.907  -2.256  0.00  0.00    -0.059 C 
ATOM      7  N   UNL     1       2.093   5.259  -0.873  0.00  0.00    +0.388 N 
ATOM      8  H   UNL     1       2.813   4.603  -0.549  0.00  0.00    -0.081 HD
BRANCH   4   9
ATOM      9  C   UNL     1       4.621   6.430  -3.956  0.00  0.00    +0.030 A 
ATOM     10  C   UNL     1       5.036   5.333  -4.700  0.00  0.00    +0.026 A 
ATOM     11  C   UNL     1       6.119   5.446  -5.550  0.00  0.00    +0.040 A 
ATOM     12  C   UNL     1       6.798   6.649  -5.652  0.00  0.00    +0.124 A 
ATOM     13  C   UNL     1       6.389   7.742  -4.907  0.00  0.00    +0.040 A 
ATOM     14  C   UNL     1       5.303   7.635  -4.060  0.00  0.00    +0.026 A 
ATOM     15  F   UNL     1       7.860   6.756  -6.480  0.00  0.00    -0.205 F 
ENDBRANCH   4   9
ENDBRANCH   1   7
BRANCH   1  16
ATOM     16  C   UNL     1       0.421   3.738   0.017  0.00  0.00    -0.022 A 
ATOM     17  C   UNL     1      -0.855   3.279   0.027  0.00  0.00    +0.009 A 
ATOM     18  C   UNL     1      -1.077   1.915   0.017  0.00  0.00    +0.008 A 
ATOM     19  C   UNL     1      -0.013   1.076   0.008  0.00  0.00    +0.045 A 
ATOM     20  S   UNL     1       1.359   2.219   0.001  0.00  0.00    -0.103 S 
ENDBRANCH   1  16
BRANCH   1  22
ATOM     21  C   UNL     1       2.534   4.704   1.870  0.00  0.00    +0.024 C 
ATOM     22  C   UNL     1       1.336   5.552   1.438  0.00  0.00    +0.065 C 
BRANCH  22  23
ATOM     23  N   UNL     1       0.218   5.323   2.357  0.00  0.00    -0.188 NA
ATOM     24  H   UNL     1      -0.380   4.572   2.216  0.00  0.00    +0.148 HD
BRANCH  23  25
ATOM     25  S   UNL     1      -0.023   6.344   3.639  0.00  0.00    +0.059 S 
ATOM     26  O   UNL     1      -1.183   5.879   4.316  0.00  0.00    -0.153 OA
ATOM     27  O   UNL     1       1.233   6.485   4.288  0.00  0.00    -0.153 OA
BRANCH  25  28
ATOM     28  C   UNL     1      -0.428   7.925   2.975  0.00  0.00    +0.105 A 
ATOM     29  C   UNL     1       0.574   8.839   2.707  0.00  0.00    +0.028 A 
ATOM     30  C   UNL     1       0.257  10.078   2.182  0.00  0.00    +0.002 A 
ATOM     31  C   UNL     1      -1.062  10.407   1.935  0.00  0.00    +0.000 A 
ATOM     32  C   UNL     1      -2.065   9.495   2.208  0.00  0.00    +0.002 A 
ATOM     33  C   UNL     1      -1.748   8.254   2.728  0.00  0.00    +0.028 A 
ENDBRANCH  25  28
ENDBRANCH  23  25
ENDBRANCH  22  23
ENDBRANCH   1  22
TORSDOF 7
