REMARK  Name = ZINC54390383
REMARK  5 active torsions:
REMARK  status: ('A' for Active; 'I' for Inactive)
REMARK    1  A    between atoms: C_1  and  C_2
REMARK    2  A    between atoms: C_2  and  C_4
REMARK    3  A    between atoms: C_2  and  N_10
REMARK    4  A    between atoms: C_18  and  N_19
REMARK    5  A    between atoms: C_20  and  C_22
REMARK                            x       y       z     vdW  Elec       q    Type
REMARK                         _______ _______ _______ _____ _____    ______ ____
ROOT
ATOM      1  N   UNL     1      -1.377  -0.525   0.030  0.00  0.00    -0.287 NA
ATOM      2  C   UNL     1      -2.052  -0.230  -1.244  0.00  0.00    +0.090 C 
ATOM      3  C   UNL     1      -3.320  -1.079  -1.330  0.00  0.00    +0.052 C 
ATOM      4  C   UNL     1      -4.128  -0.927  -0.066  0.00  0.00    -0.021 A 
ATOM      5  C   UNL     1      -3.576  -0.415   1.088  0.00  0.00    -0.028 A 
ATOM      6  C   UNL     1      -4.354  -0.298   2.230  0.00  0.00    +0.005 A 
ATOM      7  C   UNL     1      -5.679  -0.688   2.219  0.00  0.00    +0.002 A 
ATOM      8  C   UNL     1      -6.238  -1.198   1.064  0.00  0.00    +0.023 A 
ATOM      9  C   UNL     1      -5.464  -1.319  -0.080  0.00  0.00    +0.037 A 
ATOM     10  C   UNL     1      -2.140   0.034   1.150  0.00  0.00    +0.120 C 
ENDROOT
BRANCH   9  11
ATOM     11  N   UNL     1      -6.027  -1.836  -1.252  0.00  0.00    -0.285 N 
ATOM     12  C   UNL     1      -7.356  -1.751  -1.455  0.00  0.00    +0.214 C 
ATOM     13  O   UNL     1      -8.052  -1.139  -0.672  0.00  0.00    -0.276 OA
ATOM     14  C   UNL     1      -7.979  -2.416  -2.656  0.00  0.00    +0.109 C 
ATOM     15  H   UNL     1      -5.460  -2.256  -1.918  0.00  0.00    +0.155 HD
ENDBRANCH   9  11
BRANCH   1  17
ATOM     16  C   UNL     1      -0.019   1.512   0.046  0.00  0.00    +0.034 C 
ATOM     17  C   UNL     1       0.001  -0.017   0.025  0.00  0.00    +0.141 C 
BRANCH  17  18
ATOM     18  C   UNL     1       0.728  -0.527   1.243  0.00  0.00    +0.237 C 
ATOM     19  O   UNL     1       0.155  -1.242   2.036  0.00  0.00    -0.274 OA
ATOM     20  N   UNL     1       2.016  -0.187   1.450  0.00  0.00    -0.239 N 
ATOM     21  C   UNL     1       2.666  -0.643   2.540  0.00  0.00    +0.303 C 
ATOM     22  O   UNL     1       2.091  -1.360   3.335  0.00  0.00    -0.253 OA
ATOM     23  N   UNL     1       3.954  -0.303   2.747  0.00  0.00    -0.313 N 
ATOM     24  H   UNL     1       2.475   0.385   0.816  0.00  0.00    +0.159 HD
ATOM     25  H   UNL     1       4.412   0.270   2.112  0.00  0.00    +0.146 HD
ATOM     26  H   UNL     1       4.421  -0.631   3.531  0.00  0.00    +0.146 HD
ENDBRANCH  17  18
ENDBRANCH   1  17
TORSDOF 3
