REMARK  Name = ZINC19756281
REMARK  5 active torsions:
REMARK  status: ('A' for Active; 'I' for Inactive)
REMARK    1  A    between atoms: C_1  and  C_2
REMARK    2  A    between atoms: C_7  and  N_8
REMARK    3  A    between atoms: C_9  and  C_11
REMARK    4  A    between atoms: C_11  and  N_12
REMARK    5  A    between atoms: C_19  and  N_22
REMARK                            x       y       z     vdW  Elec       q    Type
REMARK                         _______ _______ _______ _____ _____    ______ ____
ROOT
ATOM      1  N   UNL     1      -0.049   1.470  -0.035  0.00  0.00    -0.315 N 
ATOM      2  C   UNL     1      -0.972   1.850  -1.112  0.00  0.00    +0.146 C 
ATOM      3  C   UNL     1      -1.095   3.379  -1.135  0.00  0.00    +0.248 C 
ATOM      4  O   UNL     1      -1.675   3.792   0.107  0.00  0.00    -0.489 OA
ATOM      5  C   UNL     1      -1.170   3.221   1.237  0.00  0.00    +0.142 A 
ATOM      6  C   UNL     1      -0.378   2.080   1.179  0.00  0.00    +0.074 A 
ATOM      7  C   UNL     1       0.109   1.522   2.356  0.00  0.00    +0.049 A 
ATOM      8  C   UNL     1      -0.192   2.101   3.580  0.00  0.00    +0.027 A 
ATOM      9  C   UNL     1      -0.981   3.242   3.631  0.00  0.00    +0.026 A 
ATOM     10  C   UNL     1      -1.467   3.798   2.463  0.00  0.00    +0.049 A 
ENDROOT
BRANCH   8  11
ATOM     11  N   UNL     1       0.299   1.535   4.762  0.00  0.00    -0.358 N 
ATOM     12  H   UNL     1       0.060   1.995   5.732  0.00  0.00    +0.142 HD
ATOM     13  H   UNL     1       0.924   0.631   4.720  0.00  0.00    +0.142 HD
ENDBRANCH   8  11
BRANCH   1  14
ATOM     14  C   UNL     1       0.018   0.010   0.110  0.00  0.00    +0.201 C 
BRANCH  14  16
ATOM     15  N   UNL     1      -1.553  -1.851   0.537  0.00  0.00    -0.284 N 
ATOM     16  C   UNL     1      -1.343  -0.522   0.476  0.00  0.00    +0.235 C 
ATOM     17  O   UNL     1      -2.250   0.247   0.717  0.00  0.00    -0.274 OA
ATOM     18  H   UNL     1      -0.714  -2.548   0.392  0.00  0.00    +0.155 HD
BRANCH  15  25
ATOM     19  C   UNL     1      -2.255  -4.380  -0.563  0.00  0.00    +0.045 C 
ATOM     20  C   UNL     1      -3.223  -3.576   0.267  0.00  0.00    -0.029 A 
ATOM     21  C   UNL     1      -4.492  -4.062   0.513  0.00  0.00    +0.005 A 
ATOM     22  C   UNL     1      -5.380  -3.325   1.275  0.00  0.00    +0.000 A 
ATOM     23  C   UNL     1      -5.000  -2.100   1.793  0.00  0.00    +0.002 A 
ATOM     24  C   UNL     1      -3.731  -1.611   1.554  0.00  0.00    +0.023 A 
ATOM     25  C   UNL     1      -2.838  -2.346   0.785  0.00  0.00    +0.036 A 
ENDBRANCH  15  25
ENDBRANCH  14  16
ENDBRANCH   1  14
TORSDOF 4
