REMARK  Name = ZINC64703142
REMARK  7 active torsions:
REMARK  status: ('A' for Active; 'I' for Inactive)
REMARK    1  A    between atoms: C_1  and  C_2
REMARK    2  A    between atoms: C_2  and  C_3
REMARK    3  A    between atoms: C_6  and  C_9
REMARK    4  A    between atoms: C_17  and  S_21
REMARK    5  A    between atoms: S_21  and  C_22
REMARK    6  A    between atoms: C_22  and  C_23
REMARK    7  A    between atoms: N_25  and  C_26
REMARK                            x       y       z     vdW  Elec       q    Type
REMARK                         _______ _______ _______ _____ _____    ______ ____
ROOT
ATOM      1  C   UNL     1      -5.241  -1.768   0.472  0.00  0.00    +0.047 C 
ATOM      2  C   UNL     1      -5.832  -2.131  -0.691  0.00  0.00    +0.027 C 
ATOM      3  C   UNL     1      -7.170  -2.678  -0.273  0.00  0.00    +0.193 C 
ATOM      4  C   UNL     1      -7.644  -3.906  -0.989  0.00  0.00    +0.276 C 
ATOM      5  O   UNL     1      -7.353  -4.124  -2.141  0.00  0.00    -0.270 OA
ATOM      6  N   UNL     1      -8.417  -4.759  -0.270  0.00  0.00    -0.081 NA
ATOM      7  N   UNL     1      -8.643  -4.628   0.935  0.00  0.00    -0.163 NA
ATOM      8  C   UNL     1      -8.068  -3.548   1.756  0.00  0.00    +0.272 C 
ATOM      9  N   UNL     1      -6.843  -3.118   1.123  0.00  0.00    -0.178 NA
ATOM     10  N   UNL     1      -6.104  -2.073   1.552  0.00  0.00    -0.274 N 
ATOM     11  H   UNL     1      -6.155  -1.628   2.413  0.00  0.00    +0.167 HD
ENDROOT
BRANCH   1  15
ATOM     12  C   UNL     1      -1.389  -0.009   0.826  0.00  0.00    -0.048 A 
ATOM     13  C   UNL     1      -2.139  -0.258   1.961  0.00  0.00    +0.004 A 
ATOM     14  C   UNL     1      -3.391  -0.829   1.852  0.00  0.00    +0.010 A 
ATOM     15  C   UNL     1      -3.899  -1.155   0.595  0.00  0.00    -0.003 A 
ATOM     16  C   UNL     1      -3.137  -0.902  -0.545  0.00  0.00    +0.010 A 
ATOM     17  C   UNL     1      -1.889  -0.325  -0.424  0.00  0.00    +0.004 A 
BRANCH  12  19
ATOM     18  C   UNL     1      -0.152   2.139   0.898  0.00  0.00    +0.009 C 
ATOM     19  C   UNL     1      -0.023   0.615   0.951  0.00  0.00    +0.032 C 
ENDBRANCH  12  19
ENDBRANCH   1  15
BRANCH   8  20
ATOM     20  S   UNL     1      -9.221  -2.150   1.837  0.00  0.00    -0.107 S 
BRANCH  20  21
ATOM     21  C   UNL     1     -10.507  -2.709   2.988  0.00  0.00    +0.168 C 
BRANCH  21  22
ATOM     22  C   UNL     1     -11.514  -1.606   3.191  0.00  0.00    +0.223 C 
ATOM     23  O   UNL     1     -11.376  -0.547   2.616  0.00  0.00    -0.275 OA
ATOM     24  N   UNL     1     -12.566  -1.796   4.011  0.00  0.00    -0.312 N 
ATOM     25  H   UNL     1     -12.675  -2.643   4.471  0.00  0.00    +0.149 HD
BRANCH  24  26
ATOM     26  C   UNL     1     -13.544  -0.723   4.209  0.00  0.00    +0.073 C 
ATOM     27  C   UNL     1     -13.048   0.223   5.304  0.00  0.00    +0.022 C 
ATOM     28  C   UNL     1     -14.070   1.344   5.510  0.00  0.00    +0.002 C 
ATOM     29  C   UNL     1     -15.412   0.739   5.928  0.00  0.00    +0.000 C 
ATOM     30  C   UNL     1     -15.908  -0.207   4.832  0.00  0.00    +0.002 C 
ATOM     31  C   UNL     1     -14.886  -1.327   4.626  0.00  0.00    +0.022 C 
ENDBRANCH  24  26
ENDBRANCH  21  22
ENDBRANCH  20  21
ENDBRANCH   8  20
TORSDOF 6
