REMARK  Name = ZINC04275269
REMARK  9 active torsions:
REMARK  status: ('A' for Active; 'I' for Inactive)
REMARK    1  A    between atoms: C_1  and  C_2
REMARK    2  A    between atoms: C_2  and  C_28
REMARK    3  A    between atoms: C_5  and  C_25
REMARK    4  A    between atoms: C_6  and  N_13
REMARK    5  A    between atoms: C_9  and  C_11
REMARK    6  A    between atoms: C_9  and  C_12
REMARK    7  A    between atoms: C_14  and  C_16
REMARK    8  A    between atoms: C_16  and  O_17
REMARK    9  A    between atoms: O_17  and  C_18
REMARK                            x       y       z     vdW  Elec       q    Type
REMARK                         _______ _______ _______ _____ _____    ______ ____
ROOT
ATOM      1  C   UNL     1      -0.019   1.526   0.010  0.00  0.00    -0.010 C 
ATOM      2  C   UNL     1       0.002  -0.004   0.002  0.00  0.00    -0.069 C 
ATOM      3  C   UNL     1      -1.434  -0.533  -0.096  0.00  0.00    +0.024 C 
ATOM      4  C   UNL     1      -2.143  -0.137   1.190  0.00  0.00    -0.026 A 
ATOM      5  C   UNL     1      -3.547   0.162   1.353  0.00  0.00    +0.068 A 
ATOM      6  C   UNL     1      -3.973   0.507   2.630  0.00  0.00    +0.084 A 
ATOM      7  S   UNL     1      -2.577   0.437   3.562  0.00  0.00    -0.079 S 
ATOM      8  C   UNL     1      -1.412  -0.053   2.326  0.00  0.00    -0.016 A 
ATOM      9  C   UNL     1       0.047  -0.333   2.463  0.00  0.00    -0.041 C 
ATOM     10  N   UNL     1       0.700  -0.526   1.169  0.00  0.00    +0.389 N 
ATOM     11  C   UNL     1       0.719   0.816   3.229  0.00  0.00    -0.005 C 
ATOM     12  C   UNL     1       0.216  -1.618   3.297  0.00  0.00    -0.005 C 
ATOM     13  C   UNL     1       0.759  -0.459  -1.260  0.00  0.00    -0.010 C 
ATOM     14  H   UNL     1       0.858  -1.526   1.032  0.00  0.00    -0.084 HD
ATOM     15  H   UNL     1       1.629  -0.104   1.208  0.00  0.00    -0.084 HD
ENDROOT
BRANCH   5  16
ATOM     16  C   UNL     1      -4.490   0.103   0.232  0.00  0.00    +0.244 C 
ATOM     17  O   UNL     1      -5.073  -0.935  -0.020  0.00  0.00    -0.270 OA
ATOM     18  N   UNL     1      -4.712   1.200  -0.520  0.00  0.00    -0.325 N 
ATOM     19  H   UNL     1      -4.248   2.028  -0.319  0.00  0.00    +0.145 HD
ATOM     20  H   UNL     1      -5.336   1.161  -1.262  0.00  0.00    +0.145 HD
ENDBRANCH   5  16
BRANCH   6  21
ATOM     21  N   UNL     1      -5.256   0.835   3.038  0.00  0.00    -0.277 N 
ATOM     22  C   UNL     1      -5.494   1.148   4.328  0.00  0.00    +0.255 C 
ATOM     23  O   UNL     1      -4.585   1.142   5.130  0.00  0.00    -0.272 OA
ATOM     24  H   UNL     1      -5.984   0.839   2.397  0.00  0.00    +0.155 HD
BRANCH  22  25
ATOM     25  C   UNL     1      -6.889   1.504   4.772  0.00  0.00    +0.324 C 
BRANCH  25  26
ATOM     26  O   UNL     1      -6.884   1.793   6.171  0.00  0.00    -0.483 OA
BRANCH  26  27
ATOM     27  C   UNL     1      -8.073   2.135   6.735  0.00  0.00    +0.121 A 
ATOM     28  C   UNL     1      -9.221   2.185   5.958  0.00  0.00    +0.047 A 
ATOM     29  C   UNL     1     -10.428   2.532   6.533  0.00  0.00    +0.023 A 
ATOM     30  C   UNL     1     -10.493   2.831   7.882  0.00  0.00    +0.041 A 
ATOM     31  C   UNL     1      -9.348   2.783   8.659  0.00  0.00    +0.023 A 
ATOM     32  C   UNL     1      -8.140   2.429   8.089  0.00  0.00    +0.047 A 
ATOM     33 CL   UNL     1     -12.011   3.268   8.602  0.00  0.00    -0.084 Cl
ENDBRANCH  26  27
ENDBRANCH  25  26
ENDBRANCH  22  25
ENDBRANCH   6  21
TORSDOF 5
