REMARK  Name = ZINC65586985
REMARK  4 active torsions:
REMARK  status: ('A' for Active; 'I' for Inactive)
REMARK    1  A    between atoms: C_4  and  O_7
REMARK    2  A    between atoms: O_7  and  C_8
REMARK    3  A    between atoms: C_8  and  C_9
REMARK    4  A    between atoms: C_19  and  C_21
REMARK                            x       y       z     vdW  Elec       q    Type
REMARK                         _______ _______ _______ _____ _____    ______ ____
ROOT
ATOM      1  C   UNL     1       4.954  -2.624  -0.061  0.00  0.00    +0.030 C 
ATOM      2  C   UNL     1       5.639  -2.237  -1.374  0.00  0.00    +0.026 C 
ATOM      3  C   UNL     1       7.074  -2.773  -1.373  0.00  0.00    +0.108 C 
ATOM      4  N   UNL     1       7.038  -4.219  -1.115  0.00  0.00    -0.300 N 
ATOM      5  C   UNL     1       6.325  -4.707   0.074  0.00  0.00    +0.108 C 
ATOM      6  C   UNL     1       4.899  -4.149   0.057  0.00  0.00    +0.026 C 
ATOM      7  C   UNL     1       7.663  -5.105  -1.975  0.00  0.00    +0.218 A 
ATOM      8  N   UNL     1       8.303  -4.634  -3.036  0.00  0.00    -0.223 NA
ATOM      9  C   UNL     1       8.911  -5.453  -3.878  0.00  0.00    +0.116 A 
ATOM     10  C   UNL     1       8.873  -6.818  -3.639  0.00  0.00    +0.052 A 
ATOM     11  C   UNL     1       8.196  -7.277  -2.520  0.00  0.00    +0.149 A 
ATOM     12  N   UNL     1       7.613  -6.403  -1.716  0.00  0.00    -0.210 NA
ENDROOT
BRANCH  11  13
ATOM     13  C   UNL     1       8.129  -8.752  -2.220  0.00  0.00    +0.434 C 
ATOM     14  F   UNL     1       9.216  -9.115  -1.418  0.00  0.00    -0.164 F 
ATOM     15  F   UNL     1       6.937  -9.038  -1.546  0.00  0.00    -0.164 F 
ATOM     16  F   UNL     1       8.172  -9.474  -3.418  0.00  0.00    -0.164 F 
ENDBRANCH  11  13
BRANCH   1  17
ATOM     17  C   UNL     1       3.531  -2.060  -0.044  0.00  0.00    +0.232 C 
BRANCH  17  18
ATOM     18  O   UNL     1       3.586  -0.632  -0.037  0.00  0.00    -0.492 OA
BRANCH  18  22
ATOM     19  C   UNL     1      -0.017   1.378   0.010  0.00  0.00    +0.000 A 
ATOM     20  C   UNL     1       1.170   2.088   0.002  0.00  0.00    +0.004 A 
ATOM     21  C   UNL     1       2.377   1.417  -0.013  0.00  0.00    +0.045 A 
ATOM     22  C   UNL     1       2.399   0.030  -0.021  0.00  0.00    +0.121 A 
ATOM     23  C   UNL     1       1.207  -0.680  -0.013  0.00  0.00    +0.045 A 
ATOM     24  C   UNL     1       0.002  -0.004   0.002  0.00  0.00    +0.004 A 
ENDBRANCH  18  22
ENDBRANCH  17  18
ENDBRANCH   1  17
TORSDOF 4
