REMARK  Name = ZINC65192180
REMARK  8 active torsions:
REMARK  status: ('A' for Active; 'I' for Inactive)
REMARK    1  A    between atoms: C_1  and  C_2
REMARK    2  A    between atoms: C_2  and  C_3
REMARK    3  A    between atoms: C_3  and  C_4
REMARK    4  A    between atoms: C_3  and  C_6
REMARK    5  A    between atoms: C_4  and  C_5
REMARK    6  A    between atoms: N_8  and  N_9
REMARK    7  A    between atoms: N_12  and  C_13
REMARK    8  A    between atoms: C_13  and  C_14
REMARK                            x       y       z     vdW  Elec       q    Type
REMARK                         _______ _______ _______ _____ _____    ______ ____
ROOT
ATOM      1  N   UNL     1      -1.045  -3.856  -1.726  0.00  0.00    -0.218 N 
ATOM      2  C   UNL     1      -2.293  -4.365  -1.742  0.00  0.00    +0.316 C 
ATOM      3  O   UNL     1      -2.462  -5.558  -1.907  0.00  0.00    -0.251 OA
ATOM      4  N   UNL     1      -3.355  -3.551  -1.575  0.00  0.00    -0.298 N 
ATOM      5  H   UNL     1      -0.281  -4.442  -1.845  0.00  0.00    +0.174 HD
ATOM      6  H   UNL     1      -3.221  -2.599  -1.444  0.00  0.00    +0.150 HD
ENDROOT
BRANCH   1   9
ATOM      7  C   UNL     1       0.397  -1.973  -1.519  0.00  0.00    +0.232 C 
ATOM      8  O   UNL     1       1.352  -2.705  -1.669  0.00  0.00    -0.274 OA
ATOM      9  N   UNL     1      -0.851  -2.482  -1.536  0.00  0.00    -0.233 N 
ATOM     10  H   UNL     1      -1.615  -1.896  -1.416  0.00  0.00    +0.173 HD
BRANCH   7  11
ATOM     11  C   UNL     1       0.605  -0.495  -1.315  0.00  0.00    +0.076 C 
BRANCH  11  13
ATOM     12  C   UNL     1       0.101   1.442   0.181  0.00  0.00    +0.004 C 
ATOM     13  C   UNL     1       0.019  -0.079   0.036  0.00  0.00    +0.009 C 
ENDBRANCH  11  13
BRANCH  11  14
ATOM     14  C   UNL     1       2.103  -0.183  -1.338  0.00  0.00    +0.009 C 
ATOM     15  C   UNL     1       2.657  -0.447  -2.740  0.00  0.00    +0.004 C 
ENDBRANCH  11  14
ENDBRANCH   7  11
ENDBRANCH   1   9
BRANCH   4  16
ATOM     16  C   UNL     1      -4.711  -4.104  -1.593  0.00  0.00    +0.109 C 
BRANCH  16  17
ATOM     17  C   UNL     1      -5.724  -2.977  -1.384  0.00  0.00    +0.006 C 
ATOM     18  C   UNL     1      -6.588  -3.028  -0.122  0.00  0.00    +0.005 C 
ATOM     19  C   UNL     1      -7.209  -3.332  -1.487  0.00  0.00    +0.005 C 
ENDBRANCH  16  17
ENDBRANCH   4  16
TORSDOF 6
