REMARK  Name = ZINC09886416
REMARK  11 active torsions:
REMARK  status: ('A' for Active; 'I' for Inactive)
REMARK    1  A    between atoms: C_1  and  C_2
REMARK    2  A    between atoms: C_2  and  C_3
REMARK    3  A    between atoms: C_2  and  C_4
REMARK    4  A    between atoms: C_4  and  C_6
REMARK    5  A    between atoms: C_4  and  N_29
REMARK    6  A    between atoms: N_8  and  N_9
REMARK    7  A    between atoms: C_10  and  C_11
REMARK    8  A    between atoms: N_13  and  C_20
REMARK    9  A    between atoms: C_20  and  C_21
REMARK   10  A    between atoms: C_26  and  C_27
REMARK   11  A    between atoms: C_30  and  C_32
REMARK                            x       y       z     vdW  Elec       q    Type
REMARK                         _______ _______ _______ _____ _____    ______ ____
ROOT
ATOM      1  N   UNL     1       4.577   4.161   2.905  0.00  0.00    -0.188 NA
ATOM      2  C   UNL     1       3.623   3.294   3.058  0.00  0.00    +0.140 C 
ENDROOT
BRANCH   2   3
ATOM      3  C   UNL     1       3.201   2.456   1.924  0.00  0.00    +0.020 A 
ATOM      4  C   UNL     1       3.954   2.111   0.844  0.00  0.00    +0.096 A 
ATOM      5  N   UNL     1       3.219   1.329   0.004  0.00  0.00    -0.342 N 
ATOM      6  C   UNL     1       1.956   1.129   0.519  0.00  0.00    +0.050 A 
ATOM      7  C   UNL     1       1.884   1.821   1.739  0.00  0.00    +0.009 A 
ATOM      8  C   UNL     1       0.710   1.794   2.489  0.00  0.00    +0.010 A 
ATOM      9  C   UNL     1      -0.378   1.088   2.027  0.00  0.00    +0.001 A 
ATOM     10  C   UNL     1      -0.309   0.404   0.821  0.00  0.00    +0.002 A 
ATOM     11  C   UNL     1       0.846   0.421   0.070  0.00  0.00    +0.026 A 
BRANCH   5  12
ATOM     12  C   UNL     1       3.704   0.775  -1.263  0.00  0.00    +0.158 C 
BRANCH  12  13
ATOM     13  C   UNL     1       3.397   1.736  -2.382  0.00  0.00    -0.010 A 
ATOM     14  C   UNL     1       2.171   1.694  -3.013  0.00  0.00    +0.006 A 
ATOM     15  C   UNL     1       1.888   2.575  -4.041  0.00  0.00    +0.000 A 
ATOM     16  C   UNL     1       2.830   3.505  -4.443  0.00  0.00    +0.001 A 
ATOM     17  C   UNL     1       4.060   3.558  -3.821  0.00  0.00    +0.019 A 
ATOM     18  C   UNL     1       4.351   2.675  -2.779  0.00  0.00    +0.057 A 
BRANCH  18  19
ATOM     19  C   UNL     1       5.623   2.729  -2.125  0.00  0.00    +0.099 C 
ATOM     20  N   UNL     1       6.633   2.772  -1.606  0.00  0.00    -0.191 NA
ENDBRANCH  18  19
ENDBRANCH  12  13
ENDBRANCH   5  12
ENDBRANCH   2   3
BRANCH   1  23
ATOM     21  C   UNL     1       6.144   5.246   1.479  0.00  0.00    +0.253 C 
ATOM     22  O   UNL     1       6.697   5.706   2.456  0.00  0.00    -0.272 OA
ATOM     23  N   UNL     1       5.085   4.427   1.627  0.00  0.00    -0.205 N 
ATOM     24  H   UNL     1       4.673   4.021   0.848  0.00  0.00    +0.177 HD
BRANCH  21  25
ATOM     25  C   UNL     1       6.644   5.591   0.099  0.00  0.00    +0.163 C 
BRANCH  25  26
ATOM     26  N   UNL     1       8.016   6.095   0.188  0.00  0.00    -0.300 N 
ATOM     27  C   UNL     1       8.841   5.995  -0.873  0.00  0.00    +0.246 C 
ATOM     28  O   UNL     1       8.446   5.487  -1.905  0.00  0.00    -0.270 OA
ATOM     29  H   UNL     1       8.332   6.500   1.011  0.00  0.00    +0.150 HD
BRANCH  27  30
ATOM     30  C   UNL     1      10.226   6.503  -0.783  0.00  0.00    +0.055 A 
ATOM     31  C   UNL     1      10.681   7.092   0.398  0.00  0.00    +0.014 A 
ATOM     32  C   UNL     1      11.976   7.559   0.477  0.00  0.00    +0.001 A 
ATOM     33  C   UNL     1      12.821   7.456  -0.615  0.00  0.00    +0.001 A 
ATOM     34  C   UNL     1      12.376   6.879  -1.790  0.00  0.00    +0.021 A 
ATOM     35  C   UNL     1      11.083   6.402  -1.881  0.00  0.00    +0.053 A 
ATOM     36 CL   UNL     1      10.525   5.678  -3.358  0.00  0.00    -0.083 Cl
ENDBRANCH  27  30
ENDBRANCH  25  26
BRANCH  25  38
ATOM     37  C   UNL     1       5.880   7.962   0.287  0.00  0.00    +0.009 C 
ATOM     38  C   UNL     1       5.745   6.666  -0.514  0.00  0.00    +0.012 C 
ATOM     39  C   UNL     1       6.166   6.916  -1.964  0.00  0.00    +0.009 C 
ENDBRANCH  25  38
ENDBRANCH  21  25
ENDBRANCH   1  23
TORSDOF 9
