REMARK  Name = ZINC56905172
REMARK  4 active torsions:
REMARK  status: ('A' for Active; 'I' for Inactive)
REMARK    1  A    between atoms: C_1  and  C_2
REMARK    2  A    between atoms: C_4  and  C_8
REMARK    3  A    between atoms: C_5  and  C_7
REMARK    4  A    between atoms: C_14  and  C_16
REMARK                            x       y       z     vdW  Elec       q    Type
REMARK                         _______ _______ _______ _____ _____    ______ ____
ROOT
ATOM      1  C   UNL     1      -1.370  -3.421  -0.011  0.00  0.00    +0.253 A 
ATOM      2  N   UNL     1      -0.899  -4.645  -0.015  0.00  0.00    -0.106 NA
ATOM      3  N   UNL     1      -1.878  -5.479  -0.017  0.00  0.00    -0.092 NA
ATOM      4  C   UNL     1      -3.012  -4.822  -0.015  0.00  0.00    +0.315 A 
ATOM      5  O   UNL     1      -2.718  -3.508  -0.006  0.00  0.00    -0.405 OA
ATOM      6  N   UNL     1      -4.281  -5.378  -0.017  0.00  0.00    -0.234 N 
ATOM      7  C   UNL     1      -4.430  -6.718  -0.020  0.00  0.00    +0.253 C 
ATOM      8  O   UNL     1      -3.451  -7.439  -0.022  0.00  0.00    -0.270 OA
ATOM      9  H   UNL     1      -5.063  -4.803  -0.015  0.00  0.00    +0.160 HD
ENDROOT
BRANCH   7  10
ATOM     10  C   UNL     1      -5.783  -7.310  -0.022  0.00  0.00    +0.055 A 
ATOM     11  C   UNL     1      -6.910  -6.485  -0.026  0.00  0.00    +0.016 A 
ATOM     12  C   UNL     1      -8.170  -7.044  -0.028  0.00  0.00    +0.021 A 
ATOM     13  C   UNL     1      -8.321  -8.422  -0.026  0.00  0.00    +0.042 A 
ATOM     14  C   UNL     1      -7.209  -9.246  -0.022  0.00  0.00    +0.040 A 
ATOM     15  C   UNL     1      -5.941  -8.699  -0.025  0.00  0.00    +0.054 A 
ATOM     16 CL   UNL     1      -4.547  -9.733  -0.027  0.00  0.00    -0.083 Cl
ATOM     17 CL   UNL     1      -9.912  -9.117  -0.028  0.00  0.00    -0.083 Cl
ENDBRANCH   7  10
BRANCH   1  21
ATOM     18  C   UNL     1      -0.018   1.503   0.010  0.00  0.00    +0.086 C 
ATOM     19  C   UNL     1       0.002  -0.004   0.002  0.00  0.00    +0.103 A 
ATOM     20  C   UNL     1      -1.081  -0.798   0.003  0.00  0.00    +0.058 A 
ATOM     21  C   UNL     1      -0.573  -2.176  -0.008  0.00  0.00    +0.079 A 
ATOM     22  C   UNL     1       0.784  -2.069  -0.014  0.00  0.00    +0.114 A 
ATOM     23  O   UNL     1       1.105  -0.768  -0.013  0.00  0.00    -0.464 OA
ATOM     24  C   UNL     1       1.759  -3.218  -0.025  0.00  0.00    +0.087 C 
ENDBRANCH   1  21
TORSDOF 2
