REMARK  Name = ZINC66510259
REMARK  7 active torsions:
REMARK  status: ('A' for Active; 'I' for Inactive)
REMARK    1  A    between atoms: C_1  and  C_2
REMARK    2  A    between atoms: C_5  and  O_11
REMARK    3  A    between atoms: C_6  and  N_8
REMARK    4  A    between atoms: O_11  and  C_12
REMARK    5  A    between atoms: C_12  and  C_14
REMARK    6  A    between atoms: C_17  and  N_20
REMARK    7  A    between atoms: C_24  and  C_27
REMARK                            x       y       z     vdW  Elec       q    Type
REMARK                         _______ _______ _______ _____ _____    ______ ____
ROOT
ATOM      1  C   UNL     1      -0.138  -6.226  -1.260  0.00  0.00    +0.060 A 
ATOM      2  C   UNL     1      -0.101  -6.973  -0.078  0.00  0.00    +0.017 A 
ATOM      3  C   UNL     1      -0.191  -8.340  -0.130  0.00  0.00    +0.024 A 
ATOM      4  C   UNL     1      -0.319  -8.986  -1.357  0.00  0.00    +0.030 A 
ATOM      5  C   UNL     1      -0.356  -8.245  -2.535  0.00  0.00    +0.024 A 
ATOM      6  C   UNL     1      -0.272  -6.878  -2.491  0.00  0.00    +0.017 A 
ENDROOT
BRANCH   4   7
ATOM      7  N   UNL     1      -0.409 -10.372  -1.405  0.00  0.00    -0.329 N 
ATOM      8  C   UNL     1      -0.398 -11.078  -2.693  0.00  0.00    +0.105 C 
ATOM      9  C   UNL     1      -1.627 -11.990  -2.766  0.00  0.00    +0.020 C 
ATOM     10  C   UNL     1      -1.646 -12.912  -1.544  0.00  0.00    +0.016 C 
ATOM     11  C   UNL     1      -1.744 -12.070  -0.270  0.00  0.00    +0.092 C 
ATOM     12  C   UNL     1      -0.511 -11.159  -0.169  0.00  0.00    +0.117 C 
BRANCH  11  13
ATOM     13  C   UNL     1      -1.797 -12.979   0.931  0.00  0.00    +0.215 C 
ATOM     14  O   UNL     1      -0.939 -12.905   1.785  0.00  0.00    -0.276 OA
ATOM     15  N   UNL     1      -2.796 -13.875   1.055  0.00  0.00    -0.329 N 
ATOM     16  H   UNL     1      -3.482 -13.934   0.371  0.00  0.00    +0.145 HD
ATOM     17  H   UNL     1      -2.830 -14.460   1.828  0.00  0.00    +0.145 HD
ENDBRANCH  11  13
ENDBRANCH   4   7
BRANCH   1  18
ATOM     18  C   UNL     1      -0.042  -4.757  -1.209  0.00  0.00    +0.345 C 
ATOM     19  O   UNL     1      -0.080  -4.109  -2.237  0.00  0.00    -0.245 OA
BRANCH  18  20
ATOM     20  O   UNL     1       0.087  -4.131  -0.022  0.00  0.00    -0.420 OA
BRANCH  20  25
ATOM     21  C   UNL     1      -0.002   1.501   0.019  0.00  0.00    +0.044 C 
ATOM     22  C   UNL     1       0.022  -0.006   0.008  0.00  0.00    -0.048 A 
ATOM     23  C   UNL     1       1.230  -0.677   0.031  0.00  0.00    +0.007 A 
ATOM     24  C   UNL     1       1.255  -2.058   0.021  0.00  0.00    +0.049 A 
ATOM     25  C   UNL     1       0.066  -2.772  -0.012  0.00  0.00    +0.162 A 
ATOM     26  C   UNL     1      -1.146  -2.096  -0.035  0.00  0.00    +0.169 A 
ATOM     27  C   UNL     1      -1.165  -0.715  -0.020  0.00  0.00    +0.039 A 
BRANCH  26  28
ATOM     28  N   UNL     1      -2.416  -2.854  -0.071  0.00  0.00    +0.060 N 
ATOM     29  O   UNL     1      -3.472  -2.265  -0.092  0.00  0.00    -0.126 OA
ATOM     30  O   UNL     1      -2.399  -4.063  -0.081  0.00  0.00    -0.126 OA
ENDBRANCH  26  28
ENDBRANCH  20  25
ENDBRANCH  18  20
ENDBRANCH   1  18
TORSDOF 6
