REMARK  Name = ZINC36516210
REMARK  23 active torsions:
REMARK  status: ('A' for Active; 'I' for Inactive)
REMARK    1  A    between atoms: C_1  and  C_2
REMARK    2  A    between atoms: C_2  and  C_3
REMARK    3  A    between atoms: C_3  and  C_4
REMARK    4  A    between atoms: C_4  and  C_5
REMARK    5  A    between atoms: C_5  and  C_6
REMARK    6  A    between atoms: C_6  and  N_7
REMARK    7  A    between atoms: N_7  and  C_8
REMARK    8  A    between atoms: C_8  and  C_10
REMARK    9  A    between atoms: C_8  and  C_15
REMARK   10  A    between atoms: C_10  and  C_11
REMARK   11  A    between atoms: C_11  and  C_12
REMARK   12  A    between atoms: C_12  and  C_13
REMARK   13  A    between atoms: C_13  and  C_14
REMARK   14  A    between atoms: N_17  and  C_18
REMARK   15  A    between atoms: C_18  and  C_19
REMARK   16  A    between atoms: C_18  and  C_20
REMARK   17  A    between atoms: C_18  and  C_21
REMARK   18  A    between atoms: C_21  and  C_22
REMARK   19  A    between atoms: C_22  and  C_23
REMARK   20  A    between atoms: C_22  and  C_24
REMARK   21  A    between atoms: C_22  and  C_25
REMARK   22  A    between atoms: C_26  and  C_28
REMARK   23  A    between atoms: C_28  and  C_29
REMARK                            x       y       z     vdW  Elec       q    Type
REMARK                         _______ _______ _______ _____ _____    ______ ____
ROOT
ATOM      1  N   UNL     1      -2.784  -3.431  -2.897  0.00  0.00    -0.290 N 
ATOM      2  C   UNL     1      -3.035  -3.131  -1.607  0.00  0.00    +0.221 C 
ATOM      3  O   UNL     1      -4.090  -3.455  -1.103  0.00  0.00    -0.275 OA
ENDROOT
BRANCH   2   4
ATOM      4  C   UNL     1      -2.006  -2.392  -0.791  0.00  0.00    +0.131 C 
BRANCH   4   5
ATOM      5  C   UNL     1      -2.528  -2.182   0.606  0.00  0.00    -0.035 A 
ATOM      6  C   UNL     1      -3.255  -1.045   0.908  0.00  0.00    +0.008 A 
ATOM      7  C   UNL     1      -3.737  -0.848   2.188  0.00  0.00    +0.050 A 
ATOM      8  C   UNL     1      -3.492  -1.791   3.174  0.00  0.00    +0.166 A 
ATOM      9  C   UNL     1      -2.760  -2.936   2.870  0.00  0.00    +0.166 A 
ATOM     10  C   UNL     1      -2.285  -3.129   1.583  0.00  0.00    +0.053 A 
ATOM     11  O   UNL     1      -2.658  -3.699   3.997  0.00  0.00    -0.453 OA
ATOM     12  C   UNL     1      -2.981  -2.818   5.089  0.00  0.00    +0.466 C 
ATOM     13  O   UNL     1      -3.848  -1.836   4.491  0.00  0.00    -0.453 OA
ENDBRANCH   4   5
ENDBRANCH   2   4
BRANCH   1  14
ATOM     14  C   UNL     1      -3.785  -4.149  -3.689  0.00  0.00    +0.162 C 
BRANCH  14  15
ATOM     15  C   UNL     1      -3.200  -5.449  -4.178  0.00  0.00    +0.234 C 
ATOM     16  O   UNL     1      -2.060  -5.747  -3.892  0.00  0.00    -0.274 OA
ATOM     17  N   UNL     1      -3.945  -6.282  -4.933  0.00  0.00    -0.309 N 
ATOM     18  H   UNL     1      -4.857  -6.044  -5.161  0.00  0.00    +0.149 HD
BRANCH  17  19
ATOM     19  C   UNL     1      -3.376  -7.546  -5.408  0.00  0.00    +0.030 C 
ATOM     20  C   UNL     1      -2.101  -7.263  -6.205  0.00  0.00    +0.031 C 
ATOM     21  C   UNL     1      -3.042  -8.437  -4.210  0.00  0.00    +0.031 C 
BRANCH  19  22
ATOM     22  C   UNL     1      -4.392  -8.257  -6.305  0.00  0.00    +0.031 C 
BRANCH  22  23
ATOM     23  C   UNL     1      -5.586  -8.709  -5.463  0.00  0.00    -0.036 C 
ATOM     24  C   UNL     1      -6.116  -7.526  -4.651  0.00  0.00    +0.010 C 
ATOM     25  C   UNL     1      -6.691  -9.230  -6.385  0.00  0.00    +0.010 C 
ATOM     26  C   UNL     1      -5.147  -9.825  -4.513  0.00  0.00    +0.010 C 
ENDBRANCH  22  23
ENDBRANCH  19  22
ENDBRANCH  17  19
ENDBRANCH  14  15
BRANCH  14  27
ATOM     27  C   UNL     1      -4.197  -3.293  -4.888  0.00  0.00    +0.032 C 
BRANCH  27  28
ATOM     28  C   UNL     1      -4.904  -2.029  -4.394  0.00  0.00    +0.002 C 
BRANCH  28  29
ATOM     29  C   UNL     1      -5.315  -1.172  -5.593  0.00  0.00    -0.000 C 
BRANCH  29  30
ATOM     30  C   UNL     1      -6.022   0.091  -5.098  0.00  0.00    -0.003 C 
ATOM     31  C   UNL     1      -6.433   0.948  -6.297  0.00  0.00    +0.004 C 
ENDBRANCH  29  30
ENDBRANCH  28  29
ENDBRANCH  27  28
ENDBRANCH  14  27
ENDBRANCH   1  14
BRANCH   1  32
ATOM     32  C   UNL     1      -1.511  -3.039  -3.506  0.00  0.00    +0.108 C 
BRANCH  32  33
ATOM     33  C   UNL     1      -1.648  -1.646  -4.123  0.00  0.00    +0.019 C 
BRANCH  33  34
ATOM     34  C   UNL     1      -0.318  -1.237  -4.760  0.00  0.00    +0.002 C 
BRANCH  34  35
ATOM     35  C   UNL     1      -0.455   0.156  -5.377  0.00  0.00    -0.000 C 
BRANCH  35  37
ATOM     36  C   UNL     1       0.737   1.958  -6.631  0.00  0.00    +0.004 C 
ATOM     37  C   UNL     1       0.875   0.565  -6.013  0.00  0.00    -0.003 C 
ENDBRANCH  35  37
ENDBRANCH  34  35
ENDBRANCH  33  34
ENDBRANCH  32  33
ENDBRANCH   1  32
TORSDOF 16
