REMARK  Name = ZINC38805857
REMARK  10 active torsions:
REMARK  status: ('A' for Active; 'I' for Inactive)
REMARK    1  A    between atoms: C_1  and  C_2
REMARK    2  A    between atoms: C_2  and  O_3
REMARK    3  A    between atoms: O_3  and  C_4
REMARK    4  A    between atoms: C_12  and  N_18
REMARK    5  A    between atoms: C_13  and  C_14
REMARK    6  A    between atoms: C_14  and  O_16
REMARK    7  A    between atoms: O_16  and  C_17
REMARK    8  A    between atoms: C_19  and  C_21
REMARK    9  A    between atoms: C_24  and  N_30
REMARK   10  A    between atoms: C_25  and  N_27
REMARK                            x       y       z     vdW  Elec       q    Type
REMARK                         _______ _______ _______ _____ _____    ______ ____
ROOT
ATOM      1  N   UNL     1      -8.043  -2.764   3.401  0.00  0.00    -0.275 N 
ATOM      2  C   UNL     1      -8.915  -1.738   3.414  0.00  0.00    +0.249 C 
ATOM      3  O   UNL     1      -8.702  -0.750   2.738  0.00  0.00    -0.270 OA
ATOM      4  H   UNL     1      -8.213  -3.552   3.941  0.00  0.00    +0.156 HD
ENDROOT
BRANCH   1  13
ATOM      5  C   UNL     1      -1.497  -1.836   0.006  0.00  0.00    +0.403 C 
ATOM      6  O   UNL     1      -0.523  -2.563  -0.007  0.00  0.00    -0.226 OA
ATOM      7  N   UNL     1      -2.735  -2.368   0.015  0.00  0.00    -0.262 N 
ATOM      8  C   UNL     1      -2.939  -3.824   0.016  0.00  0.00    +0.116 C 
ATOM      9  C   UNL     1      -3.619  -4.247   1.320  0.00  0.00    +0.056 C 
ATOM     10  C   UNL     1      -4.800  -3.326   1.588  0.00  0.00    -0.018 A 
ATOM     11  C   UNL     1      -4.904  -2.117   0.997  0.00  0.00    +0.013 A 
ATOM     12  S   UNL     1      -6.414  -1.438   1.617  0.00  0.00    -0.076 S 
ATOM     13  C   UNL     1      -6.903  -2.694   2.618  0.00  0.00    +0.087 A 
ATOM     14  C   UNL     1      -5.902  -3.645   2.481  0.00  0.00    +0.091 A 
ATOM     15  C   UNL     1      -3.936  -1.509   0.032  0.00  0.00    +0.153 C 
BRANCH  14  16
ATOM     16  C   UNL     1      -5.954  -4.917   3.204  0.00  0.00    +0.342 C 
ATOM     17  O   UNL     1      -5.451  -5.009   4.308  0.00  0.00    -0.245 OA
BRANCH  16  18
ATOM     18  O   UNL     1      -6.559  -5.986   2.647  0.00  0.00    -0.464 OA
ATOM     19  C   UNL     1      -6.573  -7.194   3.410  0.00  0.00    +0.280 C 
ENDBRANCH  16  18
ENDBRANCH  14  16
BRANCH   5  20
ATOM     20  O   UNL     1      -1.339  -0.499   0.012  0.00  0.00    -0.451 OA
BRANCH  20  22
ATOM     21  C   UNL     1      -0.019   1.526   0.010  0.00  0.00    +0.048 C 
ATOM     22  C   UNL     1       0.002  -0.004   0.002  0.00  0.00    +0.230 C 
ENDBRANCH  20  22
ENDBRANCH   5  20
ENDBRANCH   1  13
BRANCH   2  23
ATOM     23  C   UNL     1     -10.129  -1.812   4.249  0.00  0.00    +0.039 A 
ATOM     24  C   UNL     1     -10.373  -2.945   5.031  0.00  0.00    +0.015 A 
ATOM     25  C   UNL     1     -11.506  -3.012   5.808  0.00  0.00    +0.026 A 
ATOM     26  C   UNL     1     -12.410  -1.953   5.816  0.00  0.00    +0.060 A 
ATOM     27  C   UNL     1     -12.171  -0.824   5.038  0.00  0.00    +0.148 A 
ATOM     28  C   UNL     1     -11.036  -0.748   4.263  0.00  0.00    +0.047 A 
BRANCH  26  29
ATOM     29  N   UNL     1     -13.555  -2.023   6.602  0.00  0.00    -0.328 N 
ATOM     30  C   UNL     1     -14.797  -2.596   6.066  0.00  0.00    +0.105 C 
ATOM     31  C   UNL     1     -15.283  -3.697   7.014  0.00  0.00    +0.019 C 
ATOM     32  C   UNL     1     -15.413  -3.126   8.428  0.00  0.00    +0.003 C 
ATOM     33  C   UNL     1     -14.045  -2.640   8.912  0.00  0.00    +0.019 C 
ATOM     34  C   UNL     1     -13.544  -1.533   7.987  0.00  0.00    +0.105 C 
ENDBRANCH  26  29
BRANCH  27  35
ATOM     35  N   UNL     1     -13.135   0.300   5.048  0.00  0.00    +0.058 N 
ATOM     36  O   UNL     1     -12.927   1.281   4.373  0.00  0.00    -0.126 OA
ATOM     37  O   UNL     1     -14.129   0.236   5.733  0.00  0.00    -0.126 OA
ENDBRANCH  27  35
ENDBRANCH   2  23
TORSDOF 8
