REMARK  Name = ZINC51705712
REMARK  5 active torsions:
REMARK  status: ('A' for Active; 'I' for Inactive)
REMARK    1  A    between atoms: C_1  and  C_2
REMARK    2  A    between atoms: C_3  and  N_24
REMARK    3  A    between atoms: C_7  and  O_8
REMARK    4  A    between atoms: O_8  and  C_9
REMARK    5  A    between atoms: C_9  and  C_11
REMARK                            x       y       z     vdW  Elec       q    Type
REMARK                         _______ _______ _______ _____ _____    ______ ____
ROOT
ATOM      1  C   UNL     1       0.373  -0.907   3.484  0.00  0.00    +0.350 C 
ATOM      2  O   UNL     1       0.446  -2.114   3.360  0.00  0.00    -0.244 OA
ENDROOT
BRANCH   1   3
ATOM      3  C   UNL     1       0.554  -0.292   4.806  0.00  0.00    +0.124 A 
ATOM      4  C   UNL     1       0.817  -1.071   5.926  0.00  0.00    +0.033 A 
ATOM      5  C   UNL     1       0.985  -0.435   7.174  0.00  0.00    +0.038 A 
ATOM      6  C   UNL     1       0.898   0.943   7.283  0.00  0.00    +0.030 A 
ATOM      7  N   UNL     1       0.637   1.700   6.198  0.00  0.00    -0.325 N 
ATOM      8  H   UNL     1       0.574   2.662   6.300  0.00  0.00    +0.169 HD
ATOM      9  C   UNL     1       0.470   1.161   4.979  0.00  0.00    +0.263 A 
ATOM     10  O   UNL     1       0.243   1.878   4.021  0.00  0.00    -0.267 OA
ATOM     11  C   UNL     1       1.096   1.640   8.604  0.00  0.00    +0.054 C 
ATOM     12  C   UNL     1       0.819   0.702   9.775  0.00  0.00    +0.014 C 
ATOM     13  C   UNL     1       1.688  -0.555   9.632  0.00  0.00    +0.080 C 
ATOM     14  C   UNL     1       1.252  -1.260   8.365  0.00  0.00    +0.165 C 
ATOM     15  O   UNL     1       1.125  -2.466   8.332  0.00  0.00    -0.292 OA
ENDBRANCH   1   3
BRANCH   1  16
ATOM     16  O   UNL     1       0.124  -0.133   2.408  0.00  0.00    -0.422 OA
BRANCH  16  23
ATOM     17  C   UNL     1       2.473  -0.646   0.924  0.00  0.00    +0.050 C 
ATOM     18  C   UNL     1       1.100  -1.020   0.428  0.00  0.00    +0.022 A 
ATOM     19  C   UNL     1       0.953  -1.645  -0.795  0.00  0.00    +0.133 A 
ATOM     20  C   UNL     1      -0.306  -1.989  -1.251  0.00  0.00    +0.033 A 
ATOM     21  C   UNL     1      -1.422  -1.708  -0.484  0.00  0.00    +0.006 A 
ATOM     22  C   UNL     1      -1.281  -1.083   0.740  0.00  0.00    +0.047 A 
ATOM     23  C   UNL     1      -0.017  -0.743   1.202  0.00  0.00    +0.137 A 
BRANCH  19  24
ATOM     24  N   UNL     1       2.146  -1.947  -1.619  0.00  0.00    +0.057 N 
ATOM     25  O   UNL     1       2.086  -1.861  -2.823  0.00  0.00    -0.126 OA
ATOM     26  O   UNL     1       3.179  -2.280  -1.087  0.00  0.00    -0.126 OA
ENDBRANCH  19  24
ENDBRANCH  16  23
ENDBRANCH   1  16
TORSDOF 4
