REMARK  Name = ZINC64028575
REMARK  9 active torsions:
REMARK  status: ('A' for Active; 'I' for Inactive)
REMARK    1  A    between atoms: C_7  and  C_10
REMARK    2  A    between atoms: C_10  and  C_11
REMARK    3  A    between atoms: C_11  and  N_12
REMARK    4  A    between atoms: C_13  and  C_15
REMARK    5  A    between atoms: C_18  and  S_21
REMARK    6  A    between atoms: S_21  and  N_24
REMARK    7  A    between atoms: N_24  and  C_25
REMARK    8  A    between atoms: C_25  and  C_26
REMARK    9  A    between atoms: C_26  and  C_27
REMARK                            x       y       z     vdW  Elec       q    Type
REMARK                         _______ _______ _______ _____ _____    ______ ____
ROOT
ATOM      1  C   UNL     1      -1.734  -6.535  -2.622  0.00  0.00    +0.037 A 
ATOM      2  C   UNL     1      -2.247  -7.021  -1.418  0.00  0.00    +0.015 A 
ATOM      3  C   UNL     1      -3.108  -8.098  -1.423  0.00  0.00    +0.029 A 
ATOM      4  C   UNL     1      -3.463  -8.698  -2.619  0.00  0.00    +0.105 A 
ATOM      5  C   UNL     1      -2.958  -8.222  -3.816  0.00  0.00    +0.029 A 
ATOM      6  C   UNL     1      -2.101  -7.141  -3.825  0.00  0.00    +0.015 A 
ENDROOT
BRANCH   1   8
ATOM      7  N   UNL     1      -0.458  -4.798  -1.460  0.00  0.00    -0.311 N 
ATOM      8  C   UNL     1      -0.811  -5.380  -2.623  0.00  0.00    +0.244 C 
ATOM      9  O   UNL     1      -0.370  -4.956  -3.674  0.00  0.00    -0.270 OA
ATOM     10  H   UNL     1      -0.810  -5.136  -0.622  0.00  0.00    +0.149 HD
BRANCH   7  11
ATOM     11  C   UNL     1       0.457  -3.653  -1.462  0.00  0.00    +0.109 C 
BRANCH  11  12
ATOM     12  C   UNL     1       0.691  -3.186  -0.024  0.00  0.00    +0.052 C 
BRANCH  12  19
ATOM     13  C   UNL     1      -0.016   1.348   0.009  0.00  0.00    +0.001 A 
ATOM     14  C   UNL     1       1.166   2.101   0.002  0.00  0.00    +0.002 A 
ATOM     15  C   UNL     1       2.391   1.535  -0.013  0.00  0.00    +0.026 A 
ATOM     16  C   UNL     1       2.529   0.120  -0.022  0.00  0.00    +0.043 A 
ATOM     17  N   UNL     1       3.587  -0.654  -0.037  0.00  0.00    -0.380 N 
ATOM     18  C   UNL     1       3.143  -2.053  -0.041  0.00  0.00    +0.144 C 
ATOM     19  C   UNL     1       1.631  -2.008  -0.025  0.00  0.00    -0.040 C 
ATOM     20  C   UNL     1       1.295  -0.698  -0.014  0.00  0.00    -0.001 A 
ATOM     21  C   UNL     1       0.002  -0.004   0.002  0.00  0.00    +0.010 A 
ATOM     22  H   UNL     1       4.509  -0.353  -0.045  0.00  0.00    +0.160 HD
ENDBRANCH  12  19
ENDBRANCH  11  12
ENDBRANCH   7  11
ENDBRANCH   1   8
BRANCH   4  23
ATOM     23  S   UNL     1      -4.564 -10.074  -2.617  0.00  0.00    +0.058 S 
ATOM     24  O   UNL     1      -4.311 -10.798  -3.813  0.00  0.00    -0.153 OA
ATOM     25  O   UNL     1      -4.466 -10.670  -1.331  0.00  0.00    -0.153 OA
BRANCH  23  26
ATOM     26  N   UNL     1      -6.101  -9.472  -2.744  0.00  0.00    -0.190 NA
ATOM     27  H   UNL     1      -6.729  -9.587  -2.013  0.00  0.00    +0.148 HD
BRANCH  26  28
ATOM     28  C   UNL     1      -6.513  -8.766  -3.959  0.00  0.00    +0.111 C 
BRANCH  28  29
ATOM     29  C   UNL     1      -8.038  -8.646  -3.987  0.00  0.00    +0.059 C 
BRANCH  29  30
ATOM     30  C   UNL     1      -8.462  -7.919  -5.238  0.00  0.00    -0.009 A 
ATOM     31  C   UNL     1      -8.770  -8.426  -6.457  0.00  0.00    +0.011 A 
ATOM     32  C   UNL     1      -9.138  -7.560  -7.469  0.00  0.00    +0.008 A 
ATOM     33  C   UNL     1      -9.180  -6.230  -7.214  0.00  0.00    +0.045 A 
ATOM     34  S   UNL     1      -8.696  -6.168  -5.496  0.00  0.00    -0.102 S 
ENDBRANCH  29  30
ENDBRANCH  28  29
ENDBRANCH  26  28
ENDBRANCH  23  26
ENDBRANCH   4  23
TORSDOF 9
