REMARK  Name = ZINC38547712
REMARK  12 active torsions:
REMARK  status: ('A' for Active; 'I' for Inactive)
REMARK    1  A    between atoms: C_1  and  C_2
REMARK    2  A    between atoms: N_8  and  C_9
REMARK    3  A    between atoms: C_9  and  C_11
REMARK    4  A    between atoms: C_9  and  C_21
REMARK    5  A    between atoms: C_13  and  O_19
REMARK    6  A    between atoms: C_16  and  O_17
REMARK    7  A    between atoms: O_17  and  C_18
REMARK    8  A    between atoms: O_19  and  C_20
REMARK    9  A    between atoms: C_22  and  C_35
REMARK   10  A    between atoms: C_23  and  C_34
REMARK   11  A    between atoms: C_25  and  N_26
REMARK   12  A    between atoms: C_27  and  C_29
REMARK                            x       y       z     vdW  Elec       q    Type
REMARK                         _______ _______ _______ _____ _____    ______ ____
ROOT
ATOM      1  C   UNL     1       0.178  -2.048   3.822  0.00  0.00    +0.138 C 
ENDROOT
BRANCH   1   9
ATOM      2  C   UNL     1       1.113   1.986   0.803  0.00  0.00    +0.044 C 
ATOM      3  C   UNL     1       0.983   0.500   0.588  0.00  0.00    -0.046 A 
ATOM      4  C   UNL     1       1.126  -0.048  -0.680  0.00  0.00    +0.021 A 
ATOM      5  C   UNL     1       1.001  -1.413  -0.845  0.00  0.00    +0.084 A 
ATOM      6  N   UNL     1       0.748  -2.198   0.185  0.00  0.00    -0.350 N 
ATOM      7  C   UNL     1       0.604  -1.714   1.409  0.00  0.00    +0.097 A 
ATOM      8  C   UNL     1       0.723  -0.348   1.648  0.00  0.00    +0.045 A 
ATOM      9  N   UNL     1       0.338  -2.578   2.465  0.00  0.00    -0.319 N 
ATOM     10  H   UNL     1       0.259  -3.531   2.304  0.00  0.00    +0.148 HD
ATOM     11  H   UNL     1       0.665  -3.154   0.042  0.00  0.00    +0.166 HD
ENDBRANCH   1   9
BRANCH   1  12
ATOM     12  C   UNL     1      -0.564  -3.051   4.668  0.00  0.00    +0.009 A 
ATOM     13  C   UNL     1      -1.647  -2.662   5.434  0.00  0.00    -0.033 A 
ATOM     14  C   UNL     1      -2.291  -3.588   6.183  0.00  0.00    -0.008 A 
ATOM     15  S   UNL     1      -1.366  -5.071   5.819  0.00  0.00    -0.078 S 
ATOM     16  C   UNL     1      -0.182  -4.359   4.688  0.00  0.00    +0.078 A 
ATOM     17  C   UNL     1      -3.482  -3.413   7.089  0.00  0.00    +0.052 C 
ATOM     18  C   UNL     1      -2.104  -1.226   5.436  0.00  0.00    +0.045 C 
BRANCH  16  19
ATOM     19  N   UNL     1       0.864  -4.981   4.003  0.00  0.00    -0.273 N 
ATOM     20  C   UNL     1       1.010  -6.319   4.067  0.00  0.00    +0.284 C 
ATOM     21  O   UNL     1       0.230  -6.986   4.722  0.00  0.00    -0.266 OA
ATOM     22  H   UNL     1       1.486  -4.449   3.481  0.00  0.00    +0.156 HD
BRANCH  20  23
ATOM     23  C   UNL     1       2.108  -6.972   3.348  0.00  0.00    +0.189 A 
ATOM     24  C   UNL     1       2.367  -8.313   3.323  0.00  0.00    +0.054 A 
ATOM     25  C   UNL     1       3.502  -8.490   2.518  0.00  0.00    +0.042 A 
ATOM     26  C   UNL     1       3.883  -7.266   2.091  0.00  0.00    +0.196 A 
ATOM     27  O   UNL     1       3.038  -6.354   2.590  0.00  0.00    -0.458 OA
ENDBRANCH  20  23
ENDBRANCH  16  19
ENDBRANCH   1  12
BRANCH   1  28
ATOM     28  C   UNL     1       1.535  -1.789   4.423  0.00  0.00    +0.022 A 
ATOM     29  C   UNL     1       2.653  -2.409   3.898  0.00  0.00    +0.055 A 
ATOM     30  C   UNL     1       3.902  -2.170   4.452  0.00  0.00    +0.121 A 
ATOM     31  C   UNL     1       4.029  -1.310   5.533  0.00  0.00    +0.049 A 
ATOM     32  C   UNL     1       2.912  -0.691   6.057  0.00  0.00    +0.049 A 
ATOM     33  C   UNL     1       1.663  -0.925   5.501  0.00  0.00    +0.126 A 
BRANCH  33  34
ATOM     34  O   UNL     1       0.563  -0.311   6.014  0.00  0.00    -0.495 OA
ATOM     35  C   UNL     1       0.768   0.566   7.123  0.00  0.00    +0.277 C 
ENDBRANCH  33  34
BRANCH  30  36
ATOM     36  O   UNL     1       5.002  -2.780   3.935  0.00  0.00    -0.495 OA
ATOM     37  C   UNL     1       6.257  -2.488   4.555  0.00  0.00    +0.277 C 
ENDBRANCH  30  36
ENDBRANCH   1  28
TORSDOF 7
