REMARK  Name = ZINC12925295
REMARK  11 active torsions:
REMARK  status: ('A' for Active; 'I' for Inactive)
REMARK    1  A    between atoms: C_1  and  C_2
REMARK    2  A    between atoms: C_2  and  C_3
REMARK    3  A    between atoms: C_2  and  O_4
REMARK    4  A    between atoms: O_4  and  C_5
REMARK    5  A    between atoms: C_5  and  C_7
REMARK    6  A    between atoms: C_7  and  S_8
REMARK    7  A    between atoms: S_8  and  C_9
REMARK    8  A    between atoms: C_10  and  C_30
REMARK    9  A    between atoms: C_11  and  C_23
REMARK   10  A    between atoms: C_16  and  C_20
REMARK   11  A    between atoms: C_16  and  C_21
REMARK                            x       y       z     vdW  Elec       q    Type
REMARK                         _______ _______ _______ _____ _____    ______ ____
ROOT
ATOM      1  C   UNL     1       0.286  -1.974   6.209  0.00  0.00    +0.112 C 
ATOM      2  C   UNL     1      -0.386  -2.235   7.391  0.00  0.00    +0.073 C 
ATOM      3  C   UNL     1       0.439  -2.735   8.563  0.00  0.00    +0.097 C 
ATOM      4  C   UNL     1       1.925  -2.896   8.305  0.00  0.00    +0.029 C 
ATOM      5  C   UNL     1       2.732  -3.337   9.283  0.00  0.00    +0.162 C 
ATOM      6  C   UNL     1       4.212  -3.507   9.060  0.00  0.00    +0.086 C 
ATOM      7  C   UNL     1       4.466  -3.836   7.587  0.00  0.00    -0.023 C 
ATOM      8  C   UNL     1       3.882  -2.716   6.722  0.00  0.00    +0.062 C 
ATOM      9  C   UNL     1       2.409  -2.573   7.024  0.00  0.00    +0.050 C 
ATOM     10  N   UNL     1       1.602  -2.153   6.081  0.00  0.00    -0.244 NA
ATOM     11  C   UNL     1       3.791  -5.162   7.233  0.00  0.00    +0.011 C 
ATOM     12  C   UNL     1       5.973  -3.942   7.338  0.00  0.00    +0.011 C 
ATOM     13  O   UNL     1       2.208  -3.632  10.489  0.00  0.00    -0.292 OA
ENDROOT
BRANCH   3  14
ATOM     14  C   UNL     1      -0.109  -4.073   8.988  0.00  0.00    -0.035 A 
ATOM     15  C   UNL     1      -0.122  -5.129   8.095  0.00  0.00    +0.006 A 
ATOM     16  C   UNL     1      -0.625  -6.356   8.484  0.00  0.00    +0.020 A 
ATOM     17  C   UNL     1      -1.114  -6.528   9.767  0.00  0.00    +0.041 A 
ATOM     18  C   UNL     1      -1.101  -5.471  10.659  0.00  0.00    +0.020 A 
ATOM     19  C   UNL     1      -0.593  -4.246  10.271  0.00  0.00    +0.006 A 
ATOM     20 CL   UNL     1      -1.746  -8.070  10.255  0.00  0.00    -0.084 Cl
ENDBRANCH   3  14
BRANCH   2  21
ATOM     21  C   UNL     1      -1.800  -2.040   7.504  0.00  0.00    +0.098 C 
ATOM     22  N   UNL     1      -2.922  -1.886   7.593  0.00  0.00    -0.191 NA
ENDBRANCH   2  21
BRANCH   1  23
ATOM     23  S   UNL     1      -0.631  -1.392   4.821  0.00  0.00    -0.094 S 
BRANCH  23  24
ATOM     24  C   UNL     1       0.618  -1.196   3.521  0.00  0.00    +0.196 C 
BRANCH  24  25
ATOM     25  C   UNL     1      -0.042  -0.697   2.261  0.00  0.00    +0.318 C 
ATOM     26  O   UNL     1      -1.233  -0.493   2.243  0.00  0.00    -0.250 OA
BRANCH  25  27
ATOM     27  O   UNL     1       0.693  -0.477   1.160  0.00  0.00    -0.461 OA
BRANCH  27  29
ATOM     28  C   UNL     1      -0.019   1.526   0.010  0.00  0.00    +0.052 C 
ATOM     29  C   UNL     1       0.002  -0.004   0.002  0.00  0.00    +0.170 C 
ATOM     30  C   UNL     1       0.718  -0.497  -1.257  0.00  0.00    +0.052 C 
ENDBRANCH  27  29
ENDBRANCH  25  27
ENDBRANCH  24  25
ENDBRANCH  23  24
ENDBRANCH   1  23
TORSDOF 7
