REMARK  Name = ZINC40476319
REMARK  11 active torsions:
REMARK  status: ('A' for Active; 'I' for Inactive)
REMARK    1  A    between atoms: C_1  and  C_2
REMARK    2  A    between atoms: C_2  and  C_3
REMARK    3  A    between atoms: C_3  and  C_4
REMARK    4  A    between atoms: C_4  and  C_5
REMARK    5  A    between atoms: C_5  and  S_6
REMARK    6  A    between atoms: S_6  and  C_7
REMARK    7  A    between atoms: C_18  and  C_20
REMARK    8  A    between atoms: C_25  and  O_26
REMARK    9  A    between atoms: O_26  and  C_27
REMARK   10  A    between atoms: C_31  and  C_33
REMARK   11  A    between atoms: C_31  and  C_34
REMARK                            x       y       z     vdW  Elec       q    Type
REMARK                         _______ _______ _______ _____ _____    ______ ____
ROOT
ATOM      1  C   UNL     1       2.326  -4.741  -4.025  0.00  0.00    +0.171 A 
ATOM      2  N   UNL     1       2.516  -6.051  -4.348  0.00  0.00    -0.302 N 
ATOM      3  H   UNL     1       2.189  -6.747  -3.758  0.00  0.00    +0.171 HD
ATOM      4  C   UNL     1       3.158  -6.381  -5.489  0.00  0.00    +0.258 A 
ATOM      5  O   UNL     1       3.330  -7.552  -5.789  0.00  0.00    -0.267 OA
ATOM      6  C   UNL     1       3.624  -5.356  -6.320  0.00  0.00    +0.069 A 
ATOM      7  C   UNL     1       3.410  -4.041  -5.943  0.00  0.00    +0.135 A 
ATOM      8  N   UNL     1       2.757  -3.772  -4.807  0.00  0.00    -0.208 NA
ATOM      9  N   UNL     1       3.870  -3.016  -6.746  0.00  0.00    -0.302 N 
ATOM     10  C   UNL     1       4.847  -3.244  -7.676  0.00  0.00    +0.017 C 
ATOM     11  C   UNL     1       5.110  -4.493  -8.114  0.00  0.00    +0.024 C 
ATOM     12  C   UNL     1       4.338  -5.681  -7.598  0.00  0.00    +0.096 C 
ATOM     13  C   UNL     1       6.110  -4.728  -9.074  0.00  0.00    +0.162 C 
ATOM     14  O   UNL     1       6.336  -5.867  -9.433  0.00  0.00    -0.292 OA
ATOM     15  C   UNL     1       6.907  -3.598  -9.665  0.00  0.00    +0.086 C 
ATOM     16  C   UNL     1       6.059  -2.322  -9.639  0.00  0.00    -0.023 C 
ATOM     17  C   UNL     1       5.626  -2.060  -8.194  0.00  0.00    +0.058 C 
ATOM     18  C   UNL     1       4.823  -2.507 -10.521  0.00  0.00    +0.011 C 
ATOM     19  C   UNL     1       6.887  -1.142 -10.151  0.00  0.00    +0.011 C 
ATOM     20  H   UNL     1       3.497  -2.126  -6.649  0.00  0.00    +0.153 HD
ENDROOT
BRANCH  12  21
ATOM     21  C   UNL     1       3.327  -6.102  -8.634  0.00  0.00    +0.006 A 
ATOM     22  C   UNL     1       2.330  -5.227  -9.022  0.00  0.00    +0.008 A 
ATOM     23  C   UNL     1       1.403  -5.612  -9.972  0.00  0.00    +0.001 A 
ATOM     24  C   UNL     1       1.471  -6.873 -10.537  0.00  0.00    +0.004 A 
ATOM     25  C   UNL     1       2.466  -7.750 -10.153  0.00  0.00    +0.046 A 
ATOM     26  C   UNL     1       3.401  -7.364  -9.204  0.00  0.00    +0.124 A 
BRANCH  26  27
ATOM     27  O   UNL     1       4.385  -8.224  -8.828  0.00  0.00    -0.495 OA
ATOM     28  C   UNL     1       4.399  -9.507  -9.456  0.00  0.00    +0.277 C 
ENDBRANCH  26  27
ENDBRANCH  12  21
BRANCH   1  29
ATOM     29  S   UNL     1       1.480  -4.335  -2.534  0.00  0.00    -0.088 S 
BRANCH  29  30
ATOM     30  C   UNL     1       1.455  -2.521  -2.524  0.00  0.00    +0.077 C 
BRANCH  30  31
ATOM     31  C   UNL     1       0.739  -2.027  -1.265  0.00  0.00    +0.011 C 
BRANCH  31  32
ATOM     32  C   UNL     1       0.718  -0.497  -1.257  0.00  0.00    +0.001 C 
BRANCH  32  34
ATOM     33  C   UNL     1      -0.019   1.526   0.010  0.00  0.00    +0.004 C 
ATOM     34  C   UNL     1       0.002  -0.004   0.002  0.00  0.00    -0.003 C 
ENDBRANCH  32  34
ENDBRANCH  31  32
ENDBRANCH  30  31
ENDBRANCH  29  30
ENDBRANCH   1  29
TORSDOF 7
