REMARK  Name = ZINC13142813
REMARK  5 active torsions:
REMARK  status: ('A' for Active; 'I' for Inactive)
REMARK    1  A    between atoms: C_1  and  C_2
REMARK    2  A    between atoms: C_4  and  C_8
REMARK    3  A    between atoms: N_13  and  N_14
REMARK    4  A    between atoms: C_15  and  C_16
REMARK    5  A    between atoms: C_18  and  N_23
REMARK                            x       y       z     vdW  Elec       q    Type
REMARK                         _______ _______ _______ _____ _____    ______ ____
ROOT
ATOM      1  C   UNL     1       0.060  -3.327   1.353  0.00  0.00    +0.203 A 
ATOM      2  N   UNL     1       0.354  -3.448   2.681  0.00  0.00    -0.125 NA
ATOM      3  N   UNL     1       0.280  -4.685   3.025  0.00  0.00    -0.119 NA
ATOM      4  C   UNL     1      -0.068  -5.440   1.942  0.00  0.00    +0.223 A 
ATOM      5  S   UNL     1      -0.279  -7.086   1.919  0.00  0.00    -0.007 SA
ATOM      6  N   UNL     1      -0.215  -4.588   0.878  0.00  0.00    -0.185 N 
ENDROOT
BRANCH   1  10
ATOM      7  C   UNL     1      -0.018   1.503   0.010  0.00  0.00    +0.067 C 
ATOM      8  C   UNL     1       0.002  -0.004   0.002  0.00  0.00    +0.060 A 
ATOM      9  C   UNL     1       0.024  -0.819   1.119  0.00  0.00    +0.055 A 
ATOM     10  C   UNL     1       0.036  -2.142   0.614  0.00  0.00    +0.105 A 
ATOM     11  N   UNL     1       0.021  -2.015  -0.760  0.00  0.00    -0.274 N 
ATOM     12  N   UNL     1      -0.003  -0.769  -1.071  0.00  0.00    -0.179 NA
ATOM     13  H   UNL     1       0.025  -2.751  -1.391  0.00  0.00    +0.189 HD
ENDBRANCH   1  10
BRANCH   6  14
ATOM     14  N   UNL     1      -0.572  -4.934  -0.433  0.00  0.00    -0.170 NA
ATOM     15  C   UNL     1       0.348  -5.233  -1.298  0.00  0.00    +0.142 C 
BRANCH  15  16
ATOM     16  C   UNL     1      -0.027  -5.597  -2.676  0.00  0.00    +0.015 A 
ATOM     17  C   UNL     1       0.961  -5.925  -3.609  0.00  0.00    +0.043 A 
ATOM     18  C   UNL     1       0.603  -6.265  -4.897  0.00  0.00    +0.127 A 
ATOM     19  C   UNL     1      -0.731  -6.280  -5.267  0.00  0.00    +0.034 A 
ATOM     20  C   UNL     1      -1.714  -5.957  -4.350  0.00  0.00    +0.023 A 
ATOM     21  C   UNL     1      -1.372  -5.620  -3.056  0.00  0.00    +0.050 A 
ATOM     22 CL   UNL     1      -2.608  -5.221  -1.904  0.00  0.00    -0.083 Cl
BRANCH  18  23
ATOM     23  N   UNL     1       1.647  -6.613  -5.886  0.00  0.00    +0.056 N 
ATOM     24  O   UNL     1       2.917  -6.598  -5.535  0.00  0.00    -0.126 OA
ATOM     25  O   UNL     1       1.308  -6.938  -7.116  0.00  0.00    -0.126 OA
ENDBRANCH  18  23
ENDBRANCH  15  16
ENDBRANCH   6  14
TORSDOF 4
