REMARK  Name = ZINC64416687
REMARK  13 active torsions:
REMARK  status: ('A' for Active; 'I' for Inactive)
REMARK    1  A    between atoms: C_1  and  C_2
REMARK    2  A    between atoms: C_7  and  O_33
REMARK    3  A    between atoms: C_13  and  C_15
REMARK    4  A    between atoms: C_15  and  C_16
REMARK    5  A    between atoms: C_16  and  C_17
REMARK    6  A    between atoms: N_19  and  C_20
REMARK    7  A    between atoms: C_20  and  C_21
REMARK    8  A    between atoms: C_21  and  C_22
REMARK    9  A    between atoms: C_26  and  O_31
REMARK   10  A    between atoms: O_31  and  C_32
REMARK   11  A    between atoms: O_33  and  C_34
REMARK   12  A    between atoms: C_34  and  C_35
REMARK   13  A    between atoms: C_35  and  C_37
REMARK                            x       y       z     vdW  Elec       q    Type
REMARK                         _______ _______ _______ _____ _____    ______ ____
ROOT
ATOM      1  C   UNL     1       2.687  -0.127   2.764  0.00  0.00    +0.096 C 
ENDROOT
BRANCH   1   2
ATOM      2  C   UNL     1       3.949   0.670   2.970  0.00  0.00    +0.213 C 
ATOM      3  O   UNL     1       4.283   1.498   2.149  0.00  0.00    -0.276 OA
ATOM      4  N   UNL     1       4.706   0.463   4.065  0.00  0.00    -0.315 N 
ATOM      5  H   UNL     1       4.438  -0.199   4.721  0.00  0.00    +0.149 HD
BRANCH   4   6
ATOM      6  C   UNL     1       5.933   1.238   4.265  0.00  0.00    +0.108 C 
BRANCH   6   7
ATOM      7  C   UNL     1       6.598   0.811   5.575  0.00  0.00    +0.052 C 
BRANCH   7   8
ATOM      8  C   UNL     1       7.860   1.609   5.780  0.00  0.00    -0.040 C 
ATOM      9  C   UNL     1       7.996   2.740   6.506  0.00  0.00    -0.001 A 
ATOM     10  C   UNL     1       7.044   3.537   7.291  0.00  0.00    +0.013 A 
ATOM     11  C   UNL     1       7.481   4.647   7.923  0.00  0.00    +0.046 A 
ATOM     12  C   UNL     1       8.825   5.059   7.847  0.00  0.00    +0.122 A 
ATOM     13  C   UNL     1       9.760   4.373   7.141  0.00  0.00    +0.071 A 
ATOM     14  C   UNL     1       9.405   3.193   6.441  0.00  0.00    +0.046 A 
ATOM     15  N   UNL     1      10.112   2.370   5.702  0.00  0.00    -0.380 N 
ATOM     16  C   UNL     1       9.231   1.300   5.222  0.00  0.00    +0.144 C 
ATOM     17  H   UNL     1      11.059   2.453   5.509  0.00  0.00    +0.160 HD
BRANCH  12  18
ATOM     18  O   UNL     1       9.201   6.184   8.504  0.00  0.00    -0.495 OA
ATOM     19  C   UNL     1       8.187   6.877   9.235  0.00  0.00    +0.277 C 
ENDBRANCH  12  18
ENDBRANCH   7   8
ENDBRANCH   6   7
ENDBRANCH   4   6
ENDBRANCH   1   2
BRANCH   1  20
ATOM     20  C   UNL     1       2.021   0.300   1.454  0.00  0.00    +0.024 C 
BRANCH  20  32
ATOM     21  C   UNL     1      -0.019   1.526   0.010  0.00  0.00    +0.013 C 
ATOM     22  C   UNL     1       0.002  -0.004   0.002  0.00  0.00    +0.033 C 
ATOM     23  C   UNL     1       0.705  -0.489  -1.241  0.00  0.00    -0.001 A 
ATOM     24  C   UNL     1       0.474   0.181  -2.433  0.00  0.00    +0.011 A 
ATOM     25  C   UNL     1       1.090  -0.230  -3.597  0.00  0.00    +0.046 A 
ATOM     26  C   UNL     1       1.945  -1.323  -3.580  0.00  0.00    +0.124 A 
ATOM     27  C   UNL     1       2.180  -1.994  -2.391  0.00  0.00    +0.092 A 
ATOM     28  C   UNL     1       1.562  -1.575  -1.218  0.00  0.00    +0.139 A 
ATOM     29  O   UNL     1       1.836  -2.249  -0.069  0.00  0.00    -0.425 OA
ATOM     30  C   UNL     1       1.083  -1.967   1.014  0.00  0.00    +0.316 C 
ATOM     31  O   UNL     1       0.701  -2.835   1.762  0.00  0.00    -0.250 OA
ATOM     32  C   UNL     1       0.740  -0.510   1.245  0.00  0.00    +0.106 C 
BRANCH  26  33
ATOM     33  O   UNL     1       2.550  -1.734  -4.725  0.00  0.00    -0.488 OA
BRANCH  33  34
ATOM     34  C   UNL     1       2.260  -0.994  -5.913  0.00  0.00    +0.259 C 
BRANCH  34  35
ATOM     35  C   UNL     1       3.015  -1.591  -7.073  0.00  0.00    -0.043 C 
ATOM     36  C   UNL     1       3.788  -2.632  -6.886  0.00  0.00    +0.011 C 
ATOM     37  C   UNL     1       2.880  -0.990  -8.449  0.00  0.00    +0.042 C 
ENDBRANCH  34  35
ENDBRANCH  33  34
ENDBRANCH  26  33
ENDBRANCH  20  32
ENDBRANCH   1  20
TORSDOF 10
