REMARK  Name = ZINC59816752
REMARK  6 active torsions:
REMARK  status: ('A' for Active; 'I' for Inactive)
REMARK    1  A    between atoms: C_4  and  C_7
REMARK    2  A    between atoms: C_10  and  C_12
REMARK    3  A    between atoms: C_12  and  S_13
REMARK    4  A    between atoms: S_13  and  C_14
REMARK    5  A    between atoms: N_19  and  N_20
REMARK    6  A    between atoms: C_21  and  C_22
REMARK                            x       y       z     vdW  Elec       q    Type
REMARK                         _______ _______ _______ _____ _____    ______ ____
ROOT
ATOM      1  C   UNL     1       6.915  -5.715   1.435  0.00  0.00    +0.211 A 
ATOM      2  N   UNL     1       7.328  -6.503   2.434  0.00  0.00    -0.186 NA
ATOM      3  C   UNL     1       7.899  -7.581   1.941  0.00  0.00    +0.232 A 
ATOM      4  N   UNL     1       7.858  -7.496   0.594  0.00  0.00    -0.245 N 
ATOM      5  N   UNL     1       7.214  -6.285   0.292  0.00  0.00    -0.144 NA
ATOM      6  N   UNL     1       8.445  -8.620   2.674  0.00  0.00    -0.205 N 
ATOM      7  H   UNL     1       8.846  -9.376   2.218  0.00  0.00    +0.177 HD
ATOM      8  H   UNL     1       8.202  -8.145  -0.040  0.00  0.00    +0.192 HD
ENDROOT
BRANCH   6   9
ATOM      9  N   UNL     1       8.420  -8.578   4.074  0.00  0.00    -0.188 NA
ATOM     10  C   UNL     1       8.925  -9.539   4.752  0.00  0.00    +0.139 C 
BRANCH  10  11
ATOM     11  C   UNL     1       8.898  -9.495   6.224  0.00  0.00    +0.002 A 
ATOM     12  C   UNL     1       9.364 -10.655   7.006  0.00  0.00    +0.010 A 
ATOM     13  C   UNL     1       9.345 -10.626   8.323  0.00  0.00    +0.009 A 
ATOM     14  C   UNL     1       8.854  -9.426   9.020  0.00  0.00    -0.017 A 
ATOM     15  C   UNL     1       8.819  -9.362  10.491  0.00  0.00    +0.009 A 
ATOM     16  C   UNL     1       8.376  -8.277  11.096  0.00  0.00    +0.009 A 
ATOM     17  C   UNL     1       7.914  -7.126  10.303  0.00  0.00    -0.017 A 
ATOM     18  C   UNL     1       7.415  -5.904  10.958  0.00  0.00    +0.008 A 
ATOM     19  C   UNL     1       7.008  -4.889  10.223  0.00  0.00    +0.001 A 
ATOM     20  C   UNL     1       7.047  -4.966   8.752  0.00  0.00    +0.008 A 
ATOM     21  C   UNL     1       7.492  -6.055   8.164  0.00  0.00    -0.017 A 
ATOM     22  C   UNL     1       7.946  -7.186   8.993  0.00  0.00    -0.002 A 
ATOM     23  C   UNL     1       8.440  -8.398   8.317  0.00  0.00    -0.002 A 
ATOM     24  C   UNL     1       8.464  -8.420   6.843  0.00  0.00    -0.008 A 
ATOM     25  C   UNL     1       7.996  -7.243   6.097  0.00  0.00    +0.010 A 
ATOM     26  C   UNL     1       7.546  -6.167   6.699  0.00  0.00    +0.009 A 
ENDBRANCH  10  11
ENDBRANCH   6   9
BRANCH   1  27
ATOM     27  S   UNL     1       6.096  -4.166   1.623  0.00  0.00    -0.075 S 
BRANCH  27  28
ATOM     28  C   UNL     1       5.802  -3.616  -0.080  0.00  0.00    +0.175 C 
BRANCH  28  32
ATOM     29  C   UNL     1       3.579  -0.755  -0.037  0.00  0.00    +0.248 A 
ATOM     30  N   UNL     1       4.765  -0.194  -0.041  0.00  0.00    -0.107 NA
ATOM     31  N   UNL     1       5.667  -1.111  -0.056  0.00  0.00    -0.111 NA
ATOM     32  C   UNL     1       5.097  -2.284  -0.063  0.00  0.00    +0.228 A 
ATOM     33  O   UNL     1       3.767  -2.090  -0.046  0.00  0.00    -0.419 OA
BRANCH  29  37
ATOM     34  C   UNL     1      -0.160   1.261   0.011  0.00  0.00    +0.000 A 
ATOM     35  C   UNL     1       1.015   1.990   0.002  0.00  0.00    +0.001 A 
ATOM     36  C   UNL     1       2.233   1.341  -0.013  0.00  0.00    +0.013 A 
ATOM     37  C   UNL     1       2.277  -0.053  -0.020  0.00  0.00    +0.038 A 
ATOM     38  C   UNL     1       1.088  -0.783  -0.012  0.00  0.00    +0.013 A 
ATOM     39  C   UNL     1      -0.123  -0.122   0.003  0.00  0.00    +0.001 A 
ENDBRANCH  29  37
ENDBRANCH  28  32
ENDBRANCH  27  28
ENDBRANCH   1  27
TORSDOF 6
