REMARK  Name = ZINC02250257
REMARK  12 active torsions:
REMARK  status: ('A' for Active; 'I' for Inactive)
REMARK    1  A    between atoms: C_1  and  C_2
REMARK    2  A    between atoms: C_2  and  N_57
REMARK    3  A    between atoms: C_3  and  C_4
REMARK    4  A    between atoms: C_3  and  N_57
REMARK    5  A    between atoms: C_5  and  C_6
REMARK    6  A    between atoms: C_5  and  N_57
REMARK    7  A    between atoms: C_6  and  C_7
REMARK    8  A    between atoms: C_7  and  N_8
REMARK    9  A    between atoms: C_9  and  C_30
REMARK   10  A    between atoms: C_15  and  C_23
REMARK   11  A    between atoms: C_17  and  C_21
REMARK   12  A    between atoms: C_18  and  N_20
REMARK                            x       y       z     vdW  Elec       q    Type
REMARK                         _______ _______ _______ _____ _____    ______ ____
ROOT
ATOM      1  N   UNL     1      -0.582   4.683  -0.373  0.00  0.00    -0.312 N 
ATOM      2  C   UNL     1       0.424   5.536  -0.699  0.00  0.00    +0.022 A 
ATOM      3  C   UNL     1       1.694   5.093  -0.826  0.00  0.00    +0.068 A 
ATOM      4  C   UNL     1       1.984   3.729  -0.618  0.00  0.00    +0.141 A 
ATOM      5  C   UNL     1       0.958   2.871  -0.286  0.00  0.00    +0.072 A 
ATOM      6  C   UNL     1      -0.345   3.374  -0.171  0.00  0.00    +0.259 A 
ATOM      7  O   UNL     1      -1.265   2.624   0.117  0.00  0.00    -0.267 OA
ATOM      8  C   UNL     1       1.222   1.408  -0.055  0.00  0.00    +0.103 C 
ATOM      9  C   UNL     1       2.565   1.030  -0.617  0.00  0.00    +0.098 C 
ATOM     10  C   UNL     1       3.487   1.972  -0.925  0.00  0.00    +0.199 C 
ATOM     11  O   UNL     1       3.252   3.284  -0.745  0.00  0.00    -0.441 OA
ATOM     12  C   UNL     1       0.120   6.994  -0.923  0.00  0.00    +0.064 C 
ENDROOT
BRANCH   8  13
ATOM     13  C   UNL     1       1.203   1.125   1.425  0.00  0.00    -0.034 A 
ATOM     14  C   UNL     1       2.101   1.761   2.262  0.00  0.00    +0.006 A 
ATOM     15  C   UNL     1       2.080   1.506   3.621  0.00  0.00    +0.020 A 
ATOM     16  C   UNL     1       1.168   0.606   4.141  0.00  0.00    +0.041 A 
ATOM     17  C   UNL     1       0.273  -0.034   3.302  0.00  0.00    +0.020 A 
ATOM     18  C   UNL     1       0.291   0.226   1.945  0.00  0.00    +0.006 A 
ATOM     19 CL   UNL     1       1.145   0.281   5.846  0.00  0.00    -0.084 Cl
ENDBRANCH   8  13
BRANCH  10  20
ATOM     20  N   UNL     1       4.698   1.576  -1.435  0.00  0.00    -0.328 N 
ATOM     21  H   UNL     1       4.883   0.633  -1.571  0.00  0.00    +0.145 HD
ATOM     22  H   UNL     1       5.370   2.239  -1.661  0.00  0.00    +0.145 HD
ENDBRANCH  10  20
BRANCH   9  23
ATOM     23  C   UNL     1       2.873  -0.352  -0.831  0.00  0.00    +0.101 C 
ATOM     24  N   UNL     1       3.117  -1.448  -1.000  0.00  0.00    -0.191 NA
ENDBRANCH   9  23
BRANCH   1  25
ATOM     25  C   UNL     1      -1.948   5.196  -0.245  0.00  0.00    +0.123 C 
BRANCH  25  26
ATOM     26  C   UNL     1      -2.654   5.112  -1.600  0.00  0.00    +0.003 C 
BRANCH  26  27
ATOM     27  C   UNL     1      -4.081   5.648  -1.466  0.00  0.00    -0.077 C 
BRANCH  27  28
ATOM     28  N   UNL     1      -4.742   5.580  -2.786  0.00  0.00    +0.379 N 
ATOM     29  H   UNL     1      -4.141   6.034  -3.484  0.00  0.00    -0.082 HD
BRANCH  28  31
ATOM     30  C   UNL     1      -5.820   3.449  -2.145  0.00  0.00    -0.017 C 
ATOM     31  C   UNL     1      -4.948   4.169  -3.175  0.00  0.00    -0.082 C 
ENDBRANCH  28  31
BRANCH  28  32
ATOM     32  C   UNL     1      -6.040   6.285  -2.738  0.00  0.00    -0.082 C 
ATOM     33  C   UNL     1      -6.526   6.519  -4.170  0.00  0.00    -0.017 C 
ENDBRANCH  28  32
ENDBRANCH  27  28
ENDBRANCH  26  27
ENDBRANCH  25  26
ENDBRANCH   1  25
TORSDOF 9
