REMARK  Name = ZINC39232305
REMARK  8 active torsions:
REMARK  status: ('A' for Active; 'I' for Inactive)
REMARK    1  A    between atoms: C_1  and  C_2
REMARK    2  A    between atoms: C_4  and  C_16
REMARK    3  A    between atoms: C_8  and  O_14
REMARK    4  A    between atoms: N_12  and  C_13
REMARK    5  A    between atoms: O_14  and  C_15
REMARK    6  A    between atoms: C_22  and  C_24
REMARK    7  A    between atoms: C_24  and  C_25
REMARK    8  A    between atoms: C_25  and  C_26
REMARK                            x       y       z     vdW  Elec       q    Type
REMARK                         _______ _______ _______ _____ _____    ______ ____
ROOT
ATOM      1  C   UNL     1      -1.691  -1.442  -1.145  0.00  0.00    +0.060 A 
ATOM      2  C   UNL     1      -1.353  -2.755  -1.139  0.00  0.00    +0.072 A 
ATOM      3  S   UNL     1      -1.893  -3.244  -2.769  0.00  0.00    -0.060 S 
ATOM      4  C   UNL     1      -2.482  -1.752  -3.277  0.00  0.00    +0.165 A 
ATOM      5  N   UNL     1      -2.263  -0.974  -2.239  0.00  0.00    -0.229 NA
ATOM      6  N   UNL     1      -3.063  -1.422  -4.496  0.00  0.00    -0.265 N 
ATOM      7  C   UNL     1      -3.211  -2.364  -5.449  0.00  0.00    +0.219 C 
ATOM      8  O   UNL     1      -2.838  -3.499  -5.243  0.00  0.00    -0.275 OA
ATOM      9  H   UNL     1      -3.362  -0.514  -4.661  0.00  0.00    +0.157 HD
ENDROOT
BRANCH   1  12
ATOM     10  C   UNL     1      -0.019   1.526   0.010  0.00  0.00    +0.029 C 
ATOM     11  C   UNL     1       0.002  -0.004   0.002  0.00  0.00    +0.083 C 
ATOM     12  C   UNL     1      -1.432  -0.557   0.047  0.00  0.00    +0.090 C 
ATOM     13  C   UNL     1      -1.490  -1.361   1.326  0.00  0.00    -0.012 A 
ATOM     14  C   UNL     1      -2.521  -2.086   1.894  0.00  0.00    +0.051 A 
ATOM     15  C   UNL     1      -2.325  -2.749   3.096  0.00  0.00    +0.120 A 
ATOM     16  C   UNL     1      -1.091  -2.682   3.725  0.00  0.00    +0.047 A 
ATOM     17  C   UNL     1      -0.063  -1.959   3.159  0.00  0.00    +0.027 A 
ATOM     18  C   UNL     1      -0.254  -1.289   1.949  0.00  0.00    +0.034 A 
ATOM     19  N   UNL     1       0.650  -0.510   1.215  0.00  0.00    -0.329 N 
ATOM     20  C   UNL     1       2.037  -0.240   1.602  0.00  0.00    +0.129 C 
BRANCH  15  21
ATOM     21  O   UNL     1      -3.339  -3.462   3.655  0.00  0.00    -0.495 OA
ATOM     22  C   UNL     1      -3.064  -4.118   4.894  0.00  0.00    +0.277 C 
ENDBRANCH  15  21
ENDBRANCH   1  12
BRANCH   7  23
ATOM     23  C   UNL     1      -3.841  -2.007  -6.770  0.00  0.00    +0.101 C 
BRANCH  23  24
ATOM     24  C   UNL     1      -3.889  -3.247  -7.665  0.00  0.00    +0.046 C 
BRANCH  24  25
ATOM     25  C   UNL     1      -4.519  -2.890  -8.986  0.00  0.00    -0.022 A 
ATOM     26  C   UNL     1      -3.838  -2.316 -10.149  0.00  0.00    +0.003 A 
ATOM     27  C   UNL     1      -2.520  -1.942 -10.415  0.00  0.00    +0.010 A 
ATOM     28  C   UNL     1      -2.195  -1.423 -11.637  0.00  0.00    +0.001 A 
ATOM     29  C   UNL     1      -3.166  -1.263 -12.616  0.00  0.00    +0.002 A 
ATOM     30  C   UNL     1      -4.473  -1.625 -12.374  0.00  0.00    +0.026 A 
ATOM     31  C   UNL     1      -4.826  -2.157 -11.139  0.00  0.00    +0.047 A 
ATOM     32  N   UNL     1      -6.013  -2.604 -10.603  0.00  0.00    -0.360 N 
ATOM     33  C   UNL     1      -5.810  -3.042  -9.322  0.00  0.00    +0.087 A 
ATOM     34  H   UNL     1      -6.866  -2.611 -11.065  0.00  0.00    +0.165 HD
ENDBRANCH  24  25
ENDBRANCH  23  24
ENDBRANCH   7  23
TORSDOF 5
