REMARK  Name = ZINC16040123
REMARK  11 active torsions:
REMARK  status: ('A' for Active; 'I' for Inactive)
REMARK    1  A    between atoms: C_1  and  C_2
REMARK    2  A    between atoms: C_8  and  C_9
REMARK    3  A    between atoms: C_8  and  N_75
REMARK    4  A    between atoms: C_10  and  C_14
REMARK    5  A    between atoms: C_14  and  C_15
REMARK    6  A    between atoms: C_15  and  C_16
REMARK    7  A    between atoms: C_24  and  C_34
REMARK    8  A    between atoms: C_28  and  C_29
REMARK    9  A    between atoms: C_28  and  C_30
REMARK   10  A    between atoms: C_30  and  O_32
REMARK   11  A    between atoms: O_32  and  C_33
REMARK                            x       y       z     vdW  Elec       q    Type
REMARK                         _______ _______ _______ _____ _____    ______ ____
ROOT
ATOM      1  C   UNL     1       0.409   3.378   0.539  0.00  0.00    +0.021 C 
ATOM      2  C   UNL     1      -0.895   2.629   0.487  0.00  0.00    -0.073 C 
ATOM      3  C   UNL     1      -1.011   1.417   0.970  0.00  0.00    +0.008 C 
ATOM      4  C   UNL     1      -2.073   3.337  -0.142  0.00  0.00    +0.031 C 
ATOM      5  C   UNL     1      -1.642   3.777  -1.549  0.00  0.00    +0.009 C 
ATOM      6  C   UNL     1      -0.408   4.689  -1.484  0.00  0.00    +0.012 C 
ATOM      7  C   UNL     1       0.761   3.958  -0.841  0.00  0.00    -0.022 C 
ATOM      8  C   UNL     1       1.243   2.817  -1.737  0.00  0.00    +0.007 C 
ATOM      9  C   UNL     1       1.644   3.358  -3.107  0.00  0.00    +0.002 C 
ATOM     10  C   UNL     1       0.447   4.036  -3.766  0.00  0.00    +0.018 C 
ATOM     11  C   UNL     1      -0.104   5.168  -2.904  0.00  0.00    +0.068 C 
ATOM     12  C   UNL     1       0.848   6.367  -2.936  0.00  0.00    +0.023 C 
ATOM     13  C   UNL     1       1.943   4.904  -0.566  0.00  0.00    +0.012 C 
ENDROOT
BRANCH  11  14
ATOM     14  C   UNL     1      -1.385   5.657  -3.568  0.00  0.00    +0.313 C 
ATOM     15  O   UNL     1      -1.778   5.131  -4.582  0.00  0.00    -0.250 OA
BRANCH  14  16
ATOM     16  O   UNL     1      -2.077   6.671  -3.026  0.00  0.00    -0.468 OA
ATOM     17  C   UNL     1      -3.288   7.084  -3.713  0.00  0.00    +0.280 C 
ENDBRANCH  14  16
ENDBRANCH  11  14
BRANCH   1  18
ATOM     18  C   UNL     1       0.333   4.508   1.567  0.00  0.00    +0.013 C 
BRANCH  18  19
ATOM     19  C   UNL     1       0.148   3.914   2.965  0.00  0.00    +0.039 C 
BRANCH  19  21
ATOM     20  C   UNL     1      -1.024   5.725   4.323  0.00  0.00    +0.092 A 
ATOM     21  C   UNL     1       0.074   5.028   3.977  0.00  0.00    -0.008 A 
ATOM     22  C   UNL     1       1.143   5.537   4.750  0.00  0.00    +0.045 A 
ATOM     23  C   UNL     1       0.636   6.520   5.516  0.00  0.00    +0.195 A 
ATOM     24  O   UNL     1      -0.677   6.627   5.255  0.00  0.00    -0.469 OA
BRANCH  20  25
ATOM     25  C   UNL     1      -2.407   5.527   3.760  0.00  0.00    -0.003 C 
BRANCH  25  32
ATOM     26  C   UNL     1      -4.679   4.251   2.697  0.00  0.00    -0.013 C 
ATOM     27  C   UNL     1      -4.551   4.492   4.203  0.00  0.00    -0.071 C 
ATOM     28  C   UNL     1      -5.239   3.356   4.962  0.00  0.00    -0.016 C 
ATOM     29  C   UNL     1      -5.091   3.592   6.468  0.00  0.00    -0.003 C 
ATOM     30  C   UNL     1      -3.603   3.684   6.818  0.00  0.00    -0.019 C 
ATOM     31  C   UNL     1      -2.962   4.811   6.005  0.00  0.00    -0.078 C 
ATOM     32  N   UNL     1      -3.117   4.512   4.565  0.00  0.00    +0.386 N 
ATOM     33  H   UNL     1      -2.712   3.589   4.371  0.00  0.00    -0.081 HD
ENDBRANCH  25  32
ENDBRANCH  20  25
ENDBRANCH  19  21
ENDBRANCH  18  19
ENDBRANCH   1  18
TORSDOF 7
