REMARK  Name = ZINC39466936
REMARK  8 active torsions:
REMARK  status: ('A' for Active; 'I' for Inactive)
REMARK    1  A    between atoms: C_1  and  C_2
REMARK    2  A    between atoms: C_2  and  O_3
REMARK    3  A    between atoms: O_3  and  C_4
REMARK    4  A    between atoms: P_13  and  C_32
REMARK    5  A    between atoms: C_21  and  S_22
REMARK    6  A    between atoms: S_22  and  O_25
REMARK    7  A    between atoms: O_25  and  C_26
REMARK    8  A    between atoms: C_32  and  C_33
REMARK                            x       y       z     vdW  Elec       q    Type
REMARK                         _______ _______ _______ _____ _____    ______ ____
ROOT
ATOM      1  C   UNL     1      -1.728  -2.171   0.425  0.00  0.00    +0.145 C 
ATOM      2  C   UNL     1      -0.791  -3.108   0.615  0.00  0.00    +0.024 C 
ATOM      3  C   UNL     1      -1.223  -4.541   0.764  0.00  0.00    +0.019 C 
ATOM      4  C   UNL     1      -0.178  -5.369   1.505  0.00  0.00    -0.002 C 
ATOM      5  C   UNL     1      -0.685  -6.809   1.663  0.00  0.00    -0.020 C 
ATOM      6  C   UNL     1       0.390  -7.588   2.432  0.00  0.00    +0.156 C 
ATOM      7  O   UNL     1      -0.001  -8.970   2.529  0.00  0.00    -0.319 OA
ATOM      8  P   UNL     1      -1.503  -9.296   3.064  0.00  0.00    +0.262 P 
ATOM      9  O   UNL     1      -1.550  -9.219   4.541  0.00  0.00    -0.274 OA
ATOM     10  N   UNL     1      -2.463  -8.129   2.399  0.00  0.00    -0.291 NA
ATOM     11  N   UNL     1      -1.960  -6.844   2.378  0.00  0.00    +0.397 N 
ATOM     12  C   UNL     1      -2.982  -6.030   1.697  0.00  0.00    -0.046 C 
ATOM     13  C   UNL     1      -2.523  -4.584   1.578  0.00  0.00    +0.006 C 
ATOM     14  C   UNL     1      -3.546  -3.710   0.906  0.00  0.00    +0.009 C 
ATOM     15  C   UNL     1      -3.150  -2.562   0.361  0.00  0.00    +0.165 C 
ATOM     16  H   UNL     1      -3.342  -8.342   2.049  0.00  0.00    +0.111 HD
ATOM     17  H   UNL     1      -1.828  -6.504   3.319  0.00  0.00    -0.055 HD
ENDROOT
BRANCH  15  18
ATOM     18  S   UNL     1      -4.321  -1.517  -0.440  0.00  0.00    +0.154 S 
ATOM     19  O   UNL     1      -5.591  -2.132  -0.280  0.00  0.00    -0.131 OA
ATOM     20  O   UNL     1      -4.054  -0.194   0.004  0.00  0.00    -0.131 OA
BRANCH  18  21
ATOM     21  O   UNL     1      -4.007  -1.548  -1.929  0.00  0.00    -0.342 OA
BRANCH  21  22
ATOM     22  C   UNL     1      -4.377  -2.700  -2.548  0.00  0.00    +0.157 A 
ATOM     23  C   UNL     1      -3.488  -3.761  -2.631  0.00  0.00    +0.048 A 
ATOM     24  C   UNL     1      -3.867  -4.931  -3.260  0.00  0.00    +0.004 A 
ATOM     25  C   UNL     1      -5.131  -5.045  -3.807  0.00  0.00    +0.000 A 
ATOM     26  C   UNL     1      -6.020  -3.989  -3.726  0.00  0.00    +0.004 A 
ATOM     27  C   UNL     1      -5.648  -2.819  -3.092  0.00  0.00    +0.048 A 
ENDBRANCH  21  22
ENDBRANCH  18  21
ENDBRANCH  15  18
BRANCH   1  28
ATOM     28  O   UNL     1      -1.373  -0.865   0.299  0.00  0.00    -0.491 OA
BRANCH  28  30
ATOM     29  C   UNL     1       0.229   0.933   0.100  0.00  0.00    +0.048 C 
ATOM     30  C   UNL     1       0.026  -0.575   0.260  0.00  0.00    +0.226 C 
ENDBRANCH  28  30
ENDBRANCH   1  28
BRANCH   8  31
ATOM     31  C   UNL     1      -2.029 -10.949   2.501  0.00  0.00    +0.147 C 
BRANCH  31  32
ATOM     32  C   UNL     1      -1.079 -11.988   3.039  0.00  0.00    -0.037 A 
ATOM     33  C   UNL     1       0.041 -12.344   2.310  0.00  0.00    +0.004 A 
ATOM     34  C   UNL     1       0.912 -13.297   2.803  0.00  0.00    +0.000 A 
ATOM     35  C   UNL     1       0.664 -13.894   4.025  0.00  0.00    +0.000 A 
ATOM     36  C   UNL     1      -0.454 -13.537   4.754  0.00  0.00    +0.000 A 
ATOM     37  C   UNL     1      -1.323 -12.581   4.263  0.00  0.00    +0.004 A 
ENDBRANCH  31  32
ENDBRANCH   8  31
TORSDOF 7
