REMARK  Name = ZINC12977362
REMARK  5 active torsions:
REMARK  status: ('A' for Active; 'I' for Inactive)
REMARK    1  A    between atoms: C_1  and  C_2
REMARK    2  A    between atoms: C_2  and  N_3
REMARK    3  A    between atoms: C_7  and  C_12
REMARK    4  A    between atoms: C_17  and  C_21
REMARK    5  A    between atoms: C_18  and  C_20
REMARK                            x       y       z     vdW  Elec       q    Type
REMARK                         _______ _______ _______ _____ _____    ______ ____
ROOT
ATOM      1  C   UNL     1       6.546  -4.200   1.097  0.00  0.00    +0.250 C 
ATOM      2  O   UNL     1       7.383  -3.606   0.445  0.00  0.00    -0.270 OA
ATOM      3  N   UNL     1       5.305  -3.692   1.223  0.00  0.00    -0.261 N 
ATOM      4  C   UNL     1       4.981  -2.490   0.608  0.00  0.00    +0.165 A 
ATOM      5  N   UNL     1       3.836  -1.833   0.611  0.00  0.00    -0.224 NA
ATOM      6  C   UNL     1       3.700  -0.686  -0.038  0.00  0.00    +0.083 A 
ATOM      7  C   UNL     1       4.765  -0.175  -0.726  0.00  0.00    +0.016 A 
ATOM      8  S   UNL     1       6.003  -1.422  -0.397  0.00  0.00    -0.057 S 
ATOM      9  C   UNL     1       4.867   1.091  -1.537  0.00  0.00    +0.054 C 
ATOM     10  H   UNL     1       4.637  -4.166   1.744  0.00  0.00    +0.157 HD
ENDROOT
BRANCH   1  15
ATOM     11  N   UNL     1       8.107  -9.020   3.471  0.00  0.00    -0.244 N 
ATOM     12  C   UNL     1       7.508  -7.882   2.991  0.00  0.00    +0.089 A 
ATOM     13  C   UNL     1       6.229  -7.343   3.111  0.00  0.00    +0.030 A 
ATOM     14  C   UNL     1       5.926  -6.159   2.507  0.00  0.00    +0.015 A 
ATOM     15  C   UNL     1       6.891  -5.479   1.751  0.00  0.00    +0.039 A 
ATOM     16  C   UNL     1       8.172  -6.000   1.619  0.00  0.00    +0.044 A 
ATOM     17  C   UNL     1       8.491  -7.211   2.240  0.00  0.00    +0.113 A 
ATOM     18  N   UNL     1       9.623  -7.952   2.294  0.00  0.00    -0.129 NA
ATOM     19  N   UNL     1       9.428  -9.008   3.002  0.00  0.00    -0.065 NA
BRANCH  11  21
ATOM     20  C   UNL     1       7.682  -9.689   5.784  0.00  0.00    +0.029 C 
ATOM     21  C   UNL     1       7.485 -10.047   4.310  0.00  0.00    +0.142 C 
ENDBRANCH  11  21
ENDBRANCH   1  15
BRANCH   6  22
ATOM     22  C   UNL     1       2.404   0.035  -0.021  0.00  0.00    +0.004 A 
ATOM     23  C   UNL     1       2.379   1.429  -0.013  0.00  0.00    +0.013 A 
ATOM     24  C   UNL     1       1.171   2.096   0.002  0.00  0.00    +0.042 A 
ATOM     25  C   UNL     1      -0.017   1.383   0.010  0.00  0.00    +0.158 A 
ATOM     26  C   UNL     1       0.002  -0.004   0.002  0.00  0.00    +0.159 A 
ATOM     27  C   UNL     1       1.207  -0.680  -0.014  0.00  0.00    +0.051 A 
ATOM     28  F   UNL     1      -1.159  -0.695   0.009  0.00  0.00    -0.202 F 
ATOM     29  F   UNL     1      -1.197   2.041   0.019  0.00  0.00    -0.202 F 
ENDBRANCH   6  22
TORSDOF 3
