REMARK  Name = ZINC12739641
REMARK  6 active torsions:
REMARK  status: ('A' for Active; 'I' for Inactive)
REMARK    1  A    between atoms: C_1  and  C_2
REMARK    2  A    between atoms: C_2  and  C_4
REMARK    3  A    between atoms: C_2  and  N_11
REMARK    4  A    between atoms: N_11  and  C_12
REMARK    5  A    between atoms: C_12  and  C_13
REMARK    6  A    between atoms: C_19  and  C_24
REMARK                            x       y       z     vdW  Elec       q    Type
REMARK                         _______ _______ _______ _____ _____    ______ ____
ROOT
ATOM      1  C   UNL     1       0.620  -0.579  -3.634  0.00  0.00    +0.094 A 
ATOM      2  N   UNL     1       0.077  -0.326  -4.852  0.00  0.00    -0.312 N 
ATOM      3  H   UNL     1      -0.758   0.164  -4.908  0.00  0.00    +0.170 HD
ATOM      4  C   UNL     1       0.676  -0.742  -5.984  0.00  0.00    +0.260 A 
ATOM      5  O   UNL     1       0.176  -0.507  -7.070  0.00  0.00    -0.267 OA
ATOM      6  C   UNL     1       1.908  -1.465  -5.892  0.00  0.00    +0.080 A 
ATOM      7  C   UNL     1       2.737  -2.014  -6.958  0.00  0.00    +0.005 A 
ATOM      8  C   UNL     1       3.876  -2.668  -6.626  0.00  0.00    +0.056 A 
ATOM      9  S   UNL     1       3.898  -2.582  -4.846  0.00  0.00    -0.076 S 
ATOM     10  C   UNL     1       2.392  -1.679  -4.591  0.00  0.00    +0.116 A 
ATOM     11  N   UNL     1       1.745  -1.232  -3.518  0.00  0.00    -0.229 NA
ENDROOT
BRANCH   7  12
ATOM     12  C   UNL     1       2.342  -1.859  -8.378  0.00  0.00    +0.002 A 
ATOM     13  C   UNL     1       2.012  -2.980  -9.139  0.00  0.00    +0.010 A 
ATOM     14  C   UNL     1       1.644  -2.830 -10.460  0.00  0.00    +0.001 A 
ATOM     15  C   UNL     1       1.602  -1.571 -11.031  0.00  0.00    +0.001 A 
ATOM     16  C   UNL     1       1.928  -0.455 -10.283  0.00  0.00    +0.020 A 
ATOM     17  C   UNL     1       2.292  -0.591  -8.957  0.00  0.00    +0.049 A 
ATOM     18 CL   UNL     1       2.694   0.811  -8.016  0.00  0.00    -0.083 Cl
ENDBRANCH   7  12
BRANCH   1  19
ATOM     19  C   UNL     1      -0.086  -0.093  -2.394  0.00  0.00    -0.006 C 
BRANCH  19  20
ATOM     20  N   UNL     1       0.690  -0.478  -1.207  0.00  0.00    +0.388 N 
ATOM     21  H   UNL     1       1.608  -0.063  -1.256  0.00  0.00    -0.084 HD
ATOM     22  H   UNL     1       0.776  -1.482  -1.172  0.00  0.00    -0.084 HD
BRANCH  20  24
ATOM     23  C   UNL     1      -0.019   1.526   0.010  0.00  0.00    -0.009 C 
ATOM     24  C   UNL     1       0.002  -0.004   0.002  0.00  0.00    -0.042 C 
BRANCH  24  25
ATOM     25  C   UNL     1       0.731  -0.503   1.223  0.00  0.00    -0.048 A 
ATOM     26  C   UNL     1       2.077  -0.808   1.148  0.00  0.00    +0.003 A 
ATOM     27  C   UNL     1       2.746  -1.266   2.268  0.00  0.00    +0.000 A 
ATOM     28  C   UNL     1       2.069  -1.419   3.463  0.00  0.00    +0.001 A 
ATOM     29  C   UNL     1       0.723  -1.114   3.539  0.00  0.00    +0.015 A 
ATOM     30  C   UNL     1       0.054  -0.651   2.420  0.00  0.00    +0.019 A 
ATOM     31 BR   UNL     1      -1.786  -0.228   2.525  0.00  0.00    -0.050 Br
ENDBRANCH  24  25
ENDBRANCH  20  24
ENDBRANCH  19  20
ENDBRANCH   1  19
TORSDOF 5
