REMARK  Name = ZINC37254889
REMARK  5 active torsions:
REMARK  status: ('A' for Active; 'I' for Inactive)
REMARK    1  A    between atoms: C_1  and  C_2
REMARK    2  A    between atoms: C_2  and  C_4
REMARK    3  A    between atoms: C_2  and  N_11
REMARK    4  A    between atoms: N_11  and  C_12
REMARK    5  A    between atoms: C_12  and  C_13
REMARK                            x       y       z     vdW  Elec       q    Type
REMARK                         _______ _______ _______ _____ _____    ______ ____
ROOT
ATOM      1  C   UNL     1      -0.019   1.526   0.010  0.00  0.00    -0.009 C 
ATOM      2  C   UNL     1       0.002  -0.004   0.002  0.00  0.00    -0.044 C 
ENDROOT
BRANCH   2   3
ATOM      3  C   UNL     1       0.731  -0.503   1.223  0.00  0.00    -0.062 A 
ATOM      4  C   UNL     1       0.081  -0.558   2.442  0.00  0.00    +0.003 A 
ATOM      5  C   UNL     1       0.749  -1.016   3.562  0.00  0.00    +0.014 A 
ATOM      6  C   UNL     1       2.068  -1.419   3.463  0.00  0.00    +0.013 A 
ATOM      7  C   UNL     1       2.719  -1.364   2.244  0.00  0.00    +0.014 A 
ATOM      8  C   UNL     1       2.048  -0.911   1.123  0.00  0.00    +0.003 A 
ATOM      9  I   UNL     1       3.082  -2.112   5.160  0.00  0.00    -0.044 I 
ENDBRANCH   2   3
BRANCH   2  10
ATOM     10  N   UNL     1      -1.376  -0.512   0.012  0.00  0.00    +0.384 N 
ATOM     11  H   UNL     1      -1.363  -1.518   0.090  0.00  0.00    -0.085 HD
ATOM     12  H   UNL     1      -1.873  -0.121   0.799  0.00  0.00    -0.085 HD
BRANCH  10  13
ATOM     13  C   UNL     1      -2.050  -0.126  -1.234  0.00  0.00    -0.078 C 
BRANCH  13  14
ATOM     14  C   UNL     1      -3.485  -0.656  -1.224  0.00  0.00    -0.028 C 
ATOM     15  C   UNL     1      -3.481  -2.196  -1.303  0.00  0.00    +0.002 C 
ATOM     16  C   UNL     1      -4.701  -2.534  -2.196  0.00  0.00    +0.000 C 
ATOM     17  C   UNL     1      -4.671  -1.406  -3.257  0.00  0.00    +0.000 C 
ATOM     18  C   UNL     1      -4.242  -0.153  -2.466  0.00  0.00    +0.002 C 
ENDBRANCH  13  14
ENDBRANCH  10  13
ENDBRANCH   2  10
TORSDOF 4
