REMARK  Name = ZINC61555586
REMARK  8 active torsions:
REMARK  status: ('A' for Active; 'I' for Inactive)
REMARK    1  A    between atoms: C_1  and  C_2
REMARK    2  A    between atoms: C_2  and  C_3
REMARK    3  A    between atoms: C_2  and  N_9
REMARK    4  A    between atoms: N_9  and  C_10
REMARK    5  A    between atoms: C_10  and  C_11
REMARK    6  A    between atoms: N_13  and  C_25
REMARK    7  A    between atoms: C_15  and  C_16
REMARK    8  A    between atoms: C_19  and  N_22
REMARK                            x       y       z     vdW  Elec       q    Type
REMARK                         _______ _______ _______ _____ _____    ______ ____
ROOT
ATOM      1  C   UNL     1      -3.480  -0.541   1.280  0.00  0.00    -0.019 A 
ATOM      2  C   UNL     1      -4.519   0.237   0.904  0.00  0.00    +0.116 A 
ATOM      3  N   UNL     1      -5.645  -0.521   0.950  0.00  0.00    -0.239 N 
ATOM      4  N   UNL     1      -5.285  -1.808   1.370  0.00  0.00    -0.166 NA
ATOM      5  C   UNL     1      -3.983  -1.826   1.564  0.00  0.00    +0.094 A 
ENDROOT
BRANCH   5   6
ATOM      6  C   UNL     1      -3.184  -2.995   2.008  0.00  0.00    +0.002 A 
ATOM      7  C   UNL     1      -3.424  -4.254   1.461  0.00  0.00    +0.012 A 
ATOM      8  C   UNL     1      -2.678  -5.338   1.877  0.00  0.00    +0.033 A 
ATOM      9  C   UNL     1      -1.694  -5.176   2.835  0.00  0.00    +0.126 A 
ATOM     10  C   UNL     1      -1.451  -3.929   3.382  0.00  0.00    +0.033 A 
ATOM     11  C   UNL     1      -2.188  -2.837   2.969  0.00  0.00    +0.012 A 
BRANCH   9  12
ATOM     12  N   UNL     1      -0.897  -6.343   3.278  0.00  0.00    +0.056 N 
ATOM     13  O   UNL     1      -1.107  -7.434   2.802  0.00  0.00    -0.126 OA
ATOM     14  O   UNL     1      -0.036  -6.204   4.115  0.00  0.00    -0.126 OA
ENDBRANCH   9  12
ENDBRANCH   5   6
BRANCH   3  15
ATOM     15  C   UNL     1      -6.941  -0.090   0.635  0.00  0.00    +0.065 A 
ATOM     16  C   UNL     1      -7.159   1.219   0.226  0.00  0.00    +0.028 A 
ATOM     17  C   UNL     1      -8.437   1.640  -0.085  0.00  0.00    +0.002 A 
ATOM     18  C   UNL     1      -9.499   0.759   0.012  0.00  0.00    +0.000 A 
ATOM     19  C   UNL     1      -9.285  -0.544   0.419  0.00  0.00    +0.002 A 
ATOM     20  C   UNL     1      -8.009  -0.973   0.726  0.00  0.00    +0.028 A 
ENDBRANCH   3  15
BRANCH   1  21
ATOM     21  C   UNL     1      -2.039  -0.111   1.373  0.00  0.00    -0.042 C 
BRANCH  21  22
ATOM     22  N   UNL     1      -1.296  -0.637   0.221  0.00  0.00    +0.387 N 
ATOM     23  H   UNL     1      -1.644  -0.213  -0.626  0.00  0.00    -0.085 HD
ATOM     24  H   UNL     1      -1.417  -1.638   0.170  0.00  0.00    -0.085 HD
BRANCH  22  26
ATOM     25  C   UNL     1       0.329   1.192   0.325  0.00  0.00    -0.007 C 
ATOM     26  C   UNL     1       0.132  -0.324   0.374  0.00  0.00    -0.025 C 
BRANCH  26  27
ATOM     27  C   UNL     1       0.910  -0.968  -0.744  0.00  0.00    +0.027 A 
ATOM     28  C   UNL     1       2.246  -1.272  -0.560  0.00  0.00    +0.021 A 
ATOM     29  C   UNL     1       2.953  -1.865  -1.595  0.00  0.00    +0.003 A 
ATOM     30  C   UNL     1       2.287  -2.131  -2.782  0.00  0.00    +0.020 A 
ATOM     31  C   UNL     1       0.950  -1.799  -2.893  0.00  0.00    +0.111 A 
ATOM     32  N   UNL     1       0.308  -1.241  -1.885  0.00  0.00    -0.262 NA
ENDBRANCH  26  27
ENDBRANCH  22  26
ENDBRANCH  21  22
ENDBRANCH   1  21
TORSDOF 7
