REMARK  Name = ZINC17161244
REMARK  6 active torsions:
REMARK  status: ('A' for Active; 'I' for Inactive)
REMARK    1  A    between atoms: C_1  and  N_43
REMARK    2  A    between atoms: C_9  and  O_25
REMARK    3  A    between atoms: C_11  and  C_14
REMARK    4  A    between atoms: C_15  and  O_24
REMARK    5  A    between atoms: C_16  and  O_22
REMARK    6  A    between atoms: O_22  and  C_23
REMARK                            x       y       z     vdW  Elec       q    Type
REMARK                         _______ _______ _______ _____ _____    ______ ____
ROOT
ATOM      1  C   UNL     1      -3.559   8.613   1.422  0.00  0.00    -0.096 C 
ATOM      2  C   UNL     1      -3.592   6.711  -0.076  0.00  0.00    -0.074 C 
ATOM      3  C   UNL     1      -2.697   5.644  -0.713  0.00  0.00    +0.018 C 
ATOM      4  C   UNL     1      -2.178   4.735   0.396  0.00  0.00    -0.027 A 
ATOM      5  C   UNL     1      -2.231   5.145   1.686  0.00  0.00    -0.021 A 
ATOM      6  S   UNL     1      -1.543   3.804   2.618  0.00  0.00    -0.080 S 
ATOM      7  C   UNL     1      -1.198   2.733   1.328  0.00  0.00    +0.080 A 
ATOM      8  C   UNL     1      -1.613   3.417   0.178  0.00  0.00    +0.067 A 
ATOM      9  C   UNL     1      -1.432   2.728  -1.126  0.00  0.00    +0.220 C 
ATOM     10  N   UNL     1      -0.724   1.632  -1.141  0.00  0.00    -0.223 NA
ATOM     11  C   UNL     1      -0.013   1.086   0.008  0.00  0.00    +0.229 C 
ATOM     12  N   UNL     1      -0.654   1.473   1.278  0.00  0.00    -0.313 N 
ATOM     13  C   UNL     1      -2.760   6.453   2.183  0.00  0.00    -0.036 C 
ATOM     14  H   UNL     1      -0.689   0.871   2.038  0.00  0.00    +0.149 HD
ATOM     15  N   UNL     1      -2.861   7.372   1.024  0.00  0.00    +0.381 N 
ATOM     16  H   UNL     1      -1.916   7.609   0.702  0.00  0.00    -0.082 HD
ENDROOT
BRANCH  11  17
ATOM     17  C   UNL     1       1.405   1.596  -0.003  0.00  0.00    +0.055 A 
ATOM     18  C   UNL     1       2.023   1.949   1.186  0.00  0.00    +0.166 A 
ATOM     19  C   UNL     1       3.334   2.416   1.174  0.00  0.00    +0.163 A 
ATOM     20  C   UNL     1       4.013   2.536  -0.028  0.00  0.00    +0.065 A 
ATOM     21  C   UNL     1       3.389   2.188  -1.213  0.00  0.00    +0.036 A 
ATOM     22  C   UNL     1       2.087   1.718  -1.200  0.00  0.00    +0.042 A 
ATOM     23 BR   UNL     1       1.239   1.244  -2.822  0.00  0.00    -0.049 Br
ATOM     24 BR   UNL     1       4.317   2.352  -2.852  0.00  0.00    -0.049 Br
BRANCH  19  25
ATOM     25  O   UNL     1       3.946   2.758   2.339  0.00  0.00    -0.491 OA
ATOM     26  C   UNL     1       5.291   3.235   2.250  0.00  0.00    +0.277 C 
ENDBRANCH  19  25
BRANCH  18  27
ATOM     27  O   UNL     1       1.352   1.835   2.363  0.00  0.00    -0.503 OA
ATOM     28  H   UNL     1       1.456   0.976   2.794  0.00  0.00    +0.292 HD
ENDBRANCH  18  27
ENDBRANCH  11  17
BRANCH   9  29
ATOM     29  O   UNL     1      -1.982   3.220  -2.259  0.00  0.00    -0.492 OA
ATOM     30  H   UNL     1      -1.799   2.691  -3.048  0.00  0.00    +0.294 HD
ENDBRANCH   9  29
TORSDOF 4
