REMARK  Name = ZINC21559432
REMARK  10 active torsions:
REMARK  status: ('A' for Active; 'I' for Inactive)
REMARK    1  A    between atoms: C_1  and  C_2
REMARK    2  A    between atoms: C_5  and  N_8
REMARK    3  A    between atoms: C_21  and  S_22
REMARK    4  A    between atoms: S_22  and  C_23
REMARK    5  A    between atoms: C_23  and  C_24
REMARK    6  A    between atoms: C_24  and  C_26
REMARK    7  A    between atoms: C_24  and  O_36
REMARK    8  A    between atoms: C_26  and  O_27
REMARK    9  A    between atoms: O_27  and  C_28
REMARK   10  A    between atoms: C_28  and  C_29
REMARK                            x       y       z     vdW  Elec       q    Type
REMARK                         _______ _______ _______ _____ _____    ______ ____
ROOT
ATOM      1  N   UNL     1       1.771  -1.719  -0.025  0.00  0.00    -0.245 N 
ATOM      2  C   UNL     1       3.025  -1.852   0.456  0.00  0.00    +0.268 A 
ATOM      3  O   UNL     1       3.409  -2.921   0.890  0.00  0.00    -0.267 OA
ATOM      4  C   UNL     1       3.920  -0.682   0.448  0.00  0.00    +0.064 A 
ATOM      5  C   UNL     1       5.225  -0.765   0.932  0.00  0.00    +0.015 A 
ATOM      6  C   UNL     1       6.033   0.352   0.908  0.00  0.00    +0.001 A 
ATOM      7  C   UNL     1       5.556   1.552   0.405  0.00  0.00    +0.002 A 
ATOM      8  C   UNL     1       4.265   1.647  -0.078  0.00  0.00    +0.027 A 
ATOM      9  C   UNL     1       3.438   0.535  -0.061  0.00  0.00    +0.064 A 
ATOM     10  N   UNL     1       2.135   0.599  -0.539  0.00  0.00    -0.255 N 
ATOM     11  C   UNL     1       1.323  -0.504  -0.520  0.00  0.00    +0.245 A 
ATOM     12  N   UNL     1       0.171  -0.138  -1.030  0.00  0.00    -0.109 NA
ATOM     13  N   UNL     1       0.209   1.103  -1.361  0.00  0.00    -0.120 NA
ATOM     14  C   UNL     1       1.387   1.608  -1.084  0.00  0.00    +0.198 A 
ENDROOT
BRANCH   1  19
ATOM     15  C   UNL     1      -1.718  -6.194  -0.015  0.00  0.00    +0.044 C 
ATOM     16  C   UNL     1      -0.791  -5.005  -0.018  0.00  0.00    -0.050 A 
ATOM     17  C   UNL     1       0.022  -4.767  -1.110  0.00  0.00    +0.005 A 
ATOM     18  C   UNL     1       0.872  -3.678  -1.116  0.00  0.00    +0.026 A 
ATOM     19  C   UNL     1       0.910  -2.823  -0.022  0.00  0.00    +0.053 A 
ATOM     20  C   UNL     1       0.097  -3.069   1.076  0.00  0.00    +0.026 A 
ATOM     21  C   UNL     1      -0.755  -4.156   1.073  0.00  0.00    +0.005 A 
ENDBRANCH   1  19
BRANCH  14  22
ATOM     22  S   UNL     1       1.909   3.268  -1.362  0.00  0.00    -0.083 S 
BRANCH  22  23
ATOM     23  C   UNL     1       0.456   4.067  -2.098  0.00  0.00    +0.111 C 
BRANCH  23  24
ATOM     24  C   UNL     1       0.775   5.534  -2.393  0.00  0.00    +0.150 C 
BRANCH  24  25
ATOM     25  O   UNL     1       1.121   6.200  -1.176  0.00  0.00    -0.389 OA
ATOM     26  H   UNL     1       1.383   7.268  -1.190  0.00  0.00    +0.210 HD
ENDBRANCH  24  25
BRANCH  24  27
ATOM     27  C   UNL     1      -0.450   6.208  -3.013  0.00  0.00    +0.192 C 
BRANCH  27  28
ATOM     28  O   UNL     1      -0.116   7.544  -3.396  0.00  0.00    -0.373 OA
BRANCH  28  29
ATOM     29  C   UNL     1      -1.197   8.266  -3.989  0.00  0.00    +0.198 C 
BRANCH  29  30
ATOM     30  C   UNL     1      -0.735   9.654  -4.351  0.00  0.00    +0.013 A 
ATOM     31  C   UNL     1       0.565  10.041  -4.086  0.00  0.00    +0.009 A 
ATOM     32  C   UNL     1       0.990  11.312  -4.423  0.00  0.00    +0.001 A 
ATOM     33  C   UNL     1       0.113  12.202  -5.016  0.00  0.00    +0.003 A 
ATOM     34  C   UNL     1      -1.189  11.819  -5.276  0.00  0.00    +0.039 A 
ATOM     35  C   UNL     1      -1.615  10.544  -4.944  0.00  0.00    +0.129 A 
ATOM     36  F   UNL     1      -2.887  10.168  -5.198  0.00  0.00    -0.205 F 
ENDBRANCH  29  30
ENDBRANCH  28  29
ENDBRANCH  27  28
ENDBRANCH  24  27
ENDBRANCH  23  24
ENDBRANCH  22  23
ENDBRANCH  14  22
TORSDOF 9
