REMARK  Name = ZINC12412605
REMARK  6 active torsions:
REMARK  status: ('A' for Active; 'I' for Inactive)
REMARK    1  A    between atoms: C_1  and  C_2
REMARK    2  A    between atoms: C_2  and  C_24
REMARK    3  A    between atoms: C_7  and  C_23
REMARK    4  A    between atoms: N_10  and  N_11
REMARK    5  A    between atoms: C_12  and  C_14
REMARK    6  A    between atoms: C_19  and  N_20
REMARK                            x       y       z     vdW  Elec       q    Type
REMARK                         _______ _______ _______ _____ _____    ______ ____
ROOT
ATOM      1  N   UNL     1       3.853   2.892   0.271  0.00  0.00    -0.203 N 
ATOM      2  C   UNL     1       2.603   3.385   0.176  0.00  0.00    +0.265 C 
ATOM      3  O   UNL     1       2.431   4.553  -0.114  0.00  0.00    -0.268 OA
ATOM      4  H   UNL     1       3.991   1.960   0.502  0.00  0.00    +0.178 HD
ENDROOT
BRANCH   1  13
ATOM      5  C   UNL     1       7.541   4.738  -1.366  0.00  0.00    +0.017 C 
ATOM      6  C   UNL     1       7.451   4.012  -0.022  0.00  0.00    +0.008 C 
ATOM      7  C   UNL     1       8.562   2.923   0.084  0.00  0.00    +0.001 C 
ATOM      8  C   UNL     1       8.497   2.440   1.566  0.00  0.00    +0.005 C 
ATOM      9  C   UNL     1       7.154   1.680   1.665  0.00  0.00    +0.013 C 
ATOM     10  C   UNL     1       6.544   1.771   0.233  0.00  0.00    +0.009 C 
ATOM     11  C   UNL     1       7.846   1.728  -0.641  0.00  0.00    +0.017 C 
ATOM     12  C   UNL     1       6.141   3.245   0.078  0.00  0.00    +0.049 C 
ATOM     13  N   UNL     1       4.955   3.725   0.037  0.00  0.00    -0.188 NA
ATOM     14  C   UNL     1       5.464   0.745  -0.115  0.00  0.00    +0.017 C 
ATOM     15  C   UNL     1       7.574   5.008   1.133  0.00  0.00    +0.017 C 
ENDBRANCH   1  13
BRANCH   2  16
ATOM     16  C   UNL     1       1.441   2.506   0.423  0.00  0.00    +0.068 A 
ATOM     17  C   UNL     1       1.337   1.803   1.625  0.00  0.00    +0.015 A 
ATOM     18  C   UNL     1       0.250   0.984   1.849  0.00  0.00    +0.001 A 
ATOM     19  C   UNL     1      -0.734   0.854   0.884  0.00  0.00    +0.002 A 
ATOM     20  C   UNL     1      -0.640   1.553  -0.306  0.00  0.00    +0.033 A 
ATOM     21  C   UNL     1       0.442   2.376  -0.543  0.00  0.00    +0.138 A 
BRANCH  21  22
ATOM     22  N   UNL     1       0.544   3.118  -1.820  0.00  0.00    +0.057 N 
ATOM     23  O   UNL     1      -0.381   3.096  -2.612  0.00  0.00    -0.126 OA
ATOM     24  O   UNL     1       1.552   3.751  -2.078  0.00  0.00    -0.126 OA
ENDBRANCH  21  22
ENDBRANCH   2  16
TORSDOF 3
