REMARK  Name = ZINC06442587
REMARK  8 active torsions:
REMARK  status: ('A' for Active; 'I' for Inactive)
REMARK    1  A    between atoms: C_1  and  C_2
REMARK    2  A    between atoms: C_7  and  C_15
REMARK    3  A    between atoms: C_13  and  C_14
REMARK    4  A    between atoms: C_15  and  C_17
REMARK    5  A    between atoms: C_15  and  N_63
REMARK    6  A    between atoms: N_21  and  C_22
REMARK    7  A    between atoms: C_22  and  C_23
REMARK    8  A    between atoms: C_31  and  C_34
REMARK                            x       y       z     vdW  Elec       q    Type
REMARK                         _______ _______ _______ _____ _____    ______ ____
ROOT
ATOM      1  C   UNL     1       4.959   1.184  -0.038  0.00  0.00    +0.039 C 
ENDROOT
BRANCH   1   8
ATOM      2  C   UNL     1      -2.460   4.095   0.294  0.00  0.00    +0.044 C 
ATOM      3  C   UNL     1      -1.159   3.335   0.255  0.00  0.00    -0.046 A 
ATOM      4  C   UNL     1      -1.169   1.950   0.352  0.00  0.00    +0.004 A 
ATOM      5  C   UNL     1      -0.000   1.243   0.324  0.00  0.00    +0.010 A 
ATOM      6  C   UNL     1       1.216   1.919   0.184  0.00  0.00    -0.001 A 
ATOM      7  C   UNL     1       2.486   1.192   0.144  0.00  0.00    +0.017 A 
ATOM      8  C   UNL     1       3.634   1.901   0.007  0.00  0.00    +0.011 A 
ATOM      9  C   UNL     1       3.593   3.308  -0.093  0.00  0.00    +0.251 A 
ATOM     10  O   UNL     1       4.637   3.926  -0.215  0.00  0.00    -0.268 OA
ATOM     11  N   UNL     1       2.431   3.985  -0.058  0.00  0.00    -0.322 N 
ATOM     12  H   UNL     1       2.439   4.952  -0.130  0.00  0.00    +0.169 HD
ATOM     13  C   UNL     1       1.230   3.323   0.080  0.00  0.00    +0.052 A 
ATOM     14  C   UNL     1       0.028   4.022   0.117  0.00  0.00    -0.024 A 
ATOM     15  C   UNL     1       0.023   5.525   0.007  0.00  0.00    +0.046 C 
ENDBRANCH   1   8
BRANCH   1  22
ATOM     16  C   UNL     1       7.053   1.032  -1.243  0.00  0.00    -0.077 C 
ATOM     17  C   UNL     1       7.836   1.592  -2.432  0.00  0.00    -0.015 C 
ATOM     18  C   UNL     1       7.113   1.226  -3.731  0.00  0.00    -0.018 C 
ATOM     19  C   UNL     1       5.686   1.779  -3.684  0.00  0.00    -0.015 C 
ATOM     20  C   UNL     1       4.965   1.213  -2.459  0.00  0.00    -0.077 C 
ATOM     21  C   UNL     1       7.858   1.835  -4.921  0.00  0.00    +0.007 C 
ATOM     22  N   UNL     1       5.697   1.621  -1.241  0.00  0.00    +0.389 N 
ATOM     23  H   UNL     1       5.779   2.644  -1.228  0.00  0.00    -0.080 HD
ENDBRANCH   1  22
BRANCH   1  24
ATOM     24  C   UNL     1       5.763   1.537   1.186  0.00  0.00    +0.143 A 
ATOM     25  N   UNL     1       6.388   2.667   1.413  0.00  0.00    -0.115 NA
ATOM     26  N   UNL     1       6.958   2.582   2.566  0.00  0.00    -0.023 NA
ATOM     27  N   UNL     1       6.714   1.427   3.079  0.00  0.00    -0.044 NA
ATOM     28  N   UNL     1       5.976   0.755   2.261  0.00  0.00    -0.226 N 
BRANCH  28  29
ATOM     29  C   UNL     1       5.467  -0.604   2.463  0.00  0.00    +0.182 C 
BRANCH  29  30
ATOM     30  C   UNL     1       6.460  -1.598   1.918  0.00  0.00    -0.026 A 
ATOM     31  C   UNL     1       6.371  -2.014   0.603  0.00  0.00    +0.005 A 
ATOM     32  C   UNL     1       7.284  -2.922   0.101  0.00  0.00    +0.000 A 
ATOM     33  C   UNL     1       8.281  -3.422   0.918  0.00  0.00    +0.000 A 
ATOM     34  C   UNL     1       8.368  -3.010   2.235  0.00  0.00    +0.000 A 
ATOM     35  C   UNL     1       7.457  -2.098   2.735  0.00  0.00    +0.005 A 
ENDBRANCH  29  30
ENDBRANCH  28  29
ENDBRANCH   1  24
TORSDOF 5
