REMARK  Name = ZINC66147631
REMARK  9 active torsions:
REMARK  status: ('A' for Active; 'I' for Inactive)
REMARK    1  A    between atoms: C_1  and  C_2
REMARK    2  A    between atoms: C_3  and  C_4
REMARK    3  A    between atoms: C_5  and  C_6
REMARK    4  A    between atoms: N_8  and  N_9
REMARK    5  A    between atoms: N_9  and  C_10
REMARK    6  A    between atoms: C_10  and  N_12
REMARK    7  A    between atoms: N_12  and  C_13
REMARK    8  A    between atoms: C_13  and  C_15
REMARK    9  A    between atoms: C_13  and  C_16
REMARK                            x       y       z     vdW  Elec       q    Type
REMARK                         _______ _______ _______ _____ _____    ______ ____
ROOT
ATOM      1  C   UNL     1      -4.609  -7.286  -0.440  0.00  0.00    +0.147 C 
ATOM      2  S   UNL     1      -4.713  -8.993  -0.358  0.00  0.00    -0.017 S 
ENDROOT
BRANCH   1   3
ATOM      3  N   UNL     1      -3.425  -6.695  -0.696  0.00  0.00    -0.246 N 
ATOM      4  H   UNL     1      -2.632  -7.237  -0.834  0.00  0.00    +0.172 HD
BRANCH   3   7
ATOM      5  C   UNL     1      -2.156  -4.707  -1.018  0.00  0.00    +0.253 C 
ATOM      6  O   UNL     1      -1.161  -5.387  -1.192  0.00  0.00    -0.269 OA
ATOM      7  N   UNL     1      -3.340  -5.298  -0.762  0.00  0.00    -0.232 N 
ATOM      8  H   UNL     1      -4.132  -4.757  -0.624  0.00  0.00    +0.173 HD
BRANCH   5  10
ATOM      9  C   UNL     1      -0.879  -2.656  -1.344  0.00  0.00    +0.005 C 
ATOM     10  C   UNL     1      -2.066  -3.249  -1.088  0.00  0.00    +0.069 C 
BRANCH   9  13
ATOM     11  C   UNL     1       0.474   0.891  -1.739  0.00  0.00    +0.035 C 
ATOM     12  C   UNL     1       0.382  -0.612  -1.667  0.00  0.00    -0.030 C 
ATOM     13  C   UNL     1      -0.790  -1.197  -1.414  0.00  0.00    -0.004 C 
ENDBRANCH   9  13
ENDBRANCH   5  10
ENDBRANCH   3   7
ENDBRANCH   1   3
BRANCH   1  14
ATOM     14  N   UNL     1      -5.710  -6.534  -0.248  0.00  0.00    -0.319 N 
ATOM     15  H   UNL     1      -5.651  -5.567  -0.294  0.00  0.00    +0.148 HD
BRANCH  14  16
ATOM     16  C   UNL     1      -6.997  -7.176   0.030  0.00  0.00    +0.101 C 
ATOM     17  C   UNL     1      -7.133  -7.415   1.536  0.00  0.00    +0.033 C 
BRANCH  16  18
ATOM     18  C   UNL     1      -8.117  -6.284  -0.440  0.00  0.00    -0.009 A 
ATOM     19  C   UNL     1      -7.931  -4.915  -0.498  0.00  0.00    +0.008 A 
ATOM     20  C   UNL     1      -8.957  -4.096  -0.929  0.00  0.00    +0.020 A 
ATOM     21  C   UNL     1     -10.171  -4.645  -1.304  0.00  0.00    +0.042 A 
ATOM     22  C   UNL     1     -10.357  -6.015  -1.247  0.00  0.00    +0.040 A 
ATOM     23  C   UNL     1      -9.328  -6.835  -0.820  0.00  0.00    +0.047 A 
ATOM     24 CL   UNL     1      -9.558  -8.554  -0.753  0.00  0.00    -0.083 Cl
ATOM     25 CL   UNL     1     -11.460  -3.616  -1.845  0.00  0.00    -0.083 Cl
ENDBRANCH  16  18
ENDBRANCH  14  16
ENDBRANCH   1  14
TORSDOF 7
