REMARK  Name = ZINC41583814
REMARK  7 active torsions:
REMARK  status: ('A' for Active; 'I' for Inactive)
REMARK    1  A    between atoms: C_1  and  C_2
REMARK    2  A    between atoms: C_5  and  C_29
REMARK    3  A    between atoms: N_8  and  C_10
REMARK    4  A    between atoms: C_10  and  C_11
REMARK    5  A    between atoms: C_12  and  O_28
REMARK    6  A    between atoms: C_19  and  C_20
REMARK    7  A    between atoms: C_20  and  C_21
REMARK                            x       y       z     vdW  Elec       q    Type
REMARK                         _______ _______ _______ _____ _____    ______ ____
ROOT
ATOM      1  C   UNL     1       2.146   0.211   3.650  0.00  0.00    +0.023 A 
ATOM      2  C   UNL     1       2.580   1.444   4.106  0.00  0.00    +0.122 A 
ATOM      3  C   UNL     1       1.974   2.043   5.207  0.00  0.00    +0.046 A 
ATOM      4  C   UNL     1       0.944   1.423   5.852  0.00  0.00    +0.017 A 
ATOM      5  C   UNL     1       0.492   0.178   5.407  0.00  0.00    +0.045 A 
ATOM      6  C   UNL     1       1.096  -0.429   4.292  0.00  0.00    +0.172 A 
ATOM      7  O   UNL     1       0.461  -1.602   4.088  0.00  0.00    -0.354 OA
ATOM      8  N   UNL     1      -0.555  -1.759   5.058  0.00  0.00    -0.082 NA
ATOM      9  C   UNL     1      -0.561  -0.735   5.856  0.00  0.00    +0.096 A 
ENDROOT
BRANCH   2  10
ATOM     10  O   UNL     1       3.605   2.073   3.474  0.00  0.00    -0.506 OA
ATOM     11  H   UNL     1       3.325   2.656   2.755  0.00  0.00    +0.292 HD
ENDBRANCH   2  10
BRANCH   1  12
ATOM     12  C   UNL     1       2.808  -0.431   2.458  0.00  0.00    -0.035 C 
BRANCH  12  18
ATOM     13  C   UNL     1      -0.019   1.526   0.010  0.00  0.00    +0.005 C 
ATOM     14  C   UNL     1       0.002  -0.004   0.002  0.00  0.00    -0.031 C 
ATOM     15  C   UNL     1       0.721  -0.499  -1.257  0.00  0.00    +0.003 C 
ATOM     16  C   UNL     1       2.177  -0.027  -1.220  0.00  0.00    -0.031 C 
ATOM     17  C   UNL     1       2.839  -0.534   0.063  0.00  0.00    -0.075 C 
ATOM     18  N   UNL     1       2.123  -0.005   1.230  0.00  0.00    +0.383 N 
ATOM     19  C   UNL     1       0.744  -0.512   1.240  0.00  0.00    -0.075 C 
ATOM     20  C   UNL     1       2.924  -0.581  -2.434  0.00  0.00    +0.005 C 
ATOM     21  H   UNL     1       2.109   1.003   1.187  0.00  0.00    -0.081 HD
ENDBRANCH  12  18
ENDBRANCH   1  12
BRANCH   9  22
ATOM     22  C   UNL     1      -1.493  -0.519   7.021  0.00  0.00    +0.097 C 
BRANCH  22  23
ATOM     23  C   UNL     1      -2.731   0.198   6.548  0.00  0.00    -0.006 A 
ATOM     24  C   UNL     1      -2.812   1.575   6.646  0.00  0.00    +0.007 A 
ATOM     25  C   UNL     1      -3.947   2.233   6.212  0.00  0.00    +0.000 A 
ATOM     26  C   UNL     1      -5.003   1.516   5.680  0.00  0.00    +0.003 A 
ATOM     27  C   UNL     1      -4.924   0.140   5.581  0.00  0.00    +0.038 A 
ATOM     28  C   UNL     1      -3.785  -0.520   6.010  0.00  0.00    +0.127 A 
ATOM     29  F   UNL     1      -3.704  -1.865   5.909  0.00  0.00    -0.205 F 
ENDBRANCH  22  23
ENDBRANCH   9  22
TORSDOF 5
