REMARK  Name = ZINC22735828
REMARK  10 active torsions:
REMARK  status: ('A' for Active; 'I' for Inactive)
REMARK    1  A    between atoms: C_1  and  C_2
REMARK    2  A    between atoms: C_5  and  S_9
REMARK    3  A    between atoms: C_7  and  C_8
REMARK    4  A    between atoms: S_9  and  N_12
REMARK    5  A    between atoms: N_12  and  C_13
REMARK    6  A    between atoms: C_13  and  C_14
REMARK    7  A    between atoms: C_14  and  C_16
REMARK    8  A    between atoms: C_14  and  N_26
REMARK    9  A    between atoms: N_24  and  C_25
REMARK   10  A    between atoms: N_29  and  C_32
REMARK                            x       y       z     vdW  Elec       q    Type
REMARK                         _______ _______ _______ _____ _____    ______ ____
ROOT
ATOM      1  C   UNL     1      -1.947   4.755   0.051  0.00  0.00    +0.102 C 
ENDROOT
BRANCH   1   2
ATOM      2  C   UNL     1      -0.746   3.852  -0.068  0.00  0.00    -0.029 A 
ATOM      3  C   UNL     1      -0.799   2.561   0.423  0.00  0.00    +0.007 A 
ATOM      4  C   UNL     1       0.297   1.731   0.318  0.00  0.00    +0.024 A 
ATOM      5  C   UNL     1       1.468   2.190  -0.284  0.00  0.00    +0.033 A 
ATOM      6  C   UNL     1       1.510   3.488  -0.779  0.00  0.00    -0.025 A 
ATOM      7  C   UNL     1       0.409   4.312  -0.674  0.00  0.00    +0.010 A 
ATOM      8  C   UNL     1       2.882   3.715  -1.380  0.00  0.00    +0.056 C 
ATOM      9  C   UNL     1       3.432   2.278  -1.532  0.00  0.00    +0.109 C 
ATOM     10  N   UNL     1       2.688   1.535  -0.491  0.00  0.00    -0.332 N 
ATOM     11  C   UNL     1       2.475   0.138  -0.892  0.00  0.00    +0.129 C 
ENDBRANCH   1   2
BRANCH   1  12
ATOM     12  N   UNL     1      -1.671   5.809   1.038  0.00  0.00    -0.298 NA
ATOM     13  C   UNL     1      -0.483   6.587   0.659  0.00  0.00    +0.066 C 
ATOM     14  C   UNL     1      -0.277   7.720   1.666  0.00  0.00    -0.064 C 
ATOM     15  N   UNL     1      -0.124   7.154   3.014  0.00  0.00    +0.379 N 
ATOM     16  C   UNL     1      -1.312   6.375   3.392  0.00  0.00    -0.064 C 
ATOM     17  C   UNL     1      -1.518   5.242   2.385  0.00  0.00    +0.066 C 
ATOM     18  C   UNL     1       0.151   8.207   4.000  0.00  0.00    -0.096 C 
ATOM     19  H   UNL     1       0.738   6.471   2.999  0.00  0.00    -0.082 HD
ENDBRANCH   1  12
BRANCH   1  20
ATOM     20  C   UNL     1      -2.242   5.394  -1.307  0.00  0.00    +0.129 C 
BRANCH  20  21
ATOM     21  N   UNL     1      -3.333   6.361  -1.166  0.00  0.00    -0.188 NA
ATOM     22  H   UNL     1      -4.061   6.254  -0.348  0.00  0.00    +0.148 HD
BRANCH  21  23
ATOM     23  S   UNL     1      -3.622   7.465  -2.366  0.00  0.00    +0.058 S 
ATOM     24  O   UNL     1      -4.743   8.233  -1.950  0.00  0.00    -0.153 OA
ATOM     25  O   UNL     1      -2.369   8.057  -2.683  0.00  0.00    -0.153 OA
BRANCH  23  30
ATOM     26  C   UNL     1      -5.359   4.378  -7.250  0.00  0.00    +0.044 C 
ATOM     27  C   UNL     1      -4.925   5.150  -6.030  0.00  0.00    -0.047 A 
ATOM     28  C   UNL     1      -3.585   5.419  -5.823  0.00  0.00    +0.005 A 
ATOM     29  C   UNL     1      -3.187   6.130  -4.707  0.00  0.00    +0.029 A 
ATOM     30  C   UNL     1      -4.129   6.564  -3.792  0.00  0.00    +0.106 A 
ATOM     31  C   UNL     1      -5.469   6.295  -3.999  0.00  0.00    +0.032 A 
ATOM     32  C   UNL     1      -5.867   5.588  -5.119  0.00  0.00    -0.046 A 
ATOM     33  C   UNL     1      -7.328   5.295  -5.345  0.00  0.00    +0.044 C 
ENDBRANCH  23  30
ENDBRANCH  21  23
ENDBRANCH  20  21
ENDBRANCH   1  20
TORSDOF 6
