REMARK  Name = ZINC54614822
REMARK  16 active torsions:
REMARK  status: ('A' for Active; 'I' for Inactive)
REMARK    1  A    between atoms: C_1  and  C_2
REMARK    2  A    between atoms: C_2  and  C_3
REMARK    3  A    between atoms: C_3  and  C_4
REMARK    4  A    between atoms: C_4  and  C_5
REMARK    5  A    between atoms: C_5  and  C_6
REMARK    6  A    between atoms: C_6  and  O_7
REMARK    7  A    between atoms: O_7  and  C_8
REMARK    8  A    between atoms: C_11  and  C_14
REMARK    9  A    between atoms: C_16  and  C_28
REMARK   10  A    between atoms: C_17  and  C_27
REMARK   11  A    between atoms: C_22  and  S_24
REMARK   12  A    between atoms: S_24  and  C_25
REMARK   13  A    between atoms: C_25  and  C_26
REMARK   14  A    between atoms: N_30  and  C_31
REMARK   15  A    between atoms: C_35  and  C_38
REMARK   16  A    between atoms: C_36  and  C_37
REMARK                            x       y       z     vdW  Elec       q    Type
REMARK                         _______ _______ _______ _____ _____    ______ ____
ROOT
ATOM      1  C   UNL     1       2.561 -10.205  -4.350  0.00  0.00    +0.177 C 
ATOM      2  C   UNL     1       1.870 -10.538  -5.646  0.00  0.00    +0.060 C 
ATOM      3  C   UNL     1       2.531 -10.899  -6.756  0.00  0.00    +0.018 C 
ATOM      4  N   UNL     1       3.900 -11.004  -6.791  0.00  0.00    -0.287 N 
ATOM      5  C   UNL     1       4.574 -10.983  -5.578  0.00  0.00    +0.219 A 
ATOM      6  N   UNL     1       3.960 -10.616  -4.425  0.00  0.00    -0.220 N 
ATOM      7  N   UNL     1       4.915 -10.716  -3.415  0.00  0.00    -0.141 NA
ATOM      8  C   UNL     1       6.029 -11.122  -3.986  0.00  0.00    +0.210 A 
ATOM      9  N   UNL     1       5.814 -11.279  -5.300  0.00  0.00    -0.187 NA
ATOM     10  C   UNL     1       1.745 -11.200  -8.006  0.00  0.00    +0.061 C 
ATOM     11  H   UNL     1       4.377 -11.090  -7.631  0.00  0.00    +0.155 HD
ENDROOT
BRANCH   1  15
ATOM     12  C   UNL     1       2.348  -5.992  -3.665  0.00  0.00    +0.121 A 
ATOM     13  C   UNL     1       1.789  -6.874  -2.752  0.00  0.00    +0.046 A 
ATOM     14  C   UNL     1       1.859  -8.235  -2.975  0.00  0.00    +0.009 A 
ATOM     15  C   UNL     1       2.486  -8.719  -4.109  0.00  0.00    -0.018 A 
ATOM     16  C   UNL     1       3.044  -7.843  -5.021  0.00  0.00    +0.009 A 
ATOM     17  C   UNL     1       2.972  -6.480  -4.804  0.00  0.00    +0.046 A 
BRANCH  12  18
ATOM     18  O   UNL     1       2.280  -4.652  -3.447  0.00  0.00    -0.492 OA
BRANCH  18  19
ATOM     19  C   UNL     1       1.624  -4.221  -2.253  0.00  0.00    +0.229 C 
BRANCH  19  20
ATOM     20  C   UNL     1       1.647  -2.693  -2.182  0.00  0.00    +0.041 C 
BRANCH  20  21
ATOM     21  C   UNL     1       0.944  -2.232  -0.904  0.00  0.00    +0.003 C 
BRANCH  21  22
ATOM     22  C   UNL     1       0.966  -0.704  -0.832  0.00  0.00    -0.000 C 
BRANCH  22  24
ATOM     23  C   UNL     1       0.286   1.286   0.518  0.00  0.00    +0.004 C 
ATOM     24  C   UNL     1       0.264  -0.243   0.446  0.00  0.00    -0.003 C 
ENDBRANCH  22  24
ENDBRANCH  21  22
ENDBRANCH  20  21
ENDBRANCH  19  20
ENDBRANCH  18  19
ENDBRANCH  12  18
ENDBRANCH   1  15
BRANCH   2  25
ATOM     25  C   UNL     1       0.458 -10.467  -5.695  0.00  0.00    +0.248 C 
ATOM     26  O   UNL     1      -0.213 -11.381  -5.250  0.00  0.00    -0.270 OA
ATOM     27  N   UNL     1      -0.144  -9.389  -6.234  0.00  0.00    -0.281 N 
ATOM     28  H   UNL     1       0.388  -8.691  -6.646  0.00  0.00    +0.155 HD
BRANCH  27  29
ATOM     29  C   UNL     1      -1.538  -9.276  -6.199  0.00  0.00    +0.037 A 
ATOM     30  C   UNL     1      -2.331 -10.411  -6.311  0.00  0.00    +0.023 A 
ATOM     31  C   UNL     1      -3.707 -10.296  -6.277  0.00  0.00    +0.002 A 
ATOM     32  C   UNL     1      -4.295  -9.053  -6.130  0.00  0.00    +0.004 A 
ATOM     33  C   UNL     1      -3.508  -7.921  -6.017  0.00  0.00    -0.046 A 
ATOM     34  C   UNL     1      -2.131  -8.030  -6.045  0.00  0.00    -0.026 A 
ATOM     35  C   UNL     1      -1.275  -6.797  -5.916  0.00  0.00    +0.046 C 
ATOM     36  C   UNL     1      -4.153  -6.569  -5.857  0.00  0.00    +0.044 C 
ENDBRANCH  27  29
ENDBRANCH   2  25
BRANCH   8  37
ATOM     37  S   UNL     1       7.557 -11.410  -3.157  0.00  0.00    -0.085 S 
BRANCH  37  38
ATOM     38  C   UNL     1       8.680 -11.943  -4.479  0.00  0.00    +0.074 C 
ATOM     39  C   UNL     1      10.062 -12.230  -3.889  0.00  0.00    +0.016 C 
ENDBRANCH  37  38
ENDBRANCH   8  37
TORSDOF 11
