REMARK  Name = ZINC15879904
REMARK  8 active torsions:
REMARK  status: ('A' for Active; 'I' for Inactive)
REMARK    1  A    between atoms: C_1  and  N_2
REMARK    2  A    between atoms: N_2  and  C_3
REMARK    3  A    between atoms: N_2  and  C_4
REMARK    4  A    between atoms: C_7  and  C_10
REMARK    5  A    between atoms: N_11  and  N_12
REMARK    6  A    between atoms: C_13  and  C_15
REMARK    7  A    between atoms: C_16  and  C_26
REMARK    8  A    between atoms: C_26  and  N_61
REMARK                            x       y       z     vdW  Elec       q    Type
REMARK                         _______ _______ _______ _____ _____    ______ ____
ROOT
ATOM      1  C   UNL     1      -1.552   6.349   3.209  0.00  0.00    +0.170 A 
ATOM      2  C   UNL     1      -0.591   5.780   2.422  0.00  0.00    +0.063 A 
ATOM      3  N   UNL     1       0.536   5.716   3.166  0.00  0.00    -0.194 N 
ATOM      4  N   UNL     1       0.227   6.271   4.416  0.00  0.00    -0.058 NA
ATOM      5  N   UNL     1      -1.010   6.630   4.407  0.00  0.00    -0.124 NA
ATOM      6  C   UNL     1       1.773   5.199   2.764  0.00  0.00    +0.240 A 
ATOM      7  C   UNL     1       2.951   5.033   3.620  0.00  0.00    +0.206 A 
ATOM      8  N   UNL     1       3.912   4.524   2.899  0.00  0.00    -0.032 NA
ATOM      9  O   UNL     1       3.419   4.341   1.584  0.00  0.00    -0.239 OA
ATOM     10  N   UNL     1       2.071   4.779   1.568  0.00  0.00    -0.027 NA
ATOM     11  N   UNL     1       3.031   5.362   4.968  0.00  0.00    -0.337 N 
ATOM     12  H   UNL     1       2.261   5.738   5.422  0.00  0.00    +0.144 HD
ATOM     13  H   UNL     1       3.857   5.216   5.455  0.00  0.00    +0.144 HD
ENDROOT
BRANCH   1  15
ATOM     14  N   UNL     1      -3.801   7.182   3.685  0.00  0.00    -0.202 N 
ATOM     15  C   UNL     1      -2.947   6.612   2.811  0.00  0.00    +0.285 C 
ATOM     16  O   UNL     1      -3.328   6.315   1.695  0.00  0.00    -0.267 OA
ATOM     17  H   UNL     1      -3.497   7.420   4.575  0.00  0.00    +0.178 HD
BRANCH  14  19
ATOM     18  C   UNL     1      -5.949   7.981   4.149  0.00  0.00    +0.138 C 
ATOM     19  N   UNL     1      -5.127   7.432   3.307  0.00  0.00    -0.187 NA
BRANCH  18  23
ATOM     20  C   UNL     1      -9.967   8.738   3.005  0.00  0.00    +0.029 A 
ATOM     21  C   UNL     1      -9.533   9.079   4.281  0.00  0.00    +0.024 A 
ATOM     22  C   UNL     1      -8.230   8.835   4.656  0.00  0.00    +0.011 A 
ATOM     23  C   UNL     1      -7.344   8.244   3.752  0.00  0.00    -0.005 A 
ATOM     24  C   UNL     1      -7.782   7.908   2.467  0.00  0.00    +0.011 A 
ATOM     25  C   UNL     1      -9.087   8.150   2.102  0.00  0.00    +0.024 A 
BRANCH  20  27
ATOM     26  C   UNL     1     -12.214   9.608   3.578  0.00  0.00    +0.129 C 
ATOM     27  N   UNL     1     -11.286   8.988   2.628  0.00  0.00    -0.336 N 
ATOM     28  C   UNL     1     -11.745   8.630   1.284  0.00  0.00    +0.129 C 
ENDBRANCH  20  27
ENDBRANCH  18  23
ENDBRANCH  14  19
ENDBRANCH   1  15
BRANCH   2  29
ATOM     29  C   UNL     1      -0.757   5.308   1.000  0.00  0.00    -0.020 C 
BRANCH  29  36
ATOM     30  C   UNL     1      -0.410   2.970   1.568  0.00  0.00    -0.078 C 
ATOM     31  C   UNL     1      -0.855   1.550   1.339  0.00  0.00    -0.019 C 
ATOM     32  C   UNL     1      -0.183   1.029   0.052  0.00  0.00    -0.002 C 
ATOM     33  C   UNL     1      -0.850   1.515  -1.151  0.00  0.00    -0.002 C 
ATOM     34  C   UNL     1      -0.817   3.054  -1.255  0.00  0.00    -0.019 C 
ATOM     35  C   UNL     1      -1.872   3.617  -0.343  0.00  0.00    -0.078 C 
ATOM     36  N   UNL     1      -1.388   3.978   1.033  0.00  0.00    +0.383 N 
ATOM     37  H   UNL     1      -2.197   4.011   1.663  0.00  0.00    -0.081 HD
ENDBRANCH  29  36
ENDBRANCH   2  29
TORSDOF 6
