REMARK  Name = ZINC40175238
REMARK  9 active torsions:
REMARK  status: ('A' for Active; 'I' for Inactive)
REMARK    1  A    between atoms: C_1  and  C_2
REMARK    2  A    between atoms: C_2  and  C_3
REMARK    3  A    between atoms: C_3  and  C_5
REMARK    4  A    between atoms: C_3  and  N_20
REMARK    5  A    between atoms: N_7  and  C_8
REMARK    6  A    between atoms: C_9  and  C_17
REMARK    7  A    between atoms: C_24  and  C_37
REMARK    8  A    between atoms: N_27  and  C_31
REMARK    9  A    between atoms: C_29  and  C_30
REMARK                            x       y       z     vdW  Elec       q    Type
REMARK                         _______ _______ _______ _____ _____    ______ ____
ROOT
ATOM      1  C   UNL     1       0.535   0.534  -0.907  0.00  0.00    +0.178 C 
ENDROOT
BRANCH   1   2
ATOM      2  N   UNL     1      -0.263   0.851  -2.094  0.00  0.00    -0.281 N 
ATOM      3  C   UNL     1      -1.604   0.910  -1.999  0.00  0.00    +0.254 A 
ATOM      4  O   UNL     1      -2.142   0.701  -0.924  0.00  0.00    -0.268 OA
ATOM      5  C   UNL     1      -2.394   1.213  -3.124  0.00  0.00    +0.074 A 
ATOM      6  C   UNL     1      -1.803   1.448  -4.325  0.00  0.00    -0.033 A 
ATOM      7  C   UNL     1      -0.394   1.385  -4.423  0.00  0.00    +0.043 A 
ATOM      8  C   UNL     1       0.362   1.088  -3.288  0.00  0.00    +0.148 A 
ATOM      9  N   UNL     1       1.667   1.101  -3.669  0.00  0.00    -0.215 N 
ATOM     10  N   UNL     1       1.724   1.410  -5.033  0.00  0.00    -0.169 NA
ATOM     11  C   UNL     1       0.514   1.571  -5.492  0.00  0.00    +0.070 A 
ATOM     12  C   UNL     1       0.148   1.915  -6.912  0.00  0.00    +0.068 C 
ATOM     13  C   UNL     1      -2.639   1.772  -5.536  0.00  0.00    +0.045 C 
BRANCH   9  14
ATOM     14  C   UNL     1       2.767   0.849  -2.838  0.00  0.00    +0.068 A 
ATOM     15  C   UNL     1       2.856  -0.352  -2.148  0.00  0.00    +0.028 A 
ATOM     16  C   UNL     1       3.942  -0.598  -1.330  0.00  0.00    +0.002 A 
ATOM     17  C   UNL     1       4.939   0.350  -1.198  0.00  0.00    +0.000 A 
ATOM     18  C   UNL     1       4.853   1.548  -1.885  0.00  0.00    +0.002 A 
ATOM     19  C   UNL     1       3.772   1.798  -2.708  0.00  0.00    +0.028 A 
ENDBRANCH   9  14
ENDBRANCH   1   2
BRANCH   1  20
ATOM     20  C   UNL     1       0.258  -0.884  -0.478  0.00  0.00    +0.241 C 
ATOM     21  O   UNL     1      -0.529  -1.563  -1.103  0.00  0.00    -0.273 OA
ATOM     22  N   UNL     1       0.884  -1.398   0.599  0.00  0.00    -0.278 N 
ATOM     23  H   UNL     1       1.514  -0.855   1.099  0.00  0.00    +0.155 HD
BRANCH  22  24
ATOM     24  C   UNL     1       0.629  -2.702   0.993  0.00  0.00    +0.084 A 
ATOM     25  C   UNL     1       1.171  -3.389   2.068  0.00  0.00    +0.068 A 
ATOM     26  C   UNL     1       0.735  -4.761   2.267  0.00  0.00    -0.023 A 
ATOM     27  C   UNL     1      -0.162  -5.194   1.355  0.00  0.00    -0.004 A 
ATOM     28  S   UNL     1      -0.413  -3.811   0.281  0.00  0.00    -0.077 S 
ATOM     29  C   UNL     1      -0.795  -6.549   1.289  0.00  0.00    +0.043 C 
ATOM     30  C   UNL     1       0.007  -7.500   2.189  0.00  0.00    +0.005 C 
ATOM     31  C   UNL     1       0.235  -6.826   3.545  0.00  0.00    +0.005 C 
ATOM     32  C   UNL     1       1.219  -5.665   3.391  0.00  0.00    +0.037 C 
BRANCH  25  33
ATOM     33  C   UNL     1       2.143  -2.759   2.966  0.00  0.00    +0.244 C 
ATOM     34  O   UNL     1       1.760  -2.158   3.952  0.00  0.00    -0.270 OA
ATOM     35  N   UNL     1       3.461  -2.844   2.699  0.00  0.00    -0.325 N 
ATOM     36  H   UNL     1       3.767  -3.323   1.913  0.00  0.00    +0.145 HD
ATOM     37  H   UNL     1       4.104  -2.427   3.293  0.00  0.00    +0.145 HD
ENDBRANCH  25  33
ENDBRANCH  22  24
ENDBRANCH   1  20
BRANCH   1  39
ATOM     38  C   UNL     1       0.507   2.925  -0.182  0.00  0.00    +0.006 C 
ATOM     39  C   UNL     1       0.165   1.491   0.228  0.00  0.00    +0.031 C 
ENDBRANCH   1  39
TORSDOF 6
