REMARK  Name = ZINC59309477
REMARK  8 active torsions:
REMARK  status: ('A' for Active; 'I' for Inactive)
REMARK    1  A    between atoms: C_1  and  C_2
REMARK    2  A    between atoms: C_2  and  C_25
REMARK    3  A    between atoms: N_3  and  N_4
REMARK    4  A    between atoms: C_7  and  S_10
REMARK    5  A    between atoms: S_10  and  C_11
REMARK    6  A    between atoms: C_11  and  C_12
REMARK    7  A    between atoms: N_14  and  C_15
REMARK    8  A    between atoms: C_28  and  N_31
REMARK                            x       y       z     vdW  Elec       q    Type
REMARK                         _______ _______ _______ _____ _____    ______ ____
ROOT
ATOM      1  N   UNL     1       0.049   0.036   2.340  0.00  0.00    -0.205 N 
ATOM      2  C   UNL     1       0.067  -0.662   3.534  0.00  0.00    +0.232 A 
ATOM      3  N   UNL     1       0.082  -1.972   3.664  0.00  0.00    -0.186 NA
ATOM      4  C   UNL     1       0.097  -2.295   4.962  0.00  0.00    +0.211 A 
ATOM      5  N   UNL     1       0.091  -1.194   5.675  0.00  0.00    -0.144 NA
ATOM      6  N   UNL     1       0.077  -0.120   4.770  0.00  0.00    -0.245 N 
ATOM      7  H   UNL     1       0.043   1.006   2.346  0.00  0.00    +0.177 HD
ATOM      8  H   UNL     1       0.074   0.825   4.990  0.00  0.00    +0.192 HD
ENDROOT
BRANCH   1  11
ATOM      9  C   UNL     1       0.014   1.504   0.011  0.00  0.00    +0.068 C 
ATOM     10  C   UNL     1       0.023  -0.003   0.003  0.00  0.00    +0.063 C 
ATOM     11  N   UNL     1       0.040  -0.658   1.123  0.00  0.00    -0.184 NA
BRANCH  10  12
ATOM     12  C   UNL     1       0.013  -0.733  -1.278  0.00  0.00    -0.002 A 
ATOM     13  C   UNL     1       0.001  -0.029  -2.486  0.00  0.00    +0.011 A 
ATOM     14  C   UNL     1      -0.008  -0.715  -3.680  0.00  0.00    +0.023 A 
ATOM     15  C   UNL     1      -0.004  -2.105  -3.686  0.00  0.00    +0.025 A 
ATOM     16  C   UNL     1       0.007  -2.809  -2.487  0.00  0.00    +0.023 A 
ATOM     17  C   UNL     1       0.022  -2.130  -1.288  0.00  0.00    +0.011 A 
BRANCH  15  18
ATOM     18  N   UNL     1      -0.013  -2.796  -4.898  0.00  0.00    -0.358 N 
ATOM     19  H   UNL     1      -0.021  -2.307  -5.736  0.00  0.00    +0.142 HD
ATOM     20  H   UNL     1      -0.011  -3.766  -4.904  0.00  0.00    +0.142 HD
ENDBRANCH  15  18
ENDBRANCH  10  12
ENDBRANCH   1  11
BRANCH   4  21
ATOM     21  S   UNL     1       0.119  -3.933   5.609  0.00  0.00    -0.075 S 
BRANCH  21  22
ATOM     22  C   UNL     1       0.132  -3.695   7.407  0.00  0.00    +0.173 C 
BRANCH  22  23
ATOM     23  C   UNL     1       0.152  -5.037   8.092  0.00  0.00    +0.227 C 
ATOM     24  O   UNL     1       0.157  -6.054   7.432  0.00  0.00    -0.275 OA
ATOM     25  N   UNL     1       0.165  -5.107   9.438  0.00  0.00    -0.285 N 
ATOM     26  H   UNL     1       0.228  -4.295   9.965  0.00  0.00    +0.155 HD
BRANCH  25  27
ATOM     27  C   UNL     1       0.085  -6.352  10.076  0.00  0.00    +0.037 A 
ATOM     28  C   UNL     1      -0.606  -6.476  11.274  0.00  0.00    +0.027 A 
ATOM     29  C   UNL     1      -0.684  -7.703  11.903  0.00  0.00    +0.051 A 
ATOM     30  C   UNL     1      -0.073  -8.814  11.341  0.00  0.00    +0.162 A 
ATOM     31  C   UNL     1       0.617  -8.694  10.141  0.00  0.00    +0.164 A 
ATOM     32  C   UNL     1       0.692  -7.463   9.507  0.00  0.00    +0.072 A 
ATOM     33  O   UNL     1       1.216  -9.775   9.570  0.00  0.00    -0.485 OA
ATOM     34  C   UNL     1       1.433 -10.911  10.414  0.00  0.00    +0.270 C 
ATOM     35  C   UNL     1       0.143 -11.179  11.200  0.00  0.00    +0.270 C 
ATOM     36  O   UNL     1      -0.158 -10.015  11.978  0.00  0.00    -0.485 OA
ENDBRANCH  25  27
ENDBRANCH  22  23
ENDBRANCH  21  22
ENDBRANCH   4  21
TORSDOF 7
