REMARK  Name = ZINC15984338
REMARK  8 active torsions:
REMARK  status: ('A' for Active; 'I' for Inactive)
REMARK    1  A    between atoms: C_1  and  C_2
REMARK    2  A    between atoms: C_2  and  C_3
REMARK    3  A    between atoms: C_3  and  N_4
REMARK    4  A    between atoms: C_13  and  C_15
REMARK    5  A    between atoms: N_17  and  C_18
REMARK    6  A    between atoms: C_23  and  O_24
REMARK    7  A    between atoms: O_24  and  C_25
REMARK    8  A    between atoms: C_28  and  C_31
REMARK                            x       y       z     vdW  Elec       q    Type
REMARK                         _______ _______ _______ _____ _____    ______ ____
ROOT
ATOM      1  C   UNL     1       1.484   6.039   2.582  0.00  0.00    +0.269 C 
ATOM      2  O   UNL     1       1.578   7.249   2.649  0.00  0.00    -0.268 OA
ATOM      3  N   UNL     1       2.443   5.258   3.115  0.00  0.00    -0.277 N 
ATOM      4  H   UNL     1       2.329   4.295   3.136  0.00  0.00    +0.155 HD
ENDROOT
BRANCH   1  14
ATOM      5  N   UNL     1      -0.768   3.512   1.279  0.00  0.00    -0.228 N 
ATOM      6  C   UNL     1      -1.804   4.146   0.694  0.00  0.00    +0.275 A 
ATOM      7  O   UNL     1      -2.705   3.516   0.171  0.00  0.00    -0.266 OA
ATOM      8  C   UNL     1      -1.823   5.616   0.706  0.00  0.00    +0.050 A 
ATOM      9  C   UNL     1      -2.847   6.363   0.134  0.00  0.00    +0.014 A 
ATOM     10  C   UNL     1      -2.787   7.740   0.183  0.00  0.00    +0.001 A 
ATOM     11  C   UNL     1      -1.719   8.383   0.795  0.00  0.00    +0.001 A 
ATOM     12  C   UNL     1      -0.694   7.660   1.367  0.00  0.00    +0.011 A 
ATOM     13  C   UNL     1      -0.735   6.270   1.329  0.00  0.00    +0.020 A 
ATOM     14  C   UNL     1       0.318   5.425   1.915  0.00  0.00    +0.154 A 
ATOM     15  N   UNL     1       0.209   4.121   1.839  0.00  0.00    -0.163 NA
BRANCH   5  16
ATOM     16  C   UNL     1      -0.756   2.047   1.268  0.00  0.00    +0.147 C 
BRANCH  16  18
ATOM     17  C   UNL     1      -0.030   0.022  -0.002  0.00  0.00    +0.005 C 
ATOM     18  C   UNL     1      -0.042   1.552   0.009  0.00  0.00    +0.020 C 
ENDBRANCH  16  18
ENDBRANCH   5  16
ENDBRANCH   1  14
BRANCH   3  19
ATOM     19  C   UNL     1       3.605   5.836   3.640  0.00  0.00    +0.076 A 
ATOM     20  C   UNL     1       4.030   7.077   3.188  0.00  0.00    +0.027 A 
ATOM     21  C   UNL     1       5.175   7.648   3.711  0.00  0.00    +0.002 A 
ATOM     22  C   UNL     1       5.905   6.981   4.677  0.00  0.00    +0.004 A 
ATOM     23  C   UNL     1       5.492   5.741   5.129  0.00  0.00    +0.048 A 
ATOM     24  C   UNL     1       4.342   5.164   4.614  0.00  0.00    +0.150 A 
BRANCH  24  25
ATOM     25  O   UNL     1       3.934   3.945   5.056  0.00  0.00    -0.454 OA
BRANCH  25  26
ATOM     26  C   UNL     1       4.620   3.376   6.082  0.00  0.00    +0.129 A 
ATOM     27  C   UNL     1       5.334   2.204   5.875  0.00  0.00    +0.046 A 
ATOM     28  C   UNL     1       6.035   1.631   6.919  0.00  0.00    +0.007 A 
ATOM     29  C   UNL     1       6.017   2.218   8.171  0.00  0.00    -0.050 A 
ATOM     30  C   UNL     1       5.303   3.383   8.380  0.00  0.00    +0.007 A 
ATOM     31  C   UNL     1       4.604   3.964   7.339  0.00  0.00    +0.046 A 
ATOM     32  C   UNL     1       6.777   1.587   9.308  0.00  0.00    +0.044 C 
ENDBRANCH  25  26
ENDBRANCH  24  25
ENDBRANCH   3  19
TORSDOF 6
