REMARK  Name = ZINC38655902
REMARK  9 active torsions:
REMARK  status: ('A' for Active; 'I' for Inactive)
REMARK    1  A    between atoms: C_1  and  C_2
REMARK    2  A    between atoms: C_2  and  C_4
REMARK    3  A    between atoms: C_2  and  O_29
REMARK    4  A    between atoms: C_4  and  O_6
REMARK    5  A    between atoms: O_6  and  C_7
REMARK    6  A    between atoms: C_14  and  N_28
REMARK    7  A    between atoms: C_15  and  C_26
REMARK    8  A    between atoms: C_16  and  C_18
REMARK    9  A    between atoms: O_29  and  C_30
REMARK                            x       y       z     vdW  Elec       q    Type
REMARK                         _______ _______ _______ _____ _____    ______ ____
ROOT
ATOM      1  C   UNL     1      -3.569  -1.321  -0.306  0.00  0.00    +0.135 A 
ATOM      2  C   UNL     1      -3.678  -1.658   1.036  0.00  0.00    +0.047 A 
ATOM      3  C   UNL     1      -4.801  -2.320   1.492  0.00  0.00    +0.012 A 
ATOM      4  C   UNL     1      -5.819  -2.651   0.617  0.00  0.00    +0.008 A 
ATOM      5  C   UNL     1      -5.716  -2.317  -0.725  0.00  0.00    +0.138 A 
ATOM      6  C   UNL     1      -4.590  -1.645  -1.184  0.00  0.00    +0.093 A 
ATOM      7  O   UNL     1      -6.704  -2.632  -1.598  0.00  0.00    -0.441 OA
ATOM      8  C   UNL     1      -7.597  -3.585  -1.284  0.00  0.00    +0.199 C 
ATOM      9  C   UNL     1      -7.802  -3.983  -0.006  0.00  0.00    +0.098 C 
ATOM     10  C   UNL     1      -7.035  -3.373   1.134  0.00  0.00    +0.098 C 
ENDROOT
BRANCH  10  11
ATOM     11  C   UNL     1      -7.921  -2.398   1.866  0.00  0.00    -0.033 A 
ATOM     12  C   UNL     1      -8.443  -1.305   1.201  0.00  0.00    +0.006 A 
ATOM     13  C   UNL     1      -9.255  -0.410   1.872  0.00  0.00    +0.022 A 
ATOM     14  C   UNL     1      -9.546  -0.609   3.210  0.00  0.00    +0.059 A 
ATOM     15  C   UNL     1      -9.023  -1.704   3.876  0.00  0.00    +0.060 A 
ATOM     16  C   UNL     1      -8.215  -2.602   3.201  0.00  0.00    +0.026 A 
ATOM     17 CL   UNL     1      -9.387  -1.954   5.555  0.00  0.00    -0.082 Cl
ATOM     18 CL   UNL     1     -10.565   0.515   4.053  0.00  0.00    -0.082 Cl
ENDBRANCH  10  11
BRANCH   8  19
ATOM     19  N   UNL     1      -8.324  -4.173  -2.289  0.00  0.00    -0.328 N 
ATOM     20  H   UNL     1      -8.189  -3.899  -3.210  0.00  0.00    +0.145 HD
ATOM     21  H   UNL     1      -8.973  -4.863  -2.078  0.00  0.00    +0.145 HD
ENDBRANCH   8  19
BRANCH   9  22
ATOM     22  C   UNL     1      -8.768  -5.004   0.265  0.00  0.00    +0.101 C 
ATOM     23  N   UNL     1      -9.535  -5.814   0.480  0.00  0.00    -0.191 NA
ENDBRANCH   9  22
BRANCH   1  24
ATOM     24  O   UNL     1      -2.465  -0.669  -0.756  0.00  0.00    -0.423 OA
BRANCH  24  25
ATOM     25  C   UNL     1      -1.338  -1.379  -0.924  0.00  0.00    +0.353 C 
ATOM     26  O   UNL     1      -1.340  -2.571  -0.726  0.00  0.00    -0.246 OA
BRANCH  25  28
ATOM     27  C   UNL     1       0.380   0.284  -0.267  0.00  0.00    +0.064 C 
ATOM     28  C   UNL     1      -0.070  -0.689  -1.358  0.00  0.00    +0.279 C 
BRANCH  28  29
ATOM     29  O   UNL     1       0.951  -1.664  -1.578  0.00  0.00    -0.475 OA
BRANCH  29  30
ATOM     30  C   UNL     1       1.969  -1.316  -2.409  0.00  0.00    +0.157 A 
ATOM     31  C   UNL     1       2.009  -0.045  -2.963  0.00  0.00    +0.048 A 
ATOM     32  C   UNL     1       3.044   0.307  -3.808  0.00  0.00    +0.004 A 
ATOM     33  C   UNL     1       4.040  -0.606  -4.102  0.00  0.00    +0.003 A 
ATOM     34  C   UNL     1       4.004  -1.874  -3.552  0.00  0.00    +0.042 A 
ATOM     35  C   UNL     1       2.973  -2.230  -2.700  0.00  0.00    +0.165 A 
ATOM     36  F   UNL     1       2.941  -3.467  -2.158  0.00  0.00    -0.202 F 
ENDBRANCH  29  30
ENDBRANCH  28  29
ENDBRANCH  25  28
ENDBRANCH  24  25
ENDBRANCH   1  24
TORSDOF 8
