REMARK  Name = ZINC14003247
REMARK  8 active torsions:
REMARK  status: ('A' for Active; 'I' for Inactive)
REMARK    1  A    between atoms: C_1  and  C_2
REMARK    2  A    between atoms: C_5  and  C_8
REMARK    3  A    between atoms: C_9  and  C_10
REMARK    4  A    between atoms: N_12  and  C_13
REMARK    5  A    between atoms: C_13  and  N_15
REMARK    6  A    between atoms: N_15  and  N_16
REMARK    7  A    between atoms: C_17  and  C_19
REMARK    8  A    between atoms: C_19  and  C_20
REMARK                            x       y       z     vdW  Elec       q    Type
REMARK                         _______ _______ _______ _____ _____    ______ ____
ROOT
ATOM      1  C   UNL     1       3.524   1.904  -0.021  0.00  0.00    +0.153 C 
ATOM      2  S   UNL     1       5.018   1.068  -0.040  0.00  0.00    -0.017 S 
ENDROOT
BRANCH   1   5
ATOM      3  C   UNL     1       4.664   3.941  -0.021  0.00  0.00    +0.242 C 
ATOM      4  O   UNL     1       5.726   3.348  -0.035  0.00  0.00    -0.270 OA
ATOM      5  N   UNL     1       3.506   3.252  -0.014  0.00  0.00    -0.263 N 
ATOM      6  H   UNL     1       2.659   3.725  -0.003  0.00  0.00    +0.157 HD
BRANCH   3   8
ATOM      7  C   UNL     1       5.803   6.095  -0.021  0.00  0.00    +0.013 C 
ATOM      8  C   UNL     1       4.644   5.404  -0.013  0.00  0.00    +0.068 C 
BRANCH   7  13
ATOM      9  C   UNL     1       5.725  11.843   0.009  0.00  0.00    +0.044 C 
ATOM     10  C   UNL     1       5.745  10.336   0.002  0.00  0.00    -0.050 A 
ATOM     11  C   UNL     1       6.955   9.664  -0.013  0.00  0.00    +0.004 A 
ATOM     12  C   UNL     1       6.982   8.286  -0.020  0.00  0.00    +0.008 A 
ATOM     13  C   UNL     1       5.783   7.566  -0.013  0.00  0.00    -0.025 A 
ATOM     14  C   UNL     1       4.564   8.253  -0.003  0.00  0.00    +0.008 A 
ATOM     15  C   UNL     1       4.554   9.631   0.009  0.00  0.00    +0.004 A 
ENDBRANCH   7  13
ENDBRANCH   3   8
ENDBRANCH   1   5
BRANCH   1  16
ATOM     16  N   UNL     1       2.366   1.214  -0.014  0.00  0.00    -0.246 N 
ATOM     17  H   UNL     1       2.379   0.244  -0.019  0.00  0.00    +0.172 HD
BRANCH  16  18
ATOM     18  N   UNL     1       1.143   1.898   0.001  0.00  0.00    -0.235 N 
ATOM     19  C   UNL     1      -0.014   1.209   0.009  0.00  0.00    +0.233 C 
ATOM     20  O   UNL     1       0.002  -0.004   0.002  0.00  0.00    -0.274 OA
ATOM     21  H   UNL     1       1.130   2.868   0.007  0.00  0.00    +0.173 HD
BRANCH  19  22
ATOM     22  C   UNL     1      -1.330   1.944   0.019  0.00  0.00    +0.132 C 
BRANCH  22  23
ATOM     23  C   UNL     1      -2.462   0.950   0.019  0.00  0.00    -0.038 A 
ATOM     24  C   UNL     1      -2.990   0.504  -1.178  0.00  0.00    +0.005 A 
ATOM     25  C   UNL     1      -4.024  -0.412  -1.179  0.00  0.00    +0.020 A 
ATOM     26  C   UNL     1      -4.539  -0.876   0.019  0.00  0.00    +0.041 A 
ATOM     27  C   UNL     1      -4.013  -0.425   1.217  0.00  0.00    +0.020 A 
ATOM     28  C   UNL     1      -2.975   0.487   1.216  0.00  0.00    +0.005 A 
ATOM     29 CL   UNL     1      -5.842  -2.022   0.019  0.00  0.00    -0.084 Cl
ENDBRANCH  22  23
ENDBRANCH  19  22
ENDBRANCH  16  18
ENDBRANCH   1  16
TORSDOF 7
