REMARK  Name = ZINC08814024
REMARK  10 active torsions:
REMARK  status: ('A' for Active; 'I' for Inactive)
REMARK    1  A    between atoms: C_1  and  C_2
REMARK    2  A    between atoms: C_2  and  N_3
REMARK    3  A    between atoms: N_3  and  C_4
REMARK    4  A    between atoms: N_3  and  C_30
REMARK    5  A    between atoms: C_4  and  C_5
REMARK    6  A    between atoms: C_5  and  N_6
REMARK    7  A    between atoms: C_7  and  C_9
REMARK    8  A    between atoms: C_9  and  N_10
REMARK    9  A    between atoms: C_13  and  S_21
REMARK   10  A    between atoms: S_21  and  N_24
REMARK                            x       y       z     vdW  Elec       q    Type
REMARK                         _______ _______ _______ _____ _____    ______ ____
ROOT
ATOM      1  N   UNL     1       2.352   3.916   0.011  0.00  0.00    -0.261 N 
ATOM      2  C   UNL     1       1.166   3.186  -0.002  0.00  0.00    +0.052 A 
ATOM      3  C   UNL     1      -0.051   3.857  -0.001  0.00  0.00    +0.053 A 
ATOM      4  C   UNL     1      -1.237   3.148  -0.007  0.00  0.00    +0.107 A 
ATOM      5  C   UNL     1      -1.226   1.766  -0.021  0.00  0.00    +0.030 A 
ATOM      6  C   UNL     1      -0.023   1.085  -0.018  0.00  0.00    +0.018 A 
ATOM      7  C   UNL     1       1.169   1.790  -0.013  0.00  0.00    +0.030 A 
ATOM      8  S   UNL     1       2.712   0.933  -0.026  0.00  0.00    -0.114 S 
ATOM      9  C   UNL     1       3.801   2.096  -0.903  0.00  0.00    +0.170 C 
ATOM     10  C   UNL     1       3.547   3.484  -0.382  0.00  0.00    +0.230 C 
ATOM     11  O   UNL     1       4.484   4.252  -0.317  0.00  0.00    -0.274 OA
ENDROOT
BRANCH   4  12
ATOM     12  S   UNL     1      -2.772   4.012  -0.006  0.00  0.00    +0.061 S 
ATOM     13  O   UNL     1      -3.738   3.123   0.538  0.00  0.00    -0.153 OA
ATOM     14  O   UNL     1      -2.517   5.294   0.552  0.00  0.00    -0.153 OA
BRANCH  12  15
ATOM     15  N   UNL     1      -3.196   4.261  -1.588  0.00  0.00    -0.177 NA
ATOM     16  C   UNL     1      -2.772   5.478  -2.293  0.00  0.00    +0.109 C 
ATOM     17  C   UNL     1      -2.055   5.067  -3.588  0.00  0.00    +0.017 C 
ATOM     18  C   UNL     1      -2.973   4.154  -4.405  0.00  0.00    +0.003 C 
ATOM     19  C   UNL     1      -3.280   2.888  -3.603  0.00  0.00    +0.017 C 
ATOM     20  C   UNL     1      -4.007   3.271  -2.310  0.00  0.00    +0.109 C 
ENDBRANCH  12  15
ENDBRANCH   4  12
BRANCH   1  21
ATOM     21  C   UNL     1       2.275   5.294   0.504  0.00  0.00    +0.209 C 
BRANCH  21  23
ATOM     22  N   UNL     1       1.991   7.561  -0.445  0.00  0.00    -0.313 N 
ATOM     23  C   UNL     1       2.088   6.234  -0.659  0.00  0.00    +0.231 C 
ATOM     24  O   UNL     1       2.025   5.796  -1.789  0.00  0.00    -0.274 OA
ATOM     25  H   UNL     1       2.041   7.911   0.459  0.00  0.00    +0.149 HD
BRANCH  22  26
ATOM     26  C   UNL     1       1.809   8.474  -1.575  0.00  0.00    +0.123 C 
BRANCH  26  27
ATOM     27  C   UNL     1       1.729   9.913  -1.060  0.00  0.00    +0.124 C 
BRANCH  27  28
ATOM     28  N   UNL     1       1.547  10.827  -2.191  0.00  0.00    -0.329 N 
BRANCH  28  29
ATOM     29  C   UNL     1       0.260  11.157  -2.622  0.00  0.00    +0.030 A 
ATOM     30  C   UNL     1      -0.848  10.615  -1.984  0.00  0.00    +0.023 A 
ATOM     31  C   UNL     1      -2.119  10.948  -2.410  0.00  0.00    +0.002 A 
ATOM     32  C   UNL     1      -2.289  11.810  -3.477  0.00  0.00    +0.000 A 
ATOM     33  C   UNL     1      -1.188  12.347  -4.118  0.00  0.00    +0.002 A 
ATOM     34  C   UNL     1       0.086  12.023  -3.694  0.00  0.00    +0.023 A 
ENDBRANCH  28  29
BRANCH  28  36
ATOM     35  C   UNL     1       3.138  10.471  -4.014  0.00  0.00    +0.024 C 
ATOM     36  C   UNL     1       2.715  11.394  -2.869  0.00  0.00    +0.102 C 
ENDBRANCH  28  36
ENDBRANCH  27  28
ENDBRANCH  26  27
ENDBRANCH  22  26
ENDBRANCH  21  23
ENDBRANCH   1  21
TORSDOF 9
