REMARK  Name = ZINC15839320
REMARK  10 active torsions:
REMARK  status: ('A' for Active; 'I' for Inactive)
REMARK    1  A    between atoms: C_1  and  C_2
REMARK    2  A    between atoms: C_2  and  C_3
REMARK    3  A    between atoms: C_3  and  C_35
REMARK    4  A    between atoms: N_18  and  C_33
REMARK    5  A    between atoms: C_20  and  S_21
REMARK    6  A    between atoms: S_21  and  C_22
REMARK    7  A    between atoms: C_22  and  C_23
REMARK    8  A    between atoms: N_25  and  C_26
REMARK    9  A    between atoms: C_26  and  C_27
REMARK   10  A    between atoms: C_33  and  C_34
REMARK                            x       y       z     vdW  Elec       q    Type
REMARK                         _______ _______ _______ _____ _____    ______ ____
ROOT
ATOM      1  C   UNL     1      -1.844   4.646   0.055  0.00  0.00    +0.004 C 
ATOM      2  C   UNL     1      -1.663   6.055  -0.506  0.00  0.00    +0.047 C 
ATOM      3  C   UNL     1      -0.316   6.607  -0.127  0.00  0.00    -0.037 A 
ATOM      4  C   UNL     1      -0.165   7.951   0.150  0.00  0.00    +0.004 A 
ATOM      5  C   UNL     1       1.078   8.453   0.491  0.00  0.00    +0.000 A 
ATOM      6  C   UNL     1       2.178   7.616   0.558  0.00  0.00    +0.001 A 
ATOM      7  C   UNL     1       2.040   6.269   0.285  0.00  0.00    +0.010 A 
ATOM      8  C   UNL     1       0.791   5.760  -0.057  0.00  0.00    +0.004 A 
ATOM      9  C   UNL     1       0.611   4.320  -0.351  0.00  0.00    +0.084 A 
ATOM     10  C   UNL     1      -0.670   3.779  -0.302  0.00  0.00    +0.050 A 
ATOM     11  C   UNL     1      -0.840   2.423  -0.584  0.00  0.00    +0.266 A 
ATOM     12  O   UNL     1      -1.949   1.914  -0.548  0.00  0.00    -0.267 OA
ATOM     13  N   UNL     1       0.246   1.684  -0.898  0.00  0.00    -0.222 N 
ATOM     14  C   UNL     1       1.482   2.259  -0.930  0.00  0.00    +0.237 A 
ATOM     15  N   UNL     1       1.650   3.545  -0.662  0.00  0.00    -0.211 NA
ATOM     16  N   UNL     1       2.370   1.283  -1.265  0.00  0.00    -0.230 N 
ATOM     17  N   UNL     1       1.642   0.098  -1.438  0.00  0.00    -0.143 NA
ATOM     18  C   UNL     1       0.385   0.351  -1.216  0.00  0.00    +0.198 A 
ATOM     19  C   UNL     1      -3.120   4.033  -0.524  0.00  0.00    +0.016 C 
ENDROOT
BRANCH   1  21
ATOM     20  C   UNL     1      -2.151   3.314   2.146  0.00  0.00    +0.005 C 
ATOM     21  C   UNL     1      -1.969   4.723   1.578  0.00  0.00    +0.008 C 
ENDBRANCH   1  21
BRANCH  16  22
ATOM     22  C   UNL     1       3.818   1.442  -1.418  0.00  0.00    +0.144 C 
ATOM     23  C   UNL     1       4.504   1.182  -0.076  0.00  0.00    +0.029 C 
ENDBRANCH  16  22
BRANCH  18  24
ATOM     24  S   UNL     1      -0.927  -0.822  -1.309  0.00  0.00    -0.076 S 
BRANCH  24  25
ATOM     25  C   UNL     1       0.007  -2.303  -1.766  0.00  0.00    +0.173 C 
BRANCH  25  26
ATOM     26  C   UNL     1      -0.937  -3.469  -1.905  0.00  0.00    +0.224 C 
ATOM     27  O   UNL     1      -2.124  -3.314  -1.715  0.00  0.00    -0.275 OA
ATOM     28  N   UNL     1      -0.462  -4.685  -2.241  0.00  0.00    -0.311 N 
ATOM     29  H   UNL     1       0.488  -4.809  -2.394  0.00  0.00    +0.149 HD
BRANCH  28  30
ATOM     30  C   UNL     1      -1.379  -5.819  -2.377  0.00  0.00    +0.139 C 
BRANCH  30  31
ATOM     31  C   UNL     1      -0.602  -7.052  -2.757  0.00  0.00    -0.030 A 
ATOM     32  C   UNL     1      -0.401  -7.359  -4.090  0.00  0.00    +0.005 A 
ATOM     33  C   UNL     1       0.317  -8.488  -4.439  0.00  0.00    +0.000 A 
ATOM     34  C   UNL     1       0.825  -9.315  -3.454  0.00  0.00    +0.000 A 
ATOM     35  C   UNL     1       0.620  -9.011  -2.122  0.00  0.00    +0.000 A 
ATOM     36  C   UNL     1      -0.093  -7.879  -1.773  0.00  0.00    +0.005 A 
ENDBRANCH  30  31
ENDBRANCH  28  30
ENDBRANCH  25  26
ENDBRANCH  24  25
ENDBRANCH  18  24
TORSDOF 7
