REMARK  Name = ZINC05377818
REMARK  7 active torsions:
REMARK  status: ('A' for Active; 'I' for Inactive)
REMARK    1  A    between atoms: C_1  and  C_2
REMARK    2  A    between atoms: C_2  and  C_15
REMARK    3  A    between atoms: N_3  and  N_4
REMARK    4  A    between atoms: C_8  and  C_13
REMARK    5  A    between atoms: C_8  and  C_14
REMARK    6  A    between atoms: C_10  and  C_11
REMARK    7  A    between atoms: C_10  and  O_12
REMARK                            x       y       z     vdW  Elec       q    Type
REMARK                         _______ _______ _______ _____ _____    ______ ____
ROOT
ATOM      1  N   UNL     1      -3.447   1.685   0.365  0.00  0.00    -0.173 N 
ATOM      2  C   UNL     1      -2.562   1.155  -0.492  0.00  0.00    +0.156 C 
ATOM      3  S   UNL     1      -0.965   0.864   0.050  0.00  0.00    -0.017 S 
ATOM      4  N   UNL     1      -2.879   0.843  -1.758  0.00  0.00    -0.320 N 
ATOM      5  C   UNL     1      -4.224   1.079  -2.286  0.00  0.00    +0.032 C 
ATOM      6  C   UNL     1      -5.238   0.984  -1.140  0.00  0.00    +0.081 C 
ATOM      7  C   UNL     1      -4.826   1.963  -0.039  0.00  0.00    +0.154 C 
ATOM      8  C   UNL     1      -5.755   1.800   1.165  0.00  0.00    +0.065 C 
ATOM      9  C   UNL     1      -4.291   2.472  -2.913  0.00  0.00    +0.031 C 
ATOM     10  C   UNL     1      -4.550   0.023  -3.345  0.00  0.00    +0.031 C 
ATOM     11  H   UNL     1      -2.204   0.454  -2.335  0.00  0.00    +0.148 HD
ENDROOT
BRANCH   1  14
ATOM     12  C   UNL     1      -1.760   3.805   0.765  0.00  0.00    +0.062 C 
ATOM     13  C   UNL     1      -2.207   2.915   1.896  0.00  0.00    +0.031 C 
ATOM     14  N   UNL     1      -3.045   1.972   1.676  0.00  0.00    -0.185 NA
ATOM     15  C   UNL     1      -1.667   3.134   3.286  0.00  0.00    +0.062 C 
ENDBRANCH   1  14
BRANCH   7  16
ATOM     16  O   UNL     1      -4.917   3.300  -0.537  0.00  0.00    -0.370 OA
ATOM     17  H   UNL     1      -4.667   3.977   0.107  0.00  0.00    +0.212 HD
ENDBRANCH   7  16
TORSDOF 2
