REMARK  Name = ZINC27576126
REMARK  9 active torsions:
REMARK  status: ('A' for Active; 'I' for Inactive)
REMARK    1  A    between atoms: C_1  and  C_2
REMARK    2  A    between atoms: C_9  and  C_13
REMARK    3  A    between atoms: C_13  and  N_14
REMARK    4  A    between atoms: N_14  and  C_15
REMARK    5  A    between atoms: N_14  and  C_28
REMARK    6  A    between atoms: C_15  and  C_16
REMARK    7  A    between atoms: C_19  and  C_22
REMARK    8  A    between atoms: N_24  and  C_25
REMARK    9  A    between atoms: C_28  and  C_29
REMARK                            x       y       z     vdW  Elec       q    Type
REMARK                         _______ _______ _______ _____ _____    ______ ____
ROOT
ATOM      1  N   UNL     1       1.206   0.587   4.527  0.00  0.00    -0.285 NA
ENDROOT
BRANCH   1   2
ATOM      2  C   UNL     1       0.226  -0.437   4.138  0.00  0.00    +0.138 C 
BRANCH   2  11
ATOM      3  C   UNL     1       0.871   1.232  -0.542  0.00  0.00    +0.047 C 
ATOM      4  C   UNL     1       1.244  -0.228  -0.564  0.00  0.00    -0.009 A 
ATOM      5  C   UNL     1       1.661  -0.813  -1.722  0.00  0.00    +0.008 A 
ATOM      6  C   UNL     1       2.004  -2.173  -1.725  0.00  0.00    +0.019 A 
ATOM      7  C   UNL     1       1.921  -2.897  -0.587  0.00  0.00    +0.096 A 
ATOM      8  N   UNL     1       1.505  -2.322   0.575  0.00  0.00    -0.269 N 
ATOM      9  C   UNL     1       1.170  -0.997   0.612  0.00  0.00    +0.121 A 
ATOM     10  N   UNL     1       0.767  -0.426   1.745  0.00  0.00    -0.343 N 
ATOM     11  C   UNL     1       0.684  -1.115   2.873  0.00  0.00    +0.037 A 
ATOM     12  C   UNL     1       1.018  -2.455   2.890  0.00  0.00    +0.093 A 
ATOM     13  C   UNL     1       1.430  -3.066   1.700  0.00  0.00    +0.258 A 
ATOM     14  O   UNL     1       1.731  -4.249   1.682  0.00  0.00    -0.267 OA
ATOM     15  H   UNL     1       0.530   0.515   1.745  0.00  0.00    +0.167 HD
ENDBRANCH   2  11
ENDBRANCH   1   2
BRANCH   1  16
ATOM     16  C   UNL     1       0.685   1.427   5.614  0.00  0.00    +0.120 C 
BRANCH  16  17
ATOM     17  C   UNL     1      -0.334   2.390   5.060  0.00  0.00    -0.033 A 
ATOM     18  C   UNL     1       0.083   3.576   4.482  0.00  0.00    +0.005 A 
ATOM     19  C   UNL     1      -0.845   4.462   3.974  0.00  0.00    +0.013 A 
ATOM     20  C   UNL     1      -2.206   4.159   4.043  0.00  0.00    +0.037 A 
ATOM     21  C   UNL     1      -2.619   2.960   4.627  0.00  0.00    +0.013 A 
ATOM     22  C   UNL     1      -1.681   2.081   5.127  0.00  0.00    +0.005 A 
BRANCH  20  23
ATOM     23  C   UNL     1      -3.205   5.103   3.500  0.00  0.00    +0.244 C 
ATOM     24  O   UNL     1      -2.843   6.146   2.992  0.00  0.00    -0.270 OA
ATOM     25  N   UNL     1      -4.518   4.808   3.568  0.00  0.00    -0.308 N 
ATOM     26  H   UNL     1      -4.808   3.975   3.974  0.00  0.00    +0.149 HD
BRANCH  25  27
ATOM     27  C   UNL     1      -5.509   5.744   3.031  0.00  0.00    +0.073 C 
ATOM     28  C   UNL     1      -6.760   6.007   3.870  0.00  0.00    +0.024 C 
ATOM     29  C   UNL     1      -6.858   5.170   2.594  0.00  0.00    +0.024 C 
ENDBRANCH  25  27
ENDBRANCH  20  23
ENDBRANCH  16  17
ENDBRANCH   1  16
BRANCH   1  30
ATOM     30  C   UNL     1       2.486  -0.027   4.904  0.00  0.00    +0.159 C 
BRANCH  30  31
ATOM     31  C   UNL     1       3.566   1.025   4.906  0.00  0.00    +0.119 A 
ATOM     32  C   UNL     1       3.998   1.706   5.982  0.00  0.00    +0.046 A 
ATOM     33  C   UNL     1       5.011   2.584   5.531  0.00  0.00    +0.041 A 
ATOM     34  C   UNL     1       5.137   2.385   4.207  0.00  0.00    +0.195 A 
ATOM     35  O   UNL     1       4.264   1.436   3.834  0.00  0.00    -0.467 OA
ENDBRANCH  30  31
ENDBRANCH   1  30
TORSDOF 8
