REMARK  Name = ZINC33290329
REMARK  5 active torsions:
REMARK  status: ('A' for Active; 'I' for Inactive)
REMARK    1  A    between atoms: C_6  and  S_7
REMARK    2  A    between atoms: S_7  and  N_10
REMARK    3  A    between atoms: N_10  and  C_11
REMARK    4  A    between atoms: C_22  and  C_26
REMARK    5  A    between atoms: C_26  and  C_27
REMARK                            x       y       z     vdW  Elec       q    Type
REMARK                         _______ _______ _______ _____ _____    ______ ____
ROOT
ATOM      1  C   UNL     1       1.556   2.514  10.252  0.00  0.00    +0.030 A 
ATOM      2  C   UNL     1       0.442   1.979   9.649  0.00  0.00    +0.018 A 
ATOM      3  C   UNL     1       0.354   1.839   8.257  0.00  0.00    +0.029 A 
ATOM      4  C   UNL     1       1.418   2.250   7.470  0.00  0.00    +0.049 A 
ATOM      5  C   UNL     1       2.547   2.796   8.103  0.00  0.00    +0.053 A 
ATOM      6  C   UNL     1       2.619   2.927   9.469  0.00  0.00    +0.107 A 
ATOM      7  N   UNL     1       1.508   2.186   6.104  0.00  0.00    -0.284 N 
ATOM      8  C   UNL     1       0.786   1.987   5.058  0.00  0.00    +0.222 C 
ATOM      9  O   UNL     1       1.306   2.295   4.006  0.00  0.00    -0.275 OA
ATOM     10  C   UNL     1      -0.591   1.435   4.946  0.00  0.00    +0.094 C 
ATOM     11  C   UNL     1      -1.484   1.899   6.060  0.00  0.00    +0.087 C 
ATOM     12  S   UNL     1      -1.125   1.143   7.638  0.00  0.00    -0.123 S 
ATOM     13  H   UNL     1       2.477   2.341   5.608  0.00  0.00    +0.155 HD
ENDROOT
BRANCH   6  14
ATOM     14  S   UNL     1       4.056   3.616  10.219  0.00  0.00    +0.059 S 
ATOM     15  O   UNL     1       4.093   3.126  11.553  0.00  0.00    -0.153 OA
ATOM     16  O   UNL     1       5.125   3.419   9.305  0.00  0.00    -0.153 OA
BRANCH  14  17
ATOM     17  N   UNL     1       3.817   5.252  10.323  0.00  0.00    -0.187 NA
ATOM     18  H   UNL     1       4.348   5.918   9.627  0.00  0.00    +0.148 HD
BRANCH  17  19
ATOM     19  C   UNL     1       2.753   5.784  11.178  0.00  0.00    +0.077 C 
ATOM     20  C   UNL     1       1.496   6.022  10.339  0.00  0.00    +0.020 C 
ATOM     21  C   UNL     1       0.289   6.190  11.265  0.00  0.00    +0.002 C 
ATOM     22  C   UNL     1       0.337   5.128  12.365  0.00  0.00    +0.000 C 
ATOM     23  C   UNL     1       0.581   5.803  13.716  0.00  0.00    +0.000 C 
ATOM     24  C   UNL     1       2.051   6.212  13.823  0.00  0.00    +0.000 C 
ATOM     25  C   UNL     1       2.297   7.460  12.974  0.00  0.00    +0.002 C 
ATOM     26  C   UNL     1       3.210   7.106  11.798  0.00  0.00    +0.020 C 
ENDBRANCH  17  19
ENDBRANCH  14  17
ENDBRANCH   6  14
BRANCH  10  27
ATOM     27  C   UNL     1      -1.194   1.875   3.611  0.00  0.00    +0.109 C 
BRANCH  27  28
ATOM     28  C   UNL     1      -0.374   1.312   2.479  0.00  0.00    +0.216 C 
ATOM     29  O   UNL     1       0.597   0.626   2.717  0.00  0.00    -0.276 OA
ATOM     30  N   UNL     1      -0.721   1.570   1.202  0.00  0.00    -0.301 N 
ATOM     31  C   UNL     1      -0.013   1.086   0.008  0.00  0.00    +0.108 C 
ATOM     32  C   UNL     1      -0.779   1.607  -1.226  0.00  0.00    +0.020 C 
ATOM     33  C   UNL     1      -2.199   1.882  -0.662  0.00  0.00    +0.020 C 
ATOM     34  C   UNL     1      -1.874   2.383   0.767  0.00  0.00    +0.108 C 
ENDBRANCH  27  28
ENDBRANCH  10  27
TORSDOF 5
