REMARK  Name = ZINC24090668
REMARK  10 active torsions:
REMARK  status: ('A' for Active; 'I' for Inactive)
REMARK    1  A    between atoms: C_1  and  C_2
REMARK    2  A    between atoms: C_2  and  C_3
REMARK    3  A    between atoms: C_2  and  C_4
REMARK    4  A    between atoms: C_9  and  N_10
REMARK    5  A    between atoms: C_14  and  S_15
REMARK    6  A    between atoms: S_15  and  C_16
REMARK    7  A    between atoms: C_16  and  C_17
REMARK    8  A    between atoms: N_19  and  N_20
REMARK    9  A    between atoms: C_23  and  C_27
REMARK   10  A    between atoms: C_23  and  C_28
REMARK                            x       y       z     vdW  Elec       q    Type
REMARK                         _______ _______ _______ _____ _____    ______ ____
ROOT
ATOM      1  C   UNL     1       2.204   3.773   1.127  0.00  0.00    +0.240 C 
ATOM      2  O   UNL     1       2.287   3.108   2.138  0.00  0.00    -0.273 OA
ATOM      3  N   UNL     1       1.700   3.228   0.002  0.00  0.00    -0.223 N 
ATOM      4  H   UNL     1       1.624   3.831  -0.915  0.00  0.00    +0.174 HD
ENDROOT
BRANCH   3   5
ATOM      5  N   UNL     1       1.274   1.894   0.000  0.00  0.00    -0.137 N 
ATOM      6  C   UNL     1      -0.018   1.512   0.010  0.00  0.00    +0.267 C 
ATOM      7  O   UNL     1      -0.995   2.231   0.019  0.00  0.00    -0.271 OA
ATOM      8  C   UNL     1       0.002  -0.004   0.002  0.00  0.00    +0.137 C 
ATOM      9  N   UNL     1       1.438  -0.331  -0.013  0.00  0.00    -0.280 N 
ATOM     10  C   UNL     1       2.099   0.841  -0.013  0.00  0.00    +0.327 C 
ATOM     11  O   UNL     1       3.311   0.933  -0.025  0.00  0.00    -0.251 OA
ATOM     12  C   UNL     1      -0.666  -0.558   1.262  0.00  0.00    +0.047 C 
ATOM     13  H   UNL     1       1.763  -1.382  -0.022  0.00  0.00    +0.152 HD
BRANCH   8  14
ATOM     14  C   UNL     1      -0.676  -0.537  -1.234  0.00  0.00    -0.015 A 
ATOM     15  C   UNL     1      -1.704   0.177  -1.820  0.00  0.00    +0.006 A 
ATOM     16  C   UNL     1      -2.323  -0.309  -2.956  0.00  0.00    +0.000 A 
ATOM     17  C   UNL     1      -1.921  -1.514  -3.501  0.00  0.00    +0.000 A 
ATOM     18  C   UNL     1      -0.896  -2.231  -2.911  0.00  0.00    +0.000 A 
ATOM     19  C   UNL     1      -0.274  -1.742  -1.778  0.00  0.00    +0.006 A 
ENDBRANCH   8  14
ENDBRANCH   3   5
BRANCH   1  20
ATOM     20  C   UNL     1       2.662   5.208   1.130  0.00  0.00    +0.174 C 
BRANCH  20  21
ATOM     21  S   UNL     1       3.282   5.641   2.775  0.00  0.00    -0.078 S 
BRANCH  21  26
ATOM     22  N   UNL     1       4.271   8.166   3.425  0.00  0.00    -0.294 N 
ATOM     23  C   UNL     1       4.477   9.375   2.795  0.00  0.00    +0.113 A 
ATOM     24  C   UNL     1       4.060   9.231   1.526  0.00  0.00    +0.131 A 
ATOM     25  N   UNL     1       3.613   7.974   1.366  0.00  0.00    -0.230 NA
ATOM     26  C   UNL     1       3.736   7.321   2.498  0.00  0.00    +0.174 A 
BRANCH  22  32
ATOM     27  C   UNL     1       5.533   6.921   5.068  0.00  0.00    -0.021 A 
ATOM     28  C   UNL     1       5.816   6.624   6.388  0.00  0.00    +0.006 A 
ATOM     29  C   UNL     1       5.129   7.263   7.403  0.00  0.00    +0.000 A 
ATOM     30  C   UNL     1       4.159   8.202   7.102  0.00  0.00    +0.002 A 
ATOM     31  C   UNL     1       3.877   8.507   5.785  0.00  0.00    +0.026 A 
ATOM     32  C   UNL     1       4.560   7.862   4.763  0.00  0.00    +0.052 A 
BRANCH  27  34
ATOM     33  C   UNL     1       7.778   6.517   4.095  0.00  0.00    +0.012 C 
ATOM     34  C   UNL     1       6.282   6.224   3.961  0.00  0.00    +0.015 C 
ATOM     35  C   UNL     1       6.047   4.716   4.058  0.00  0.00    +0.012 C 
ENDBRANCH  27  34
ENDBRANCH  22  32
ENDBRANCH  21  26
ENDBRANCH  20  21
ENDBRANCH   1  20
TORSDOF 7
