REMARK  Name = ZINC20110040
REMARK  3 active torsions:
REMARK  status: ('A' for Active; 'I' for Inactive)
REMARK    1  A    between atoms: C_18  and  C_21
REMARK    2  A    between atoms: C_24  and  O_30
REMARK    3  A    between atoms: C_25  and  N_27
REMARK                            x       y       z     vdW  Elec       q    Type
REMARK                         _______ _______ _______ _____ _____    ______ ____
ROOT
ATOM      1  C   UNL     1       4.809   5.104   0.328  0.00  0.00    +0.001 A 
ATOM      2  C   UNL     1       3.644   5.734   0.763  0.00  0.00    +0.001 A 
ATOM      3  C   UNL     1       2.458   5.067   0.797  0.00  0.00    +0.009 A 
ATOM      4  C   UNL     1       2.406   3.722   0.387  0.00  0.00    -0.012 A 
ATOM      5  C   UNL     1       3.589   3.082  -0.052  0.00  0.00    -0.017 A 
ATOM      6  C   UNL     1       4.795   3.804  -0.074  0.00  0.00    +0.008 A 
ATOM      7  C   UNL     1       3.541   1.738  -0.460  0.00  0.00    +0.010 A 
ATOM      8  C   UNL     1       2.358   1.070  -0.431  0.00  0.00    +0.024 A 
ATOM      9  C   UNL     1       1.182   1.698  -0.000  0.00  0.00    +0.032 A 
ATOM     10  C   UNL     1       1.188   3.011   0.410  0.00  0.00    -0.012 A 
ATOM     11  C   UNL     1      -0.046   3.713   0.881  0.00  0.00    +0.049 C 
ATOM     12  C   UNL     1      -0.563   4.676  -0.161  0.00  0.00    -0.023 C 
ATOM     13  C   UNL     1      -1.863   4.709  -0.158  0.00  0.00    -0.030 C 
ATOM     14  C   UNL     1      -2.411   3.748   0.879  0.00  0.00    +0.033 C 
ATOM     15  C   UNL     1      -1.232   2.757   1.112  0.00  0.00    +0.029 C 
ATOM     16  C   UNL     1      -1.281   1.699   0.017  0.00  0.00    +0.105 C 
ATOM     17  N   UNL     1      -0.011   0.966   0.007  0.00  0.00    -0.336 N 
ATOM     18  H   UNL     1      -0.011  -0.134   0.006  0.00  0.00    +0.147 HD
ENDROOT
BRANCH  16  19
ATOM     19  C   UNL     1      -2.415   0.742   0.281  0.00  0.00    -0.025 A 
ATOM     20  C   UNL     1      -2.261  -0.272   1.210  0.00  0.00    +0.009 A 
ATOM     21  C   UNL     1      -3.298  -1.150   1.453  0.00  0.00    +0.048 A 
ATOM     22  C   UNL     1      -4.496  -1.016   0.765  0.00  0.00    +0.147 A 
ATOM     23  C   UNL     1      -4.648   0.002  -0.166  0.00  0.00    +0.168 A 
ATOM     24  C   UNL     1      -3.609   0.881  -0.402  0.00  0.00    +0.042 A 
BRANCH  23  25
ATOM     25  N   UNL     1      -5.924   0.148  -0.901  0.00  0.00    +0.060 N 
ATOM     26  O   UNL     1      -6.056   1.041  -1.718  0.00  0.00    -0.126 OA
ATOM     27  O   UNL     1      -6.841  -0.624  -0.689  0.00  0.00    -0.126 OA
ENDBRANCH  23  25
BRANCH  22  28
ATOM     28  O   UNL     1      -5.518  -1.879   1.002  0.00  0.00    -0.504 OA
ATOM     29  H   UNL     1      -6.467  -1.772   0.457  0.00  0.00    +0.292 HD
ENDBRANCH  22  28
ENDBRANCH  16  19
TORSDOF 3
