REMARK  Name = ZINC13430169
REMARK  9 active torsions:
REMARK  status: ('A' for Active; 'I' for Inactive)
REMARK    1  A    between atoms: C_1  and  C_2
REMARK    2  A    between atoms: C_2  and  C_3
REMARK    3  A    between atoms: C_4  and  C_35
REMARK    4  A    between atoms: N_14  and  C_15
REMARK    5  A    between atoms: N_25  and  C_28
REMARK    6  A    between atoms: C_31  and  C_34
REMARK    7  A    between atoms: C_35  and  O_37
REMARK    8  A    between atoms: O_37  and  C_38
REMARK    9  A    between atoms: C_38  and  C_39
REMARK                            x       y       z     vdW  Elec       q    Type
REMARK                         _______ _______ _______ _____ _____    ______ ____
ROOT
ATOM      1  C   UNL     1       3.707   4.478  -1.201  0.00  0.00    +0.025 C 
ATOM      2  C   UNL     1       3.828   3.248  -0.599  0.00  0.00    +0.116 C 
ATOM      3  C   UNL     1       3.848   2.012  -1.385  0.00  0.00    +0.139 C 
ATOM      4  N   UNL     1       3.119   1.761  -2.419  0.00  0.00    -0.230 NA
ATOM      5  C   UNL     1       2.176   2.573  -2.980  0.00  0.00    +0.087 A 
ATOM      6  C   UNL     1       1.007   2.004  -3.490  0.00  0.00    +0.030 A 
ATOM      7  C   UNL     1       0.079   2.793  -4.143  0.00  0.00    +0.002 A 
ATOM      8  C   UNL     1       0.296   4.150  -4.284  0.00  0.00    +0.002 A 
ATOM      9  C   UNL     1       1.445   4.728  -3.768  0.00  0.00    +0.025 A 
ATOM     10  C   UNL     1       2.378   3.950  -3.105  0.00  0.00    +0.057 A 
ATOM     11  N   UNL     1       3.514   4.564  -2.545  0.00  0.00    -0.315 N 
ATOM     12  N   UNL     1       4.726   1.027  -0.983  0.00  0.00    -0.304 N 
ATOM     13  H   UNL     1       4.238   5.105  -3.172  0.00  0.00    +0.152 HD
ATOM     14  H   UNL     1       5.371   1.190  -0.107  0.00  0.00    +0.153 HD
ENDROOT
BRANCH  12  15
ATOM     15  C   UNL     1       4.795  -0.148  -1.671  0.00  0.00    +0.087 C 
ATOM     16  C   UNL     1       5.768  -1.070  -1.363  0.00  0.00    +0.059 C 
ATOM     17  C   UNL     1       7.062  -0.647  -0.787  0.00  0.00    +0.000 A 
ATOM     18  C   UNL     1       7.344   0.689  -0.523  0.00  0.00    +0.009 A 
ATOM     19  C   UNL     1       8.565   1.032   0.021  0.00  0.00    +0.001 A 
ATOM     20  C   UNL     1       9.507   0.057   0.310  0.00  0.00    +0.001 A 
ATOM     21  C   UNL     1       9.244  -1.273   0.060  0.00  0.00    +0.014 A 
ATOM     22  C   UNL     1       8.016  -1.642  -0.489  0.00  0.00    +0.046 A 
ATOM     23  C   UNL     1       7.695  -3.047  -0.770  0.00  0.00    +0.258 C 
ATOM     24  O   UNL     1       8.515  -3.910  -0.520  0.00  0.00    -0.269 OA
ATOM     25  N   UNL     1       6.511  -3.397  -1.299  0.00  0.00    -0.202 N 
ATOM     26  C   UNL     1       5.555  -2.503  -1.601  0.00  0.00    +0.259 C 
ATOM     27  O   UNL     1       4.502  -2.885  -2.079  0.00  0.00    -0.269 OA
BRANCH  25  28
ATOM     28  C   UNL     1       6.261  -4.753  -1.545  0.00  0.00    +0.045 A 
ATOM     29  C   UNL     1       5.490  -5.491  -0.657  0.00  0.00    +0.024 A 
ATOM     30  C   UNL     1       5.242  -6.827  -0.905  0.00  0.00    +0.005 A 
ATOM     31  C   UNL     1       5.769  -7.432  -2.031  0.00  0.00    -0.050 A 
ATOM     32  C   UNL     1       6.542  -6.701  -2.915  0.00  0.00    +0.005 A 
ATOM     33  C   UNL     1       6.789  -5.364  -2.675  0.00  0.00    +0.024 A 
ATOM     34  C   UNL     1       5.501  -8.891  -2.296  0.00  0.00    +0.044 C 
ENDBRANCH  25  28
ENDBRANCH  12  15
BRANCH   1  36
ATOM     35  C   UNL     1       5.247   6.192  -0.283  0.00  0.00    +0.010 C 
ATOM     36  C   UNL     1       3.790   5.734  -0.371  0.00  0.00    +0.048 C 
ENDBRANCH   1  36
BRANCH   2  37
ATOM     37  C   UNL     1       3.938   3.171   0.858  0.00  0.00    +0.344 C 
ATOM     38  O   UNL     1       2.994   2.782   1.520  0.00  0.00    -0.245 OA
BRANCH  37  39
ATOM     39  O   UNL     1       5.087   3.532   1.467  0.00  0.00    -0.461 OA
BRANCH  39  40
ATOM     40  C   UNL     1       5.124   3.432   2.892  0.00  0.00    +0.229 C 
ATOM     41  C   UNL     1       6.496   3.881   3.399  0.00  0.00    +0.048 C 
ENDBRANCH  39  40
ENDBRANCH  37  39
ENDBRANCH   2  37
TORSDOF 6
