REMARK  Name = ZINC22046942
REMARK  14 active torsions:
REMARK  status: ('A' for Active; 'I' for Inactive)
REMARK    1  A    between atoms: C_1  and  C_2
REMARK    2  A    between atoms: C_2  and  C_3
REMARK    3  A    between atoms: C_2  and  C_4
REMARK    4  A    between atoms: C_4  and  C_6
REMARK    5  A    between atoms: C_4  and  C_7
REMARK    6  A    between atoms: C_8  and  C_9
REMARK    7  A    between atoms: C_9  and  C_11
REMARK    8  A    between atoms: C_9  and  C_12
REMARK    9  A    between atoms: C_18  and  C_39
REMARK   10  A    between atoms: C_26  and  O_38
REMARK   11  A    between atoms: C_27  and  C_37
REMARK   12  A    between atoms: C_30  and  O_33
REMARK   13  A    between atoms: O_33  and  C_34
REMARK   14  A    between atoms: C_34  and  C_36
REMARK                            x       y       z     vdW  Elec       q    Type
REMARK                         _______ _______ _______ _____ _____    ______ ____
ROOT
ATOM      1  C   UNL     1       2.258   1.386  10.120  0.00  0.00    +0.002 C 
ATOM      2  C   UNL     1       3.077   2.685  10.294  0.00  0.00    +0.005 C 
ATOM      3  C   UNL     1       3.668   2.931   8.886  0.00  0.00    +0.009 C 
ATOM      4  C   UNL     1       2.492   2.547   7.951  0.00  0.00    +0.021 C 
ATOM      5  C   UNL     1       1.898   1.301   8.636  0.00  0.00    -0.022 C 
ATOM      6  C   UNL     1       0.439   1.069   8.342  0.00  0.00    +0.008 C 
ATOM      7  C   UNL     1      -0.444   2.307   8.454  0.00  0.00    +0.009 C 
ATOM      8  C   UNL     1       0.090   3.373   7.495  0.00  0.00    +0.024 C 
ATOM      9  C   UNL     1       1.503   3.693   7.899  0.00  0.00    -0.066 C 
ATOM     10  C   UNL     1       1.901   4.904   8.154  0.00  0.00    -0.024 C 
ATOM     11  C   UNL     1       1.025   6.115   7.996  0.00  0.00    +0.062 C 
ATOM     12  C   UNL     1      -0.079   5.827   6.981  0.00  0.00    +0.079 C 
ATOM     13  C   UNL     1      -0.834   4.564   7.396  0.00  0.00    +0.004 C 
ATOM     14  C   UNL     1      -1.939   4.280   6.367  0.00  0.00    +0.013 C 
ATOM     15  C   UNL     1      -1.351   4.127   4.968  0.00  0.00    +0.045 C 
ATOM     16  C   UNL     1      -0.589   5.394   4.577  0.00  0.00    +0.179 C 
ATOM     17  C   UNL     1       0.529   5.645   5.591  0.00  0.00    +0.080 C 
ATOM     18  C   UNL     1      -1.515   4.831   8.746  0.00  0.00    +0.014 C 
ATOM     19  C   UNL     1       2.662   0.077   8.060  0.00  0.00    +0.012 C 
ENDROOT
BRANCH   1  20
ATOM     20  C   UNL     1       1.057   1.384  11.054  0.00  0.00    +0.012 C 
ATOM     21  C   UNL     1       0.556  -0.050  11.237  0.00  0.00    +0.012 C 
BRANCH  20  23
ATOM     22  C   UNL     1       0.864   3.022  12.854  0.00  0.00    -0.027 C 
ATOM     23  C   UNL     1       1.460   1.951  12.391  0.00  0.00    -0.027 C 
BRANCH  22  24
ATOM     24  C   UNL     1       1.267   3.588  14.191  0.00  0.00    +0.011 C 
ATOM     25  C   UNL     1       0.059   3.587  15.130  0.00  0.00    +0.012 C 
BRANCH  24  27
ATOM     26  C   UNL     1       2.176   5.597  15.366  0.00  0.00    +0.008 C 
ATOM     27  C   UNL     1       1.768   5.022  14.008  0.00  0.00    -0.011 C 
ATOM     28  C   UNL     1       2.976   5.024  13.069  0.00  0.00    +0.008 C 
ENDBRANCH  24  27
ENDBRANCH  22  24
ENDBRANCH  20  23
ENDBRANCH   1  20
BRANCH  12  29
ATOM     29  O   UNL     1      -0.989   6.932   6.957  0.00  0.00    -0.388 OA
ATOM     30  H   UNL     1      -1.859   6.913   6.283  0.00  0.00    +0.210 HD
ENDBRANCH  12  29
BRANCH  16  31
ATOM     31  O   UNL     1      -0.013   5.222   3.254  0.00  0.00    -0.461 OA
BRANCH  31  32
ATOM     32  C   UNL     1      -0.765   5.601   2.209  0.00  0.00    +0.304 C 
ATOM     33  O   UNL     1      -1.867   6.061   2.392  0.00  0.00    -0.251 OA
ATOM     34  C   UNL     1      -0.234   5.454   0.806  0.00  0.00    +0.136 C 
ENDBRANCH  31  32
ENDBRANCH  16  31
TORSDOF 7
