REMARK  Name = ZINC64730745
REMARK  5 active torsions:
REMARK  status: ('A' for Active; 'I' for Inactive)
REMARK    1  A    between atoms: C_7  and  C_10
REMARK    2  A    between atoms: N_15  and  C_18
REMARK    3  A    between atoms: C_18  and  C_19
REMARK    4  A    between atoms: N_21  and  C_22
REMARK    5  A    between atoms: C_27  and  C_28
REMARK                            x       y       z     vdW  Elec       q    Type
REMARK                         _______ _______ _______ _____ _____    ______ ____
ROOT
ATOM      1  C   UNL     1       0.645  -3.175  -0.001  0.00  0.00    +0.245 C 
ATOM      2  O   UNL     1       1.419  -2.245  -0.126  0.00  0.00    -0.270 OA
ATOM      3  N   UNL     1       1.114  -4.435   0.086  0.00  0.00    -0.295 N 
ATOM      4  C   UNL     1       2.558  -4.698   0.190  0.00  0.00    +0.123 C 
ATOM      5  C   UNL     1       2.942  -5.731  -0.875  0.00  0.00    +0.104 C 
ATOM      6  N   UNL     1       2.084  -6.915  -0.736  0.00  0.00    -0.291 NA
ATOM      7  C   UNL     1       0.674  -6.583  -0.981  0.00  0.00    +0.104 C 
ATOM      8  C   UNL     1       0.196  -5.585   0.086  0.00  0.00    +0.123 C 
ENDROOT
BRANCH   1  15
ATOM      9  C   UNL     1      -1.813   0.667   0.198  0.00  0.00    +0.001 A 
ATOM     10  C   UNL     1      -3.204   0.485   0.242  0.00  0.00    +0.002 A 
ATOM     11  C   UNL     1      -3.767  -0.743   0.225  0.00  0.00    +0.026 A 
ATOM     12  C   UNL     1      -2.896  -1.927   0.160  0.00  0.00    +0.043 A 
ATOM     13  N   UNL     1      -3.162  -3.203   0.132  0.00  0.00    -0.380 N 
ATOM     14  C   UNL     1      -1.906  -3.956   0.066  0.00  0.00    +0.154 C 
ATOM     15  C   UNL     1      -0.799  -2.925   0.057  0.00  0.00    +0.042 C 
ATOM     16  C   UNL     1      -1.431  -1.702   0.115  0.00  0.00    +0.008 A 
ATOM     17  C   UNL     1      -0.948  -0.368   0.138  0.00  0.00    +0.010 A 
ATOM     18  H   UNL     1      -4.051  -3.592   0.152  0.00  0.00    +0.160 HD
ENDBRANCH   1  15
BRANCH   6  19
ATOM     19  C   UNL     1       2.532  -7.996  -1.624  0.00  0.00    +0.180 C 
BRANCH  19  20
ATOM     20  C   UNL     1       1.793  -9.265  -1.283  0.00  0.00    +0.231 C 
ATOM     21  O   UNL     1       0.974  -9.267  -0.388  0.00  0.00    -0.274 OA
ATOM     22  N   UNL     1       2.042 -10.396  -1.972  0.00  0.00    -0.284 N 
ATOM     23  H   UNL     1       2.744 -10.412  -2.640  0.00  0.00    +0.155 HD
BRANCH  22  24
ATOM     24  C   UNL     1       1.288 -11.548  -1.722  0.00  0.00    +0.045 A 
ATOM     25  C   UNL     1       0.846 -11.825  -0.435  0.00  0.00    +0.024 A 
ATOM     26  C   UNL     1       0.101 -12.962  -0.192  0.00  0.00    +0.002 A 
ATOM     27  C   UNL     1      -0.204 -13.825  -1.229  0.00  0.00    +0.001 A 
ATOM     28  C   UNL     1       0.235 -13.553  -2.511  0.00  0.00    +0.014 A 
ATOM     29  C   UNL     1       0.974 -12.413  -2.762  0.00  0.00    +0.076 A 
BRANCH  29  30
ATOM     30  C   UNL     1       1.446 -12.113  -4.161  0.00  0.00    +0.419 C 
ATOM     31  F   UNL     1       1.009 -13.121  -5.027  0.00  0.00    -0.166 F 
ATOM     32  F   UNL     1       0.923 -10.883  -4.576  0.00  0.00    -0.166 F 
ATOM     33  F   UNL     1       2.844 -12.055  -4.180  0.00  0.00    -0.166 F 
ENDBRANCH  29  30
ENDBRANCH  22  24
ENDBRANCH  19  20
ENDBRANCH   6  19
TORSDOF 5
