REMARK  Name = ZINC43548584
REMARK  13 active torsions:
REMARK  status: ('A' for Active; 'I' for Inactive)
REMARK    1  A    between atoms: C_1  and  C_2
REMARK    2  A    between atoms: C_2  and  C_3
REMARK    3  A    between atoms: C_3  and  C_4
REMARK    4  A    between atoms: C_4  and  N_5
REMARK    5  A    between atoms: C_12  and  C_35
REMARK    6  A    between atoms: C_15  and  C_25
REMARK    7  A    between atoms: C_17  and  O_24
REMARK    8  A    between atoms: C_21  and  C_23
REMARK    9  A    between atoms: C_25  and  C_27
REMARK   10  A    between atoms: C_25  and  C_28
REMARK   11  A    between atoms: N_30  and  C_31
REMARK   12  A    between atoms: N_30  and  C_32
REMARK   13  A    between atoms: C_32  and  C_33
REMARK                            x       y       z     vdW  Elec       q    Type
REMARK                         _______ _______ _______ _____ _____    ______ ____
ROOT
ATOM      1  N   UNL     1      -1.477  -1.876  -2.463  0.00  0.00    -0.325 N 
ATOM      2  C   UNL     1      -0.914  -3.142  -2.505  0.00  0.00    +0.136 A 
ATOM      3  N   UNL     1       0.010  -3.599  -3.320  0.00  0.00    -0.340 N 
ATOM      4  C   UNL     1       0.460  -4.849  -3.243  0.00  0.00    +0.031 A 
ATOM      5  C   UNL     1      -0.108  -5.601  -2.267  0.00  0.00    +0.013 A 
ATOM      6  S   UNL     1      -1.243  -4.467  -1.517  0.00  0.00    -0.059 S 
ATOM      7  C   UNL     1       0.178  -7.024  -1.931  0.00  0.00    +0.051 C 
ATOM      8  C   UNL     1       1.498  -7.435  -2.608  0.00  0.00    -0.022 C 
ATOM      9  C   UNL     1       1.573  -8.969  -2.604  0.00  0.00    +0.008 C 
ATOM     10  C   UNL     1       0.323  -9.528  -3.287  0.00  0.00    +0.007 C 
ATOM     11  C   UNL     1       0.252  -9.030  -4.731  0.00  0.00    +0.029 C 
ATOM     12  C   UNL     1       0.216  -7.499  -4.748  0.00  0.00    +0.123 C 
ATOM     13  C   UNL     1       1.473  -6.963  -4.065  0.00  0.00    +0.033 C 
ATOM     14  C   UNL     1       1.528  -5.442  -4.150  0.00  0.00    +0.039 C 
ATOM     15  C   UNL     1       2.907  -4.954  -3.701  0.00  0.00    +0.014 C 
ATOM     16  C   UNL     1       2.691  -6.827  -1.868  0.00  0.00    +0.012 C 
ATOM     17  H   UNL     1      -1.194  -1.198  -3.096  0.00  0.00    +0.148 HD
ATOM     18  H   UNL     1       0.375  -3.008  -3.998  0.00  0.00    +0.167 HD
ENDROOT
BRANCH  12  19
ATOM     19  O   UNL     1      -0.943  -7.040  -4.048  0.00  0.00    -0.391 OA
ATOM     20  H   UNL     1      -1.778  -7.349  -4.426  0.00  0.00    +0.210 HD
ENDBRANCH  12  19
BRANCH  11  21
ATOM     21  C   UNL     1      -1.014  -9.575  -5.395  0.00  0.00    +0.078 C 
ATOM     22  C   UNL     1      -0.978 -11.105  -5.384  0.00  0.00    +0.017 C 
BRANCH  21  23
ATOM     23  C   UNL     1      -1.085  -9.085  -6.818  0.00  0.00    +0.219 C 
ATOM     24  O   UNL     1      -0.150  -8.481  -7.299  0.00  0.00    -0.275 OA
ATOM     25  N   UNL     1      -2.189  -9.317  -7.557  0.00  0.00    -0.301 N 
ATOM     26  C   UNL     1      -3.368  -9.929  -6.939  0.00  0.00    +0.132 C 
BRANCH  25  27
ATOM     27  C   UNL     1      -2.209  -8.957  -8.977  0.00  0.00    +0.134 C 
BRANCH  27  28
ATOM     28  C   UNL     1      -1.721 -10.123  -9.797  0.00  0.00    -0.016 C 
ATOM     29  C   UNL     1      -2.464 -10.599 -10.765  0.00  0.00    +0.005 C 
ENDBRANCH  27  28
ENDBRANCH  25  27
ENDBRANCH  21  23
ENDBRANCH  11  21
BRANCH   1  30
ATOM     30  C   UNL     1      -2.500  -1.561  -1.462  0.00  0.00    +0.103 C 
BRANCH  30  31
ATOM     31  C   UNL     1      -2.951  -0.109  -1.633  0.00  0.00    +0.018 C 
BRANCH  31  33
ATOM     32  C   UNL     1      -4.470   1.671  -0.758  0.00  0.00    +0.004 C 
ATOM     33  C   UNL     1      -4.019   0.219  -0.587  0.00  0.00    -0.002 C 
ENDBRANCH  31  33
ENDBRANCH  30  31
ENDBRANCH   1  30
TORSDOF 8
