REMARK  Name = ZINC12317550
REMARK  4 active torsions:
REMARK  status: ('A' for Active; 'I' for Inactive)
REMARK    1  A    between atoms: C_1  and  N_2
REMARK    2  A    between atoms: C_6  and  C_7
REMARK    3  A    between atoms: C_9  and  C_13
REMARK    4  A    between atoms: C_28  and  C_30
REMARK                            x       y       z     vdW  Elec       q    Type
REMARK                         _______ _______ _______ _____ _____    ______ ____
ROOT
ATOM      1  C   UNL     1      -4.939   1.344  -1.363  0.00  0.00    +0.265 C 
ATOM      2  O   UNL     1      -4.239   0.714  -2.133  0.00  0.00    -0.268 OA
ATOM      3  N   UNL     1      -4.914   1.061  -0.046  0.00  0.00    -0.283 N 
ATOM      4  C   UNL     1      -5.854   1.709   0.882  0.00  0.00    +0.114 C 
ATOM      5  C   UNL     1      -6.777   0.641   1.482  0.00  0.00    +0.056 C 
ATOM      6  C   UNL     1      -5.947  -0.547   1.898  0.00  0.00    -0.015 A 
ATOM      7  C   UNL     1      -6.306  -1.619   2.804  0.00  0.00    +0.003 A 
ATOM      8  C   UNL     1      -7.458  -1.892   3.545  0.00  0.00    +0.010 A 
ATOM      9  C   UNL     1      -7.450  -3.028   4.316  0.00  0.00    +0.001 A 
ATOM     10  C   UNL     1      -6.356  -3.876   4.365  0.00  0.00    +0.002 A 
ATOM     11  C   UNL     1      -5.200  -3.634   3.642  0.00  0.00    +0.026 A 
ATOM     12  C   UNL     1      -5.180  -2.487   2.851  0.00  0.00    +0.047 A 
ATOM     13  N   UNL     1      -4.226  -1.958   2.030  0.00  0.00    -0.356 N 
ATOM     14  H   UNL     1      -3.350  -2.344   1.871  0.00  0.00    +0.166 HD
ATOM     15  C   UNL     1      -4.691  -0.799   1.467  0.00  0.00    +0.046 A 
ATOM     16  C   UNL     1      -3.946   0.096   0.502  0.00  0.00    +0.156 C 
ENDROOT
BRANCH  16  17
ATOM     17  C   UNL     1      -2.848   0.830   1.229  0.00  0.00    +0.014 A 
ATOM     18  C   UNL     1      -2.814   0.831   2.611  0.00  0.00    +0.008 A 
ATOM     19  C   UNL     1      -1.811   1.509   3.277  0.00  0.00    +0.001 A 
ATOM     20  C   UNL     1      -0.836   2.181   2.563  0.00  0.00    +0.003 A 
ATOM     21  C   UNL     1      -0.865   2.176   1.181  0.00  0.00    +0.039 A 
ATOM     22  C   UNL     1      -1.870   1.497   0.512  0.00  0.00    +0.129 A 
ATOM     23  F   UNL     1      -1.898   1.492  -0.838  0.00  0.00    -0.205 F 
ENDBRANCH  16  17
BRANCH   1  26
ATOM     24  C   UNL     1      -7.088   3.712  -3.138  0.00  0.00    +0.109 A 
ATOM     25  C   UNL     1      -6.316   2.535  -3.151  0.00  0.00    +0.064 A 
ATOM     26  C   UNL     1      -5.811   2.416  -1.870  0.00  0.00    +0.121 A 
ATOM     27  N   UNL     1      -6.277   3.492  -1.168  0.00  0.00    -0.272 N 
ATOM     28  H   UNL     1      -6.077   3.681  -0.207  0.00  0.00    +0.189 HD
ATOM     29  N   UNL     1      -7.012   4.223  -1.926  0.00  0.00    -0.172 NA
BRANCH  24  35
ATOM     30  C   UNL     1      -7.046   2.666  -6.052  0.00  0.00    +0.149 C 
ATOM     31  N   UNL     1      -7.822   3.811  -5.569  0.00  0.00    -0.348 N 
ATOM     32  C   UNL     1      -8.647   4.589  -6.325  0.00  0.00    +0.086 A 
ATOM     33  C   UNL     1      -9.180   5.544  -5.533  0.00  0.00    +0.020 A 
ATOM     34  C   UNL     1      -8.675   5.353  -4.236  0.00  0.00    +0.029 A 
ATOM     35  C   UNL     1      -7.842   4.276  -4.279  0.00  0.00    +0.069 A 
ENDBRANCH  24  35
ENDBRANCH   1  26
TORSDOF 3
