REMARK  Name = ZINC39710420
REMARK  12 active torsions:
REMARK  status: ('A' for Active; 'I' for Inactive)
REMARK    1  A    between atoms: C_1  and  C_2
REMARK    2  A    between atoms: C_2  and  C_3
REMARK    3  A    between atoms: C_3  and  N_4
REMARK    4  A    between atoms: N_7  and  C_10
REMARK    5  A    between atoms: C_10  and  C_12
REMARK    6  A    between atoms: C_10  and  C_26
REMARK    7  A    between atoms: C_17  and  C_24
REMARK    8  A    between atoms: C_24  and  C_25
REMARK    9  A    between atoms: N_31  and  C_32
REMARK   10  A    between atoms: C_32  and  C_33
REMARK   11  A    between atoms: C_32  and  C_34
REMARK   12  A    between atoms: C_32  and  C_35
REMARK                            x       y       z     vdW  Elec       q    Type
REMARK                         _______ _______ _______ _____ _____    ______ ____
ROOT
ATOM      1  C   UNL     1       0.237  -5.984   2.483  0.00  0.00    +0.115 C 
ENDROOT
BRANCH   1   2
ATOM      2  C   UNL     1       1.008  -6.465   1.252  0.00  0.00    +0.119 C 
ATOM      3  C   UNL     1       0.777  -7.957   1.113  0.00  0.00    -0.003 C 
ATOM      4  C   UNL     1       1.877  -8.763   1.119  0.00  0.00    -0.007 A 
ATOM      5  C   UNL     1       1.744 -10.215   0.990  0.00  0.00    +0.013 A 
ATOM      6  C   UNL     1       2.867 -10.978   1.002  0.00  0.00    -0.047 A 
ATOM      7  C   UNL     1       4.133 -10.406   1.134  0.00  0.00    +0.005 A 
ATOM      8  C   UNL     1       4.323  -9.067   1.258  0.00  0.00    +0.024 A 
ATOM      9  C   UNL     1       3.225  -8.187   1.257  0.00  0.00    +0.040 A 
ATOM     10  N   UNL     1       3.424  -6.874   1.379  0.00  0.00    -0.284 N 
ATOM     11  C   UNL     1       2.438  -5.993   1.387  0.00  0.00    +0.226 C 
ATOM     12  O   UNL     1       2.682  -4.807   1.502  0.00  0.00    -0.275 OA
ATOM     13  H   UNL     1       4.334  -6.551   1.466  0.00  0.00    +0.155 HD
BRANCH   6  14
ATOM     14  C   UNL     1       2.744 -12.474   0.870  0.00  0.00    +0.032 C 
ATOM     15  C   UNL     1       2.798 -12.862  -0.609  0.00  0.00    +0.009 C 
ENDBRANCH   6  14
ENDBRANCH   1   2
BRANCH   1  19
ATOM     16  N   UNL     1      -0.734  -1.871   2.601  0.00  0.00    +0.381 N 
ATOM     17  C   UNL     1      -0.249  -2.502   3.835  0.00  0.00    -0.063 C 
ATOM     18  C   UNL     1      -0.423  -4.019   3.736  0.00  0.00    +0.066 C 
ATOM     19  N   UNL     1       0.333  -4.521   2.580  0.00  0.00    -0.299 NA
ATOM     20  C   UNL     1      -0.126  -3.880   1.339  0.00  0.00    +0.066 C 
ATOM     21  C   UNL     1       0.046  -2.364   1.458  0.00  0.00    -0.063 C 
ATOM     22  H   UNL     1      -1.708  -2.100   2.467  0.00  0.00    -0.082 HD
BRANCH  16  23
ATOM     23  C   UNL     1      -0.584  -0.414   2.704  0.00  0.00    -0.079 C 
BRANCH  23  25
ATOM     24  C   UNL     1      -1.337   1.634   3.922  0.00  0.00    +0.002 C 
ATOM     25  C   UNL     1      -1.493   0.116   3.815  0.00  0.00    -0.022 C 
ENDBRANCH  23  25
ENDBRANCH  16  23
ENDBRANCH   1  19
BRANCH   1  26
ATOM     26  C   UNL     1       0.835  -6.618   3.740  0.00  0.00    +0.236 C 
ATOM     27  N   UNL     1       2.268  -6.310   3.837  0.00  0.00    -0.148 NA
ATOM     28  N   UNL     1       2.906  -7.365   3.811  0.00  0.00    -0.069 NA
ATOM     29  N   UNL     1       2.089  -8.490   3.701  0.00  0.00    -0.179 N 
ATOM     30  N   UNL     1       0.775  -8.092   3.653  0.00  0.00    -0.179 NA
ATOM     31  H   UNL     1       2.399  -9.408   3.664  0.00  0.00    +0.191 HD
BRANCH  30  32
ATOM     32  C   UNL     1       0.011  -8.655   4.774  0.00  0.00    +0.035 C 
ATOM     33  C   UNL     1      -1.416  -8.104   4.746  0.00  0.00    +0.029 C 
ATOM     34  C   UNL     1      -0.029 -10.180   4.649  0.00  0.00    +0.029 C 
ATOM     35  C   UNL     1       0.682  -8.269   6.093  0.00  0.00    +0.029 C 
ENDBRANCH  30  32
ENDBRANCH   1  26
TORSDOF 7
