REMARK  Name = ZINC52637200
REMARK  9 active torsions:
REMARK  status: ('A' for Active; 'I' for Inactive)
REMARK    1  A    between atoms: C_4  and  C_7
REMARK    2  A    between atoms: C_7  and  C_8
REMARK    3  A    between atoms: C_8  and  C_9
REMARK    4  A    between atoms: C_12  and  C_20
REMARK    5  A    between atoms: N_13  and  C_14
REMARK    6  A    between atoms: C_20  and  C_22
REMARK    7  A    between atoms: C_20  and  N_31
REMARK    8  A    between atoms: C_32  and  C_34
REMARK    9  A    between atoms: C_34  and  C_35
REMARK                            x       y       z     vdW  Elec       q    Type
REMARK                         _______ _______ _______ _____ _____    ______ ____
ROOT
ATOM      1  C   UNL     1       9.111  -2.078   1.349  0.00  0.00    +0.170 C 
ENDROOT
BRANCH   1   2
ATOM      2  C   UNL     1       9.647  -2.426   2.714  0.00  0.00    -0.014 C 
ATOM      3  C   UNL     1      10.378  -1.630   3.528  0.00  0.00    +0.001 A 
ATOM      4  C   UNL     1      10.875  -0.256   3.390  0.00  0.00    +0.010 A 
ATOM      5  C   UNL     1      11.598   0.284   4.397  0.00  0.00    +0.001 A 
ATOM      6  C   UNL     1      11.885  -0.434   5.566  0.00  0.00    +0.002 A 
ATOM      7  C   UNL     1      11.463  -1.701   5.766  0.00  0.00    +0.026 A 
ATOM      8  C   UNL     1      10.694  -2.367   4.772  0.00  0.00    +0.043 A 
ATOM      9  N   UNL     1      10.178  -3.572   4.729  0.00  0.00    -0.380 N 
ATOM     10  C   UNL     1       9.471  -3.733   3.454  0.00  0.00    +0.147 C 
ATOM     11  H   UNL     1      10.249  -4.243   5.426  0.00  0.00    +0.160 HD
ENDBRANCH   1   2
BRANCH   1  15
ATOM     12  C   UNL     1       5.487  -1.699   1.381  0.00  0.00    +0.138 A 
ATOM     13  N   UNL     1       5.649  -2.994   1.368  0.00  0.00    -0.134 NA
ATOM     14  N   UNL     1       6.903  -3.277   1.355  0.00  0.00    -0.132 NA
ATOM     15  C   UNL     1       7.607  -2.178   1.360  0.00  0.00    +0.163 A 
ATOM     16  N   UNL     1       6.728  -1.136   1.371  0.00  0.00    -0.281 N 
BRANCH  16  17
ATOM     17  C   UNL     1       7.037   0.232   1.375  0.00  0.00    +0.049 A 
ATOM     18  C   UNL     1       7.668   0.805   0.280  0.00  0.00    +0.026 A 
ATOM     19  C   UNL     1       7.971   2.153   0.286  0.00  0.00    +0.002 A 
ATOM     20  C   UNL     1       7.646   2.931   1.382  0.00  0.00    +0.000 A 
ATOM     21  C   UNL     1       7.017   2.363   2.474  0.00  0.00    +0.002 A 
ATOM     22  C   UNL     1       6.706   1.017   2.471  0.00  0.00    +0.026 A 
ENDBRANCH  16  17
BRANCH  12  23
ATOM     23  C   UNL     1       4.171  -0.963   1.399  0.00  0.00    +0.081 C 
BRANCH  23  24
ATOM     24  C   UNL     1       3.711  -0.707  -0.038  0.00  0.00    +0.043 C 
BRANCH  24  28
ATOM     25  C   UNL     1      -0.017   1.378   0.010  0.00  0.00    +0.000 A 
ATOM     26  C   UNL     1       1.171   2.086   0.002  0.00  0.00    +0.000 A 
ATOM     27  C   UNL     1       2.377   1.411  -0.013  0.00  0.00    +0.003 A 
ATOM     28  C   UNL     1       2.396   0.029  -0.020  0.00  0.00    -0.047 A 
ATOM     29  C   UNL     1       1.208  -0.679  -0.012  0.00  0.00    +0.003 A 
ATOM     30  C   UNL     1       0.002  -0.004   0.002  0.00  0.00    +0.000 A 
ENDBRANCH  24  28
ENDBRANCH  23  24
ENDBRANCH  12  23
ENDBRANCH   1  15
BRANCH   1  31
ATOM     31  N   UNL     1       9.654  -3.011   0.359  0.00  0.00    -0.301 N 
ATOM     32  C   UNL     1      10.860  -2.776  -0.197  0.00  0.00    +0.220 C 
ATOM     33  O   UNL     1      11.494  -1.793   0.123  0.00  0.00    -0.275 OA
ATOM     34  H   UNL     1       9.147  -3.797   0.103  0.00  0.00    +0.150 HD
BRANCH  32  35
ATOM     35  C   UNL     1      11.419  -3.735  -1.216  0.00  0.00    +0.151 C 
BRANCH  35  36
ATOM     36  C   UNL     1      12.768  -3.247  -1.677  0.00  0.00    +0.050 A 
ATOM     37  C   UNL     1      13.864  -4.085  -1.591  0.00  0.00    +0.024 A 
ATOM     38  C   UNL     1      15.100  -3.627  -2.019  0.00  0.00    +0.003 A 
ATOM     39  C   UNL     1      15.189  -2.336  -2.519  0.00  0.00    +0.020 A 
ATOM     40  C   UNL     1      14.050  -1.556  -2.575  0.00  0.00    +0.111 A 
ATOM     41  N   UNL     1      12.888  -2.028  -2.164  0.00  0.00    -0.259 NA
ENDBRANCH  35  36
ENDBRANCH  32  35
ENDBRANCH   1  31
TORSDOF 9
