REMARK  Name = ZINC45619284
REMARK  7 active torsions:
REMARK  status: ('A' for Active; 'I' for Inactive)
REMARK    1  A    between atoms: C_3  and  C_6
REMARK    2  A    between atoms: C_6  and  C_7
REMARK    3  A    between atoms: C_7  and  N_8
REMARK    4  A    between atoms: C_12  and  S_14
REMARK    5  A    between atoms: S_14  and  C_15
REMARK    6  A    between atoms: C_15  and  C_16
REMARK    7  A    between atoms: C_19  and  C_22
REMARK                            x       y       z     vdW  Elec       q    Type
REMARK                         _______ _______ _______ _____ _____    ______ ____
ROOT
ATOM      1  N   UNL     1       5.633   2.506   1.403  0.00  0.00    -0.322 N 
ATOM      2  C   UNL     1       6.299   2.735   2.602  0.00  0.00    +0.182 A 
ATOM      3  N   UNL     1       5.875   2.566   3.839  0.00  0.00    -0.125 NA
ATOM      4  N   UNL     1       6.708   2.857   4.894  0.00  0.00    -0.133 NA
ATOM      5  C   UNL     1       7.927   3.304   4.664  0.00  0.00    +0.160 A 
ATOM      6  S   UNL     1       7.961   3.330   2.878  0.00  0.00    -0.025 S 
ATOM      7  H   UNL     1       6.082   2.674   0.560  0.00  0.00    +0.148 HD
ENDROOT
BRANCH   1   8
ATOM      8  C   UNL     1       4.255   2.011   1.414  0.00  0.00    +0.108 C 
BRANCH   8   9
ATOM      9  C   UNL     1       3.761   1.845  -0.024  0.00  0.00    +0.061 C 
BRANCH   9  12
ATOM     10  C   UNL     1      -0.016   1.351   0.009  0.00  0.00    +0.008 A 
ATOM     11  C   UNL     1       1.183   2.038   0.002  0.00  0.00    +0.011 A 
ATOM     12  C   UNL     1       2.343   1.336  -0.013  0.00  0.00    -0.009 A 
ATOM     13  S   UNL     1       1.754  -0.349  -0.017  0.00  0.00    -0.102 S 
ATOM     14  C   UNL     1       0.002  -0.004   0.002  0.00  0.00    +0.045 A 
ENDBRANCH   9  12
ENDBRANCH   8   9
ENDBRANCH   1   8
BRANCH   5  15
ATOM     15  S   UNL     1       9.188   3.751   5.811  0.00  0.00    -0.092 S 
BRANCH  15  16
ATOM     16  C   UNL     1       8.431   3.456   7.432  0.00  0.00    +0.111 C 
BRANCH  16  17
ATOM     17  C   UNL     1       9.417   3.803   8.518  0.00  0.00    -0.037 A 
ATOM     18  C   UNL     1      10.283   2.836   8.997  0.00  0.00    +0.006 A 
ATOM     19  C   UNL     1      11.188   3.147   9.990  0.00  0.00    +0.019 A 
ATOM     20  C   UNL     1      11.229   4.441  10.512  0.00  0.00    +0.052 A 
ATOM     21  C   UNL     1      10.353   5.413  10.024  0.00  0.00    +0.019 A 
ATOM     22  C   UNL     1       9.456   5.089   9.027  0.00  0.00    +0.006 A 
BRANCH  20  23
ATOM     23  C   UNL     1      12.166   4.771  11.544  0.00  0.00    +0.099 C 
ATOM     24  N   UNL     1      12.909   5.033  12.363  0.00  0.00    -0.191 NA
ENDBRANCH  20  23
ENDBRANCH  16  17
ENDBRANCH  15  16
ENDBRANCH   5  15
TORSDOF 7
