REMARK  Name = ZINC16613229
REMARK  11 active torsions:
REMARK  status: ('A' for Active; 'I' for Inactive)
REMARK    1  A    between atoms: C_1  and  C_2
REMARK    2  A    between atoms: C_2  and  C_3
REMARK    3  A    between atoms: C_3  and  C_5
REMARK    4  A    between atoms: C_3  and  N_6
REMARK    5  A    between atoms: C_7  and  C_9
REMARK    6  A    between atoms: C_9  and  N_10
REMARK    7  A    between atoms: N_12  and  C_32
REMARK    8  A    between atoms: N_18  and  S_21
REMARK    9  A    between atoms: S_21  and  C_24
REMARK   10  A    between atoms: C_27  and  O_30
REMARK   11  A    between atoms: O_30  and  C_31
REMARK                            x       y       z     vdW  Elec       q    Type
REMARK                         _______ _______ _______ _____ _____    ______ ____
ROOT
ATOM      1  N   UNL     1       0.050   3.165  -1.545  0.00  0.00    -0.275 N 
ATOM      2  C   UNL     1      -0.658   1.922  -1.216  0.00  0.00    +0.217 C 
ATOM      3  N   UNL     1      -0.017   1.393   0.010  0.00  0.00    -0.300 N 
ATOM      4  C   UNL     1       1.354   1.941  -0.066  0.00  0.00    +0.115 C 
ATOM      5  C   UNL     1       1.232   3.198  -0.894  0.00  0.00    +0.241 C 
ATOM      6  O   UNL     1       2.055   4.085  -0.962  0.00  0.00    -0.273 OA
ATOM      7  C   UNL     1       2.280   0.941  -0.752  0.00  0.00    +0.052 C 
ATOM      8  C   UNL     1       3.684   1.542  -0.866  0.00  0.00    +0.112 C 
ATOM      9  N   UNL     1       4.123   1.974   0.468  0.00  0.00    -0.176 NA
ATOM     10  C   UNL     1       3.264   2.885   1.235  0.00  0.00    +0.112 C 
ATOM     11  C   UNL     1       1.862   2.273   1.334  0.00  0.00    +0.052 C 
ENDROOT
BRANCH   3  12
ATOM     12  C   UNL     1       0.002  -0.004   0.002  0.00  0.00    +0.032 A 
ATOM     13  C   UNL     1      -0.692  -0.704  -0.977  0.00  0.00    +0.023 A 
ATOM     14  C   UNL     1      -0.667  -2.085  -0.984  0.00  0.00    +0.002 A 
ATOM     15  C   UNL     1       0.039  -2.771  -0.013  0.00  0.00    +0.000 A 
ATOM     16  C   UNL     1       0.727  -2.077   0.966  0.00  0.00    +0.002 A 
ATOM     17  C   UNL     1       0.710  -0.696   0.976  0.00  0.00    +0.023 A 
ENDBRANCH   3  12
BRANCH   9  18
ATOM     18  S   UNL     1       5.561   1.443   1.095  0.00  0.00    +0.061 S 
ATOM     19  O   UNL     1       6.378   1.083  -0.011  0.00  0.00    -0.153 OA
ATOM     20  O   UNL     1       5.964   2.406   2.059  0.00  0.00    -0.153 OA
BRANCH  18  21
ATOM     21  C   UNL     1       5.227  -0.044   1.978  0.00  0.00    +0.106 A 
ATOM     22  C   UNL     1       4.902   0.009   3.321  0.00  0.00    +0.032 A 
ATOM     23  C   UNL     1       4.634  -1.155   4.015  0.00  0.00    +0.047 A 
ATOM     24  C   UNL     1       4.702  -2.380   3.366  0.00  0.00    +0.120 A 
ATOM     25  C   UNL     1       5.034  -2.431   2.020  0.00  0.00    +0.047 A 
ATOM     26  C   UNL     1       5.295  -1.263   1.329  0.00  0.00    +0.032 A 
BRANCH  24  27
ATOM     27  O   UNL     1       4.444  -3.527   4.047  0.00  0.00    -0.495 OA
ATOM     28  C   UNL     1       4.109  -3.398   5.430  0.00  0.00    +0.277 C 
ENDBRANCH  24  27
ENDBRANCH  18  21
ENDBRANCH   9  18
BRANCH   1  29
ATOM     29  C   UNL     1      -0.449   4.210  -2.442  0.00  0.00    +0.205 C 
BRANCH  29  31
ATOM     30  N   UNL     1      -0.340   4.755  -4.852  0.00  0.00    -0.311 N 
ATOM     31  C   UNL     1       0.003   3.922  -3.850  0.00  0.00    +0.231 C 
ATOM     32  O   UNL     1       0.676   2.940  -4.082  0.00  0.00    -0.274 OA
ATOM     33  H   UNL     1      -0.879   5.540  -4.667  0.00  0.00    +0.149 HD
BRANCH  30  34
ATOM     34  C   UNL     1       0.099   4.474  -6.221  0.00  0.00    +0.070 C 
ATOM     35  C   UNL     1       1.506   5.039  -6.431  0.00  0.00    +0.028 C 
BRANCH  34  37
ATOM     36  C   UNL     1      -2.244   4.478  -7.087  0.00  0.00    +0.005 C 
ATOM     37  C   UNL     1      -0.866   5.130  -7.211  0.00  0.00    +0.018 C 
ENDBRANCH  34  37
ENDBRANCH  30  34
ENDBRANCH  29  31
ENDBRANCH   1  29
TORSDOF 8
