REMARK  Name = ZINC11314100
REMARK  9 active torsions:
REMARK  status: ('A' for Active; 'I' for Inactive)
REMARK    1  A    between atoms: C_1  and  C_2
REMARK    2  A    between atoms: C_2  and  C_4
REMARK    3  A    between atoms: C_2  and  S_20
REMARK    4  A    between atoms: N_6  and  C_7
REMARK    5  A    between atoms: C_12  and  S_13
REMARK    6  A    between atoms: S_13  and  C_14
REMARK    7  A    between atoms: S_20  and  C_21
REMARK    8  A    between atoms: N_25  and  C_26
REMARK    9  A    between atoms: C_26  and  C_27
REMARK                            x       y       z     vdW  Elec       q    Type
REMARK                         _______ _______ _______ _____ _____    ______ ____
ROOT
ATOM      1  C   UNL     1      -4.911  -1.983  -2.558  0.00  0.00    +0.230 C 
ATOM      2  O   UNL     1      -5.375  -1.665  -1.483  0.00  0.00    -0.274 OA
ATOM      3  N   UNL     1      -5.731  -2.296  -3.580  0.00  0.00    -0.284 N 
ATOM      4  H   UNL     1      -5.363  -2.479  -4.459  0.00  0.00    +0.155 HD
ENDROOT
BRANCH   3   5
ATOM      5  C   UNL     1      -7.116  -2.357  -3.374  0.00  0.00    +0.047 A 
ATOM      6  C   UNL     1      -7.706  -1.587  -2.384  0.00  0.00    +0.024 A 
ATOM      7  C   UNL     1      -9.073  -1.645  -2.185  0.00  0.00    +0.002 A 
ATOM      8  C   UNL     1      -9.854  -2.478  -2.965  0.00  0.00    +0.001 A 
ATOM      9  C   UNL     1      -9.274  -3.255  -3.950  0.00  0.00    +0.017 A 
ATOM     10  C   UNL     1      -7.904  -3.199  -4.160  0.00  0.00    +0.034 A 
BRANCH  10  11
ATOM     11  S   UNL     1      -7.161  -4.187  -5.415  0.00  0.00    -0.088 S 
BRANCH  11  12
ATOM     12  C   UNL     1      -6.816  -3.043  -6.710  0.00  0.00    +0.013 A 
ATOM     13  C   UNL     1      -7.256  -1.728  -6.613  0.00  0.00    +0.015 A 
ATOM     14  C   UNL     1      -6.980  -0.833  -7.628  0.00  0.00    +0.001 A 
ATOM     15  C   UNL     1      -6.274  -1.246  -8.743  0.00  0.00    +0.000 A 
ATOM     16  C   UNL     1      -5.839  -2.554  -8.845  0.00  0.00    +0.001 A 
ATOM     17  C   UNL     1      -6.107  -3.454  -7.833  0.00  0.00    +0.015 A 
ENDBRANCH  11  12
ENDBRANCH  10  11
ENDBRANCH   3   5
BRANCH   1  19
ATOM     18  C   UNL     1      -2.939  -0.703  -3.347  0.00  0.00    +0.029 C 
ATOM     19  C   UNL     1      -3.417  -2.028  -2.750  0.00  0.00    +0.137 C 
BRANCH  19  20
ATOM     20  S   UNL     1      -2.611  -2.296  -1.152  0.00  0.00    -0.072 S 
BRANCH  20  21
ATOM     21  C   UNL     1      -0.936  -2.455  -1.676  0.00  0.00    +0.210 A 
ATOM     22  N   UNL     1      -0.494  -2.381  -2.913  0.00  0.00    -0.101 NA
ATOM     23  N   UNL     1       0.779  -2.547  -2.946  0.00  0.00    -0.022 NA
ATOM     24  N   UNL     1       1.238  -2.731  -1.756  0.00  0.00    -0.043 NA
ATOM     25  N   UNL     1       0.138  -2.674  -0.882  0.00  0.00    -0.213 N 
BRANCH  25  26
ATOM     26  C   UNL     1       0.151  -2.826   0.575  0.00  0.00    +0.222 C 
BRANCH  26  27
ATOM     27  C   UNL     1       0.341  -1.477   1.219  0.00  0.00    +0.126 A 
ATOM     28  C   UNL     1      -0.641  -0.629   1.575  0.00  0.00    +0.046 A 
ATOM     29  C   UNL     1      -0.017   0.506   2.140  0.00  0.00    +0.041 A 
ATOM     30  C   UNL     1       1.310   0.288   2.089  0.00  0.00    +0.195 A 
ATOM     31  O   UNL     1       1.521  -0.914   1.530  0.00  0.00    -0.466 OA
ENDBRANCH  26  27
ENDBRANCH  25  26
ENDBRANCH  20  21
ENDBRANCH  19  20
ENDBRANCH   1  19
TORSDOF 8
