REMARK  Name = ZINC37256992
REMARK  3 active torsions:
REMARK  status: ('A' for Active; 'I' for Inactive)
REMARK    1  A    between atoms: C_1  and  C_2
REMARK    2  A    between atoms: C_7  and  N_10
REMARK    3  A    between atoms: CA_19  and  C_21
REMARK                            x       y       z     vdW  Elec       q    Type
REMARK                         _______ _______ _______ _____ _____    ______ ____
ROOT
ATOM      1  N   UNL     1      -0.612  -2.548   1.244  0.00  0.00    -0.327 N 
ATOM      2  C   UNL     1      -0.880  -3.809   1.746  0.00  0.00    +0.105 A 
ATOM      3  C   UNL     1      -2.246  -4.324   1.754  0.00  0.00    +0.020 A 
ATOM      4  C   UNL     1      -3.323  -3.579   1.264  0.00  0.00    +0.012 A 
ATOM      5  C   UNL     1      -4.579  -4.110   1.296  0.00  0.00    +0.001 A 
ATOM      6  C   UNL     1      -4.806  -5.384   1.810  0.00  0.00    +0.001 A 
ATOM      7  C   UNL     1      -3.780  -6.138   2.296  0.00  0.00    +0.009 A 
ATOM      8  C   UNL     1      -2.476  -5.622   2.278  0.00  0.00    -0.013 A 
ATOM      9  C   UNL     1      -1.375  -6.350   2.764  0.00  0.00    +0.041 A 
ATOM     10  CA  UNL     1      -0.116  -5.781   2.716  0.00  0.00    +0.130 A 
ATOM     11  N   UNL     1       0.095  -4.559   2.216  0.00  0.00    -0.337 N 
ATOM     12  H   UNL     1      -1.333  -2.000   0.898  0.00  0.00    +0.148 HD
ATOM     13  H   UNL     1       1.000  -4.210   2.203  0.00  0.00    +0.167 HD
ENDROOT
BRANCH   1  19
ATOM     14  C   UNL     1      -0.019   1.526   0.010  0.00  0.00    +0.007 C 
ATOM     15  C   UNL     1       0.002  -0.004   0.002  0.00  0.00    -0.012 C 
ATOM     16  C   UNL     1       0.718  -0.497  -1.257  0.00  0.00    +0.003 C 
ATOM     17  C   UNL     1       0.739  -2.027  -1.265  0.00  0.00    +0.002 C 
ATOM     18  C   UNL     1       1.479  -2.534  -0.026  0.00  0.00    +0.022 C 
ATOM     19  C   UNL     1       0.763  -2.041   1.233  0.00  0.00    +0.072 C 
ATOM     20  C   UNL     1       0.742  -0.511   1.242  0.00  0.00    +0.025 C 
ENDBRANCH   1  19
BRANCH  10  21
ATOM     21  C   UNL     1       1.034  -6.551   3.228  0.00  0.00    +0.402 C 
ATOM     22  O   UNL     1       2.157  -6.068   3.195  0.00  0.00    -0.239 OA
ATOM     23  OXT UNL     1       0.865  -7.673   3.686  0.00  0.00    -0.239 OA
ENDBRANCH  10  21
TORSDOF 2
