REMARK  Name = ZINC42412300
REMARK  4 active torsions:
REMARK  status: ('A' for Active; 'I' for Inactive)
REMARK    1  A    between atoms: C_1  and  C_2
REMARK    2  A    between atoms: C_5  and  C_7
REMARK    3  A    between atoms: C_7  and  C_9
REMARK    4  A    between atoms: C_7  and  N_19
REMARK                            x       y       z     vdW  Elec       q    Type
REMARK                         _______ _______ _______ _____ _____    ______ ____
ROOT
ATOM      1  C   UNL     1       1.684  -3.245  -0.023  0.00  0.00    +0.060 C 
ENDROOT
BRANCH   1   2
ATOM      2  C   UNL     1       2.197  -3.490   1.373  0.00  0.00    +0.099 A 
ATOM      3  C   UNL     1       1.734  -4.432   2.206  0.00  0.00    +0.052 A 
ATOM      4  C   UNL     1       2.518  -4.307   3.441  0.00  0.00    +0.021 A 
ATOM      5  C   UNL     1       2.526  -4.978   4.663  0.00  0.00    +0.012 A 
ATOM      6  C   UNL     1       3.410  -4.604   5.637  0.00  0.00    +0.002 A 
ATOM      7  C   UNL     1       4.298  -3.561   5.416  0.00  0.00    +0.019 A 
ATOM      8  C   UNL     1       4.306  -2.886   4.214  0.00  0.00    +0.061 A 
ATOM      9  C   UNL     1       3.415  -3.251   3.211  0.00  0.00    +0.149 A 
ATOM     10  O   UNL     1       3.189  -2.799   1.961  0.00  0.00    -0.460 OA
ATOM     11 BR   UNL     1       5.524  -1.467   3.931  0.00  0.00    -0.046 Br
ENDBRANCH   1   2
BRANCH   1  16
ATOM     12  C   UNL     1      -0.018   1.503   0.010  0.00  0.00    +0.086 C 
ATOM     13  C   UNL     1       0.002  -0.004   0.002  0.00  0.00    +0.102 A 
ATOM     14  C   UNL     1      -1.078  -0.805   0.003  0.00  0.00    +0.044 A 
ATOM     15  C   UNL     1      -0.601  -2.136  -0.007  0.00  0.00    +0.043 A 
ATOM     16  C   UNL     1       0.742  -2.069  -0.013  0.00  0.00    +0.098 A 
ATOM     17  O   UNL     1       1.102  -0.775  -0.013  0.00  0.00    -0.466 OA
ENDBRANCH   1  16
BRANCH   1  18
ATOM     18  N   UNL     1       2.814  -2.960  -0.917  0.00  0.00    +0.389 N 
ATOM     19  H   UNL     1       2.471  -2.796  -1.851  0.00  0.00    -0.088 HD
ATOM     20  H   UNL     1       3.303  -2.140  -0.590  0.00  0.00    -0.088 HD
ATOM     21  H   UNL     1       3.445  -3.748  -0.923  0.00  0.00    -0.088 HD
ENDBRANCH   1  18
TORSDOF 3
