REMARK  Name = ZINC22439056
REMARK  8 active torsions:
REMARK  status: ('A' for Active; 'I' for Inactive)
REMARK    1  A    between atoms: C_1  and  C_2
REMARK    2  A    between atoms: C_2  and  N_3
REMARK    3  A    between atoms: N_3  and  C_4
REMARK    4  A    between atoms: C_4  and  C_11
REMARK    5  A    between atoms: C_7  and  C_10
REMARK    6  A    between atoms: N_15  and  C_16
REMARK    7  A    between atoms: C_18  and  C_23
REMARK    8  A    between atoms: C_20  and  C_22
REMARK                            x       y       z     vdW  Elec       q    Type
REMARK                         _______ _______ _______ _____ _____    ______ ____
ROOT
ATOM      1  C   UNL     1       2.547   1.008   0.215  0.00  0.00    +0.146 A 
ATOM      2  N   UNL     1       1.655   1.089   1.167  0.00  0.00    -0.114 NA
ATOM      3  N   UNL     1       0.486   1.295   0.676  0.00  0.00    -0.023 NA
ATOM      4  N   UNL     1       0.549   1.359  -0.610  0.00  0.00    -0.039 NA
ATOM      5  N   UNL     1       1.898   1.174  -0.958  0.00  0.00    -0.198 N 
ENDROOT
BRANCH   5   6
ATOM      6  C   UNL     1       2.452   1.163  -2.247  0.00  0.00    +0.070 A 
ATOM      7  C   UNL     1       3.619   1.868  -2.508  0.00  0.00    +0.031 A 
ATOM      8  C   UNL     1       4.165   1.851  -3.777  0.00  0.00    -0.048 A 
ATOM      9  C   UNL     1       3.544   1.142  -4.789  0.00  0.00    +0.006 A 
ATOM     10  C   UNL     1       2.378   0.444  -4.533  0.00  0.00    -0.048 A 
ATOM     11  C   UNL     1       1.831   0.452  -3.265  0.00  0.00    +0.031 A 
ATOM     12  C   UNL     1       1.705  -0.328  -5.638  0.00  0.00    +0.044 C 
ATOM     13  C   UNL     1       5.435   2.612  -4.060  0.00  0.00    +0.044 C 
ENDBRANCH   5   6
BRANCH   1  14
ATOM     14  C   UNL     1       4.025   0.773   0.393  0.00  0.00    -0.005 C 
ATOM     15  C   UNL     1       4.253  -0.170   1.576  0.00  0.00    -0.005 C 
ATOM     16  C   UNL     1       5.753  -0.408   1.756  0.00  0.00    +0.002 C 
ATOM     17  C   UNL     1       6.453   0.925   2.026  0.00  0.00    -0.014 C 
ATOM     18  C   UNL     1       6.225   1.869   0.843  0.00  0.00    +0.002 C 
ATOM     19  C   UNL     1       4.725   2.107   0.662  0.00  0.00    -0.005 C 
ATOM     20  C   UNL     1       5.880   1.554   3.297  0.00  0.00    +0.007 C 
BRANCH  14  21
ATOM     21  N   UNL     1       4.576   0.169  -0.828  0.00  0.00    +0.387 N 
ATOM     22  H   UNL     1       5.669   0.104  -0.727  0.00  0.00    -0.085 HD
ATOM     23  H   UNL     1       4.324   0.813  -1.684  0.00  0.00    -0.085 HD
BRANCH  21  25
ATOM     24  C   UNL     1       4.558  -1.738  -2.365  0.00  0.00    -0.017 C 
ATOM     25  C   UNL     1       4.023  -1.174  -1.046  0.00  0.00    -0.085 C 
ENDBRANCH  21  25
ENDBRANCH  14  21
ENDBRANCH   1  14
TORSDOF 4
