REMARK  Name = ZINC53224059
REMARK  7 active torsions:
REMARK  status: ('A' for Active; 'I' for Inactive)
REMARK    1  A    between atoms: C_1  and  C_2
REMARK    2  A    between atoms: C_3  and  C_25
REMARK    3  A    between atoms: N_9  and  C_20
REMARK    4  A    between atoms: C_10  and  S_12
REMARK    5  A    between atoms: S_12  and  C_13
REMARK    6  A    between atoms: C_13  and  C_14
REMARK    7  A    between atoms: C_16  and  C_19
REMARK                            x       y       z     vdW  Elec       q    Type
REMARK                         _______ _______ _______ _____ _____    ______ ____
ROOT
ATOM      1  C   UNL     1       0.522   1.473   0.019  0.00  0.00    +0.045 C 
ATOM      2  C   UNL     1       0.336  -0.023   0.007  0.00  0.00    -0.026 A 
ATOM      3  C   UNL     1       0.305  -0.693  -1.154  0.00  0.00    -0.008 A 
ATOM      4  S   UNL     1       0.070  -2.387  -0.648  0.00  0.00    -0.073 S 
ATOM      5  C   UNL     1       0.021  -2.145   1.110  0.00  0.00    +0.117 A 
ATOM      6  C   UNL     1       0.194  -0.755   1.254  0.00  0.00    +0.075 A 
ATOM      7  C   UNL     1       0.201  -0.265   2.598  0.00  0.00    +0.263 A 
ATOM      8  O   UNL     1       0.340   0.926   2.820  0.00  0.00    -0.267 OA
ATOM      9  N   UNL     1       0.051  -1.135   3.613  0.00  0.00    -0.284 N 
ATOM     10  C   UNL     1      -0.106  -2.471   3.384  0.00  0.00    +0.173 A 
ATOM     11  N   UNL     1      -0.127  -2.948   2.156  0.00  0.00    -0.216 NA
ATOM     12  C   UNL     1       0.436  -0.146  -2.552  0.00  0.00    +0.052 C 
ENDROOT
BRANCH   9  13
ATOM     13  C   UNL     1       0.057  -0.638   4.992  0.00  0.00    +0.093 C 
ATOM     14  C   UNL     1      -1.099   0.362   5.199  0.00  0.00    +0.025 C 
ATOM     15  C   UNL     1      -0.506   1.437   6.143  0.00  0.00    +0.002 C 
ATOM     16  C   UNL     1       0.950   1.574   5.634  0.00  0.00    +0.002 C 
ATOM     17  C   UNL     1       1.360   0.132   5.268  0.00  0.00    +0.025 C 
ENDBRANCH   9  13
BRANCH  10  18
ATOM     18  S   UNL     1      -0.299  -3.570   4.747  0.00  0.00    -0.080 S 
BRANCH  18  19
ATOM     19  C   UNL     1      -0.471  -5.202   3.974  0.00  0.00    +0.157 C 
BRANCH  19  20
ATOM     20  C   UNL     1      -0.646  -6.249   5.043  0.00  0.00    +0.182 A 
ATOM     21  N   UNL     1       0.344  -6.920   5.643  0.00  0.00    -0.195 NA
ATOM     22  C   UNL     1      -0.146  -7.752   6.520  0.00  0.00    +0.224 A 
ATOM     23  O   UNL     1      -1.480  -7.636   6.508  0.00  0.00    -0.338 OA
ATOM     24  N   UNL     1      -1.784  -6.644   5.538  0.00  0.00    -0.060 NA
ATOM     25  C   UNL     1       0.651  -8.683   7.397  0.00  0.00    +0.112 C 
ENDBRANCH  19  20
ENDBRANCH  18  19
ENDBRANCH  10  18
TORSDOF 4
