REMARK  Name = ZINC03432005
REMARK  7 active torsions:
REMARK  status: ('A' for Active; 'I' for Inactive)
REMARK    1  A    between atoms: C_1  and  C_2
REMARK    2  A    between atoms: C_5  and  C_8
REMARK    3  A    between atoms: C_9  and  C_19
REMARK    4  A    between atoms: C_11  and  C_13
REMARK    5  A    between atoms: C_19  and  C_20
REMARK    6  A    between atoms: N_22  and  N_23
REMARK    7  A    between atoms: C_24  and  C_26
REMARK                            x       y       z     vdW  Elec       q    Type
REMARK                         _______ _______ _______ _____ _____    ______ ____
ROOT
ATOM      1  C   UNL     1      -3.308  11.432   0.086  0.00  0.00    +0.153 C 
ENDROOT
BRANCH   1   3
ATOM      2  C   UNL     1      -5.454  12.624  -0.376  0.00  0.00    +0.043 A 
ATOM      3  C   UNL     1      -4.451  12.317   0.511  0.00  0.00    +0.066 A 
ATOM      4  N   UNL     1      -4.492  12.802   1.725  0.00  0.00    -0.243 NA
ATOM      5  C   UNL     1      -5.487  13.584   2.125  0.00  0.00    +0.109 A 
ATOM      6  S   UNL     1      -6.491  13.662   0.647  0.00  0.00    -0.067 S 
BRANCH   2  11
ATOM      7  C   UNL     1      -6.132  11.015  -5.859  0.00  0.00    +0.044 C 
ATOM      8  C   UNL     1      -5.955  11.437  -4.423  0.00  0.00    -0.050 A 
ATOM      9  C   UNL     1      -7.006  11.309  -3.533  0.00  0.00    +0.004 A 
ATOM     10  C   UNL     1      -6.850  11.693  -2.217  0.00  0.00    +0.009 A 
ATOM     11  C   UNL     1      -5.628  12.211  -1.784  0.00  0.00    -0.009 A 
ATOM     12  C   UNL     1      -4.573  12.344  -2.690  0.00  0.00    +0.009 A 
ATOM     13  C   UNL     1      -4.741  11.951  -4.001  0.00  0.00    +0.004 A 
ENDBRANCH   2  11
BRANCH   5  14
ATOM     14  C   UNL     1      -5.707  14.221   3.440  0.00  0.00    +0.007 A 
ATOM     15  C   UNL     1      -4.791  14.026   4.475  0.00  0.00    +0.010 A 
ATOM     16  C   UNL     1      -4.999  14.628   5.699  0.00  0.00    +0.001 A 
ATOM     17  C   UNL     1      -6.118  15.415   5.905  0.00  0.00    +0.000 A 
ATOM     18  C   UNL     1      -7.032  15.608   4.885  0.00  0.00    +0.001 A 
ATOM     19  C   UNL     1      -6.833  15.017   3.655  0.00  0.00    +0.010 A 
ENDBRANCH   5  14
ENDBRANCH   1   3
BRANCH   1  20
ATOM     20  C   UNL     1      -3.636   9.997   0.411  0.00  0.00    +0.235 C 
ATOM     21  O   UNL     1      -4.694   9.721   0.936  0.00  0.00    -0.274 OA
ATOM     22  N   UNL     1      -2.753   9.021   0.119  0.00  0.00    -0.234 N 
ATOM     23  H   UNL     1      -1.907   9.242  -0.301  0.00  0.00    +0.173 HD
BRANCH  22  24
ATOM     24  N   UNL     1      -3.058   7.688   0.421  0.00  0.00    -0.231 N 
ATOM     25  C   UNL     1      -2.176   6.712   0.129  0.00  0.00    +0.273 C 
ATOM     26  O   UNL     1      -1.118   6.988  -0.396  0.00  0.00    -0.270 OA
ATOM     27  H   UNL     1      -3.905   7.467   0.841  0.00  0.00    +0.173 HD
BRANCH  25  28
ATOM     28  C   UNL     1      -2.504   5.277   0.454  0.00  0.00    +0.297 C 
ATOM     29  C   UNL     1      -3.703   4.817  -0.386  0.00  0.00    +0.283 C 
ATOM     30  O   UNL     1      -3.979   3.450  -0.064  0.00  0.00    -0.484 OA
ATOM     31  C   UNL     1      -2.912   2.606  -0.016  0.00  0.00    +0.162 A 
ATOM     32  C   UNL     1      -3.124   1.237  -0.076  0.00  0.00    +0.049 A 
ATOM     33  C   UNL     1      -2.051   0.367  -0.021  0.00  0.00    +0.004 A 
ATOM     34  C   UNL     1      -0.763   0.860   0.084  0.00  0.00    +0.004 A 
ATOM     35  C   UNL     1      -0.545   2.223   0.138  0.00  0.00    +0.049 A 
ATOM     36  C   UNL     1      -1.617   3.101   0.087  0.00  0.00    +0.163 A 
ATOM     37  O   UNL     1      -1.386   4.442   0.134  0.00  0.00    -0.472 OA
ENDBRANCH  25  28
ENDBRANCH  22  24
ENDBRANCH   1  20
TORSDOF 6
