REMARK  Name = ZINC43527021
REMARK  5 active torsions:
REMARK  status: ('A' for Active; 'I' for Inactive)
REMARK    1  A    between atoms: N_9  and  C_11
REMARK    2  A    between atoms: C_11  and  C_12
REMARK    3  A    between atoms: C_21  and  C_23
REMARK    4  A    between atoms: C_23  and  N_24
REMARK    5  A    between atoms: N_27  and  C_28
REMARK                            x       y       z     vdW  Elec       q    Type
REMARK                         _______ _______ _______ _____ _____    ______ ____
ROOT
ATOM      1  C   UNL     1       5.911  -2.206   1.147  0.00  0.00    -0.041 C 
ATOM      2  C   UNL     1       5.499  -2.478   2.596  0.00  0.00    -0.076 C 
ATOM      3  N   UNL     1       6.538  -3.255   3.276  0.00  0.00    +0.383 N 
ATOM      4  C   UNL     1       6.723  -4.552   2.622  0.00  0.00    -0.078 C 
ATOM      5  C   UNL     1       7.176  -4.350   1.174  0.00  0.00    -0.015 C 
ATOM      6  C   UNL     1       7.284  -2.842   0.893  0.00  0.00    -0.015 C 
ATOM      7  C   UNL     1       8.288  -2.238   1.884  0.00  0.00    -0.010 C 
ATOM      8  C   UNL     1       7.799  -2.510   3.311  0.00  0.00    -0.051 C 
ATOM      9  H   UNL     1       6.240  -3.424   4.225  0.00  0.00    -0.081 HD
ENDROOT
BRANCH   1  10
ATOM     10  C   UNL     1       4.880  -2.817   0.197  0.00  0.00    -0.076 C 
BRANCH  10  19
ATOM     11  C   UNL     1      -0.041   1.294  -0.030  0.00  0.00    +0.000 A 
ATOM     12  C   UNL     1       1.143   2.009  -0.032  0.00  0.00    +0.000 A 
ATOM     13  C   UNL     1       2.350   1.341  -0.044  0.00  0.00    +0.002 A 
ATOM     14  C   UNL     1       2.384  -0.046  -0.052  0.00  0.00    -0.061 A 
ATOM     15  C   UNL     1       1.203  -0.758  -0.046  0.00  0.00    -0.048 A 
ATOM     16  C   UNL     1      -0.009  -0.086  -0.037  0.00  0.00    +0.004 A 
ATOM     17  C   UNL     1       1.195  -2.265  -0.046  0.00  0.00    +0.017 C 
ATOM     18  C   UNL     1       2.570  -2.791  -0.461  0.00  0.00    -0.074 C 
ATOM     19  N   UNL     1       3.593  -2.128   0.363  0.00  0.00    +0.383 N 
ATOM     20  C   UNL     1       3.724  -0.734  -0.069  0.00  0.00    -0.043 C 
ATOM     21  H   UNL     1       3.316  -2.157   1.333  0.00  0.00    -0.081 HD
ENDBRANCH  10  19
ENDBRANCH   1  10
BRANCH   8  22
ATOM     22  C   UNL     1       8.851  -3.329   4.062  0.00  0.00    +0.090 C 
BRANCH  22  23
ATOM     23  N   UNL     1       8.341  -3.679   5.390  0.00  0.00    -0.301 N 
ATOM     24  C   UNL     1       9.101  -4.403   6.234  0.00  0.00    +0.304 C 
ATOM     25  O   UNL     1      10.210  -4.767   5.894  0.00  0.00    -0.253 OA
ATOM     26  N   UNL     1       8.632  -4.725   7.456  0.00  0.00    -0.269 N 
ATOM     27  H   UNL     1       7.456  -3.389   5.661  0.00  0.00    +0.150 HD
ATOM     28  H   UNL     1       7.781  -4.370   7.758  0.00  0.00    +0.156 HD
BRANCH  26  29
ATOM     29  C   UNL     1       9.377  -5.577   8.295  0.00  0.00    +0.042 A 
ATOM     30  C   UNL     1       9.220  -5.524   9.671  0.00  0.00    +0.031 A 
ATOM     31  C   UNL     1       9.954  -6.359  10.447  0.00  0.00    +0.047 A 
ATOM     32  S   UNL     1      10.903  -7.259   9.233  0.00  0.00    -0.103 S 
ATOM     33  C   UNL     1      10.257  -6.468   7.768  0.00  0.00    +0.068 A 
ENDBRANCH  26  29
ENDBRANCH  22  23
ENDBRANCH   8  22
TORSDOF 5
