REMARK  Name = ZINC64600405
REMARK  13 active torsions:
REMARK  status: ('A' for Active; 'I' for Inactive)
REMARK    1  A    between atoms: C_1  and  C_2
REMARK    2  A    between atoms: C_6  and  O_8
REMARK    3  A    between atoms: O_8  and  C_9
REMARK    4  A    between atoms: C_9  and  C_10
REMARK    5  A    between atoms: C_10  and  C_12
REMARK    6  A    between atoms: C_13  and  C_37
REMARK    7  A    between atoms: C_15  and  C_20
REMARK    8  A    between atoms: C_20  and  C_21
REMARK    9  A    between atoms: N_23  and  C_24
REMARK   10  A    between atoms: C_24  and  C_25
REMARK   11  A    between atoms: C_25  and  C_26
REMARK   12  A    between atoms: C_29  and  O_35
REMARK   13  A    between atoms: O_35  and  C_36
REMARK                            x       y       z     vdW  Elec       q    Type
REMARK                         _______ _______ _______ _____ _____    ______ ____
ROOT
ATOM      1  C   UNL     1      -1.912  -4.744  -1.411  0.00  0.00    +0.111 C 
ENDROOT
BRANCH   1  10
ATOM      2  C   UNL     1      -0.018   1.503   0.010  0.00  0.00    +0.044 C 
ATOM      3  C   UNL     1       0.002  -0.004   0.002  0.00  0.00    -0.044 A 
ATOM      4  C   UNL     1       0.006  -0.688  -1.197  0.00  0.00    +0.050 A 
ATOM      5  C   UNL     1       0.027  -2.079  -1.212  0.00  0.00    +0.139 A 
ATOM      6  C   UNL     1       0.050  -2.780  -0.021  0.00  0.00    +0.040 A 
ATOM      7  C   UNL     1       0.041  -2.088   1.185  0.00  0.00    +0.128 A 
ATOM      8  C   UNL     1       0.023  -0.702   1.194  0.00  0.00    +0.049 A 
ATOM      9  C   UNL     1       0.095  -4.287   0.016  0.00  0.00    +0.037 C 
ATOM     10  C   UNL     1      -0.389  -4.855  -1.321  0.00  0.00    +0.114 C 
ATOM     11  C   UNL     1       0.254  -4.039  -2.425  0.00  0.00    +0.317 C 
ATOM     12  O   UNL     1       0.945  -4.554  -3.272  0.00  0.00    -0.250 OA
ATOM     13  O   UNL     1       0.019  -2.712  -2.417  0.00  0.00    -0.425 OA
ATOM     14  C   UNL     1       1.532  -4.746   0.271  0.00  0.00    +0.013 C 
BRANCH   7  15
ATOM     15  O   UNL     1       0.055  -2.772   2.359  0.00  0.00    -0.487 OA
BRANCH  15  16
ATOM     16  C   UNL     1       0.044  -1.999   3.561  0.00  0.00    +0.259 C 
BRANCH  16  17
ATOM     17  C   UNL     1       0.062  -2.922   4.752  0.00  0.00    -0.043 C 
ATOM     18  C   UNL     1       0.083  -4.220   4.575  0.00  0.00    +0.011 C 
ATOM     19  C   UNL     1       0.056  -2.353   6.147  0.00  0.00    +0.042 C 
ENDBRANCH  16  17
ENDBRANCH  15  16
ENDBRANCH   7  15
ENDBRANCH   1  10
BRANCH   1  20
ATOM     20  C   UNL     1      -2.391  -5.415  -2.673  0.00  0.00    +0.214 C 
ATOM     21  O   UNL     1      -1.592  -5.931  -3.426  0.00  0.00    -0.276 OA
ATOM     22  N   UNL     1      -3.706  -5.441  -2.965  0.00  0.00    -0.315 N 
ATOM     23  H   UNL     1      -4.345  -5.028  -2.363  0.00  0.00    +0.149 HD
BRANCH  22  24
ATOM     24  C   UNL     1      -4.172  -6.093  -4.192  0.00  0.00    +0.108 C 
BRANCH  24  25
ATOM     25  C   UNL     1      -5.695  -5.982  -4.282  0.00  0.00    +0.052 C 
BRANCH  25  26
ATOM     26  C   UNL     1      -6.174  -6.652  -5.544  0.00  0.00    -0.040 C 
ATOM     27  C   UNL     1      -6.625  -7.921  -5.669  0.00  0.00    +0.002 A 
ATOM     28  C   UNL     1      -6.799  -9.015  -4.707  0.00  0.00    +0.055 A 
ATOM     29  C   UNL     1      -7.285 -10.206  -5.133  0.00  0.00    +0.121 A 
ATOM     30  C   UNL     1      -7.632 -10.439  -6.475  0.00  0.00    +0.047 A 
ATOM     31  C   UNL     1      -7.507  -9.495  -7.433  0.00  0.00    +0.029 A 
ATOM     32  C   UNL     1      -6.992  -8.167  -7.083  0.00  0.00    +0.043 A 
ATOM     33  N   UNL     1      -6.775  -7.094  -7.802  0.00  0.00    -0.380 N 
ATOM     34  C   UNL     1      -6.252  -6.041  -6.925  0.00  0.00    +0.144 C 
ATOM     35  H   UNL     1      -6.938  -7.009  -8.755  0.00  0.00    +0.160 HD
BRANCH  29  36
ATOM     36  O   UNL     1      -7.440 -11.211  -4.231  0.00  0.00    -0.495 OA
ATOM     37  C   UNL     1      -7.955 -12.450  -4.723  0.00  0.00    +0.277 C 
ENDBRANCH  29  36
ENDBRANCH  25  26
ENDBRANCH  24  25
ENDBRANCH  22  24
ENDBRANCH   1  20
TORSDOF 9
