REMARK  Name = ZINC09493729
REMARK  12 active torsions:
REMARK  status: ('A' for Active; 'I' for Inactive)
REMARK    1  A    between atoms: C_1  and  C_2
REMARK    2  A    between atoms: C_3  and  C_8
REMARK    3  A    between atoms: C_4  and  C_7
REMARK    4  A    between atoms: C_8  and  S_9
REMARK    5  A    between atoms: S_9  and  C_10
REMARK    6  A    between atoms: C_10  and  C_11
REMARK    7  A    between atoms: C_11  and  O_13
REMARK    8  A    between atoms: O_13  and  C_14
REMARK    9  A    between atoms: C_14  and  C_15
REMARK   10  A    between atoms: N_17  and  C_18
REMARK   11  A    between atoms: C_21  and  S_24
REMARK   12  A    between atoms: S_24  and  N_27
REMARK                            x       y       z     vdW  Elec       q    Type
REMARK                         _______ _______ _______ _____ _____    ______ ____
ROOT
ATOM      1  C   UNL     1       8.163   5.333   3.332  0.00  0.00    +0.255 C 
ATOM      2  O   UNL     1       8.539   4.275   3.791  0.00  0.00    -0.272 OA
ATOM      3  N   UNL     1       9.031   6.354   3.194  0.00  0.00    -0.283 N 
ATOM      4  H   UNL     1       8.748   7.177   2.765  0.00  0.00    +0.155 HD
ENDROOT
BRANCH   3   5
ATOM      5  C   UNL     1      10.341   6.228   3.669  0.00  0.00    +0.034 A 
ATOM      6  C   UNL     1      10.997   7.329   4.203  0.00  0.00    +0.025 A 
ATOM      7  C   UNL     1      12.288   7.199   4.677  0.00  0.00    +0.030 A 
ATOM      8  C   UNL     1      12.932   5.977   4.608  0.00  0.00    +0.106 A 
ATOM      9  C   UNL     1      12.284   4.880   4.071  0.00  0.00    +0.030 A 
ATOM     10  C   UNL     1      10.991   5.002   3.601  0.00  0.00    +0.025 A 
BRANCH   8  11
ATOM     11  S   UNL     1      14.581   5.818   5.207  0.00  0.00    +0.061 S 
ATOM     12  O   UNL     1      14.770   6.856   6.158  0.00  0.00    -0.153 OA
ATOM     13  O   UNL     1      14.766   4.446   5.529  0.00  0.00    -0.153 OA
BRANCH  11  14
ATOM     14  N   UNL     1      15.596   6.146   3.940  0.00  0.00    -0.177 NA
ATOM     15  C   UNL     1      16.057   5.071   3.051  0.00  0.00    +0.109 C 
ATOM     16  C   UNL     1      15.738   5.465   1.601  0.00  0.00    +0.017 C 
ATOM     17  C   UNL     1      16.354   6.833   1.303  0.00  0.00    +0.003 C 
ATOM     18  C   UNL     1      15.742   7.884   2.232  0.00  0.00    +0.017 C 
ATOM     19  C   UNL     1      16.057   7.518   3.686  0.00  0.00    +0.109 C 
ENDBRANCH  11  14
ENDBRANCH   8  11
ENDBRANCH   3   5
BRANCH   1  20
ATOM     20  C   UNL     1       6.725   5.505   2.916  0.00  0.00    +0.328 C 
BRANCH  20  21
ATOM     21  O   UNL     1       5.998   4.272   3.162  0.00  0.00    -0.455 OA
BRANCH  21  22
ATOM     22  C   UNL     1       4.695   4.259   2.844  0.00  0.00    +0.317 C 
ATOM     23  O   UNL     1       4.177   5.245   2.374  0.00  0.00    -0.250 OA
BRANCH  22  24
ATOM     24  C   UNL     1       3.876   3.014   3.071  0.00  0.00    +0.189 C 
BRANCH  24  25
ATOM     25  S   UNL     1       2.166   3.311   2.545  0.00  0.00    -0.145 S 
BRANCH  25  26
ATOM     26  C   UNL     1       1.325   1.739   2.880  0.00  0.00    +0.110 C 
BRANCH  26  29
ATOM     27  C   UNL     1       0.004   1.066  -0.006  0.00  0.00    +0.069 C 
ATOM     28  C   UNL     1      -0.708   1.559   1.228  0.00  0.00    +0.085 A 
ATOM     29  C   UNL     1      -0.125   1.850   2.482  0.00  0.00    +0.027 A 
ATOM     30  C   UNL     1      -1.170   2.252   3.244  0.00  0.00    +0.138 A 
ATOM     31  O   UNL     1      -2.257   2.187   2.462  0.00  0.00    -0.359 OA
ATOM     32  N   UNL     1      -1.980   1.807   1.348  0.00  0.00    -0.083 NA
ATOM     33  C   UNL     1      -1.122   2.686   4.686  0.00  0.00    +0.089 C 
ENDBRANCH  26  29
ENDBRANCH  25  26
ENDBRANCH  24  25
ENDBRANCH  22  24
ENDBRANCH  21  22
ENDBRANCH  20  21
ENDBRANCH   1  20
TORSDOF 10
