REMARK  Name = ZINC01818174
REMARK  10 active torsions:
REMARK  status: ('A' for Active; 'I' for Inactive)
REMARK    1  A    between atoms: C_1  and  O_2
REMARK    2  A    between atoms: O_2  and  C_3
REMARK    3  A    between atoms: C_8  and  C_9
REMARK    4  A    between atoms: C_10  and  C_11
REMARK    5  A    between atoms: N_13  and  C_14
REMARK    6  A    between atoms: C_14  and  C_15
REMARK    7  A    between atoms: N_17  and  N_18
REMARK    8  A    between atoms: N_26  and  C_29
REMARK    9  A    between atoms: C_29  and  C_30
REMARK   10  A    between atoms: C_30  and  C_31
REMARK                            x       y       z     vdW  Elec       q    Type
REMARK                         _______ _______ _______ _____ _____    ______ ____
ROOT
ATOM      1  C   UNL     1      -0.797  -8.617   1.579  0.00  0.00    +0.249 C 
ATOM      2  O   UNL     1      -0.220  -8.940   0.563  0.00  0.00    -0.272 OA
ATOM      3  N   UNL     1      -1.261  -9.562   2.420  0.00  0.00    -0.205 N 
ATOM      4  H   UNL     1      -1.723  -9.304   3.233  0.00  0.00    +0.177 HD
ENDROOT
BRANCH   3   5
ATOM      5  N   UNL     1      -1.077 -10.918   2.119  0.00  0.00    -0.174 NA
ATOM      6  C   UNL     1      -1.529 -11.838   2.937  0.00  0.00    +0.153 C 
ATOM      7  C   UNL     1      -1.423 -13.308   2.788  0.00  0.00    +0.028 A 
ATOM      8  C   UNL     1      -0.859 -14.129   1.818  0.00  0.00    +0.012 A 
ATOM      9  C   UNL     1      -0.920 -15.501   1.961  0.00  0.00    +0.001 A 
ATOM     10  C   UNL     1      -1.542 -16.056   3.067  0.00  0.00    +0.002 A 
ATOM     11  C   UNL     1      -2.104 -15.249   4.035  0.00  0.00    +0.024 A 
ATOM     12  C   UNL     1      -2.053 -13.865   3.908  0.00  0.00    +0.046 A 
ATOM     13  N   UNL     1      -2.531 -12.845   4.723  0.00  0.00    -0.265 N 
ATOM     14  C   UNL     1      -2.249 -11.634   4.210  0.00  0.00    +0.271 C 
ATOM     15  O   UNL     1      -2.540 -10.562   4.705  0.00  0.00    -0.268 OA
BRANCH  13  16
ATOM     16  C   UNL     1      -3.245 -13.061   5.983  0.00  0.00    +0.118 C 
BRANCH  16  17
ATOM     17  C   UNL     1      -2.240 -13.118   7.136  0.00  0.00    +0.054 C 
BRANCH  17  18
ATOM     18  C   UNL     1      -2.975 -13.340   8.432  0.00  0.00    -0.046 A 
ATOM     19  C   UNL     1      -3.417 -12.258   9.170  0.00  0.00    +0.004 A 
ATOM     20  C   UNL     1      -4.091 -12.462  10.360  0.00  0.00    +0.000 A 
ATOM     21  C   UNL     1      -4.323 -13.748  10.811  0.00  0.00    +0.000 A 
ATOM     22  C   UNL     1      -3.881 -14.830  10.073  0.00  0.00    +0.000 A 
ATOM     23  C   UNL     1      -3.211 -14.626   8.881  0.00  0.00    +0.004 A 
ENDBRANCH  17  18
ENDBRANCH  16  17
ENDBRANCH  13  16
ENDBRANCH   3   5
BRANCH   1  24
ATOM     24  C   UNL     1      -0.995  -7.158   1.902  0.00  0.00    +0.202 C 
BRANCH  24  27
ATOM     25  C   UNL     1      -0.462  -4.994   0.918  0.00  0.00    +0.237 C 
ATOM     26  O   UNL     1      -1.004  -4.461   1.868  0.00  0.00    -0.271 OA
ATOM     27  N   UNL     1      -0.405  -6.338   0.841  0.00  0.00    -0.303 N 
ATOM     28  H   UNL     1       0.027  -6.763   0.084  0.00  0.00    +0.149 HD
BRANCH  25  30
ATOM     29  C   UNL     1       0.070  -2.829  -0.065  0.00  0.00    +0.016 C 
ATOM     30  C   UNL     1       0.127  -4.176  -0.141  0.00  0.00    +0.068 C 
BRANCH  29  36
ATOM     31  C   UNL     1       0.605  -0.606  -1.054  0.00  0.00    +0.127 A 
ATOM     32  C   UNL     1       1.172   0.159  -2.061  0.00  0.00    +0.046 A 
ATOM     33  C   UNL     1       1.785  -0.455  -3.136  0.00  0.00    +0.004 A 
ATOM     34  C   UNL     1       1.839  -1.837  -3.218  0.00  0.00    +0.001 A 
ATOM     35  C   UNL     1       1.281  -2.615  -2.227  0.00  0.00    +0.011 A 
ATOM     36  C   UNL     1       0.662  -2.007  -1.129  0.00  0.00    +0.017 A 
BRANCH  31  38
ATOM     37  C   UNL     1      -0.017   1.425   0.010  0.00  0.00    +0.277 C 
ATOM     38  O   UNL     1       0.002  -0.004   0.002  0.00  0.00    -0.495 OA
ENDBRANCH  31  38
ENDBRANCH  29  36
ENDBRANCH  25  30
ENDBRANCH  24  27
ENDBRANCH   1  24
TORSDOF 9
