REMARK  Name = ZINC50972923
REMARK  2 active torsions:
REMARK  status: ('A' for Active; 'I' for Inactive)
REMARK    1  A    between atoms: C_6  and  C_7
REMARK    2  A    between atoms: C_7  and  C_9
REMARK                            x       y       z     vdW  Elec       q    Type
REMARK                         _______ _______ _______ _____ _____    ______ ____
ROOT
ATOM      1  C   UNL     1      -0.017   1.378   0.010  0.00  0.00    +0.008 A 
ATOM      2  C   UNL     1       1.170   2.088   0.002  0.00  0.00    +0.050 A 
ATOM      3  C   UNL     1       2.382   1.415  -0.013  0.00  0.00    +0.162 A 
ATOM      4  C   UNL     1       2.401   0.025  -0.018  0.00  0.00    +0.162 A 
ATOM      5  C   UNL     1       1.207  -0.681  -0.011  0.00  0.00    +0.054 A 
ATOM      6  C   UNL     1       0.002  -0.004   0.002  0.00  0.00    -0.028 A 
ATOM      7  O   UNL     1       3.579  -0.656  -0.024  0.00  0.00    -0.485 OA
ATOM      8  C   UNL     1       4.746   0.081  -0.406  0.00  0.00    +0.270 C 
ATOM      9  C   UNL     1       4.733   1.422   0.340  0.00  0.00    +0.270 C 
ATOM     10  O   UNL     1       3.542   2.127  -0.024  0.00  0.00    -0.485 OA
ENDROOT
BRANCH   6  11
ATOM     11  C   UNL     1      -1.293  -0.774   0.009  0.00  0.00    +0.115 C 
ATOM     12 BR   UNL     1      -2.387  -0.203   1.539  0.00  0.00    -0.080 Br
BRANCH  11  13
ATOM     13  C   UNL     1      -2.054  -0.503  -1.291  0.00  0.00    +0.136 C 
ATOM     14  C   UNL     1      -3.424  -1.184  -1.232  0.00  0.00    +0.033 C 
ATOM     15  C   UNL     1      -4.203  -0.859  -2.510  0.00  0.00    +0.005 C 
ATOM     16  C   UNL     1      -4.315   0.662  -2.654  0.00  0.00    +0.028 C 
ATOM     17  C   UNL     1      -2.910   1.272  -2.658  0.00  0.00    +0.160 C 
ATOM     18  O   UNL     1      -2.230   0.905  -1.456  0.00  0.00    -0.375 OA
ENDBRANCH  11  13
ENDBRANCH   6  11
TORSDOF 2
