REMARK  Name = ZINC38547690
REMARK  8 active torsions:
REMARK  status: ('A' for Active; 'I' for Inactive)
REMARK    1  A    between atoms: C_1  and  C_2
REMARK    2  A    between atoms: N_8  and  C_9
REMARK    3  A    between atoms: C_9  and  C_11
REMARK    4  A    between atoms: C_9  and  C_20
REMARK    5  A    between atoms: C_21  and  C_34
REMARK    6  A    between atoms: C_22  and  C_33
REMARK    7  A    between atoms: C_24  and  N_25
REMARK    8  A    between atoms: C_26  and  C_28
REMARK                            x       y       z     vdW  Elec       q    Type
REMARK                         _______ _______ _______ _____ _____    ______ ____
ROOT
ATOM      1  C   UNL     1       0.068  -2.144   3.631  0.00  0.00    +0.135 C 
ENDROOT
BRANCH   1   9
ATOM      2  C   UNL     1       0.944   1.068  -0.265  0.00  0.00    +0.044 C 
ATOM      3  C   UNL     1       0.762  -0.422  -0.131  0.00  0.00    -0.046 A 
ATOM      4  C   UNL     1       0.820  -1.247  -1.247  0.00  0.00    +0.021 A 
ATOM      5  C   UNL     1       0.650  -2.607  -1.091  0.00  0.00    +0.084 A 
ATOM      6  N   UNL     1       0.433  -3.131   0.101  0.00  0.00    -0.350 N 
ATOM      7  C   UNL     1       0.370  -2.378   1.188  0.00  0.00    +0.097 A 
ATOM      8  C   UNL     1       0.538  -0.999   1.105  0.00  0.00    +0.045 A 
ATOM      9  N   UNL     1       0.139  -2.970   2.424  0.00  0.00    -0.320 N 
ATOM     10  H   UNL     1       0.025  -3.932   2.487  0.00  0.00    +0.148 HD
ATOM     11  H   UNL     1       0.317  -4.090   0.182  0.00  0.00    +0.166 HD
ENDBRANCH   1   9
BRANCH   1  12
ATOM     12  C   UNL     1       1.462  -1.779   4.073  0.00  0.00    -0.019 A 
ATOM     13  C   UNL     1       2.513  -2.641   3.821  0.00  0.00    +0.009 A 
ATOM     14  C   UNL     1       3.794  -2.311   4.224  0.00  0.00    +0.050 A 
ATOM     15  C   UNL     1       4.027  -1.114   4.883  0.00  0.00    +0.166 A 
ATOM     16  C   UNL     1       2.968  -0.246   5.137  0.00  0.00    +0.167 A 
ATOM     17  C   UNL     1       1.688  -0.581   4.725  0.00  0.00    +0.055 A 
ATOM     18  O   UNL     1       3.450   0.851   5.790  0.00  0.00    -0.453 OA
ATOM     19  C   UNL     1       4.741   0.461   6.294  0.00  0.00    +0.466 C 
ATOM     20  O   UNL     1       5.173  -0.561   5.377  0.00  0.00    -0.453 OA
ENDBRANCH   1  12
BRANCH   1  21
ATOM     21  C   UNL     1      -0.621  -2.914   4.728  0.00  0.00    +0.009 A 
ATOM     22  C   UNL     1      -1.614  -2.322   5.486  0.00  0.00    -0.033 A 
ATOM     23  C   UNL     1      -2.214  -3.043   6.464  0.00  0.00    -0.008 A 
ATOM     24  S   UNL     1      -1.374  -4.613   6.338  0.00  0.00    -0.078 S 
ATOM     25  C   UNL     1      -0.281  -4.208   4.986  0.00  0.00    +0.078 A 
ATOM     26  C   UNL     1      -3.308  -2.627   7.413  0.00  0.00    +0.052 C 
ATOM     27  C   UNL     1      -2.024  -0.895   5.229  0.00  0.00    +0.045 C 
BRANCH  25  28
ATOM     28  N   UNL     1       0.675  -5.008   4.358  0.00  0.00    -0.273 N 
ATOM     29  C   UNL     1       0.942  -6.240   4.835  0.00  0.00    +0.284 C 
ATOM     30  O   UNL     1       0.349  -6.655   5.814  0.00  0.00    -0.266 OA
ATOM     31  H   UNL     1       1.148  -4.677   3.578  0.00  0.00    +0.156 HD
BRANCH  29  32
ATOM     32  C   UNL     1       1.946  -7.080   4.176  0.00  0.00    +0.189 A 
ATOM     33  C   UNL     1       2.308  -8.343   4.550  0.00  0.00    +0.054 A 
ATOM     34  C   UNL     1       3.294  -8.766   3.645  0.00  0.00    +0.042 A 
ATOM     35  C   UNL     1       3.489  -7.756   2.769  0.00  0.00    +0.196 A 
ATOM     36  O   UNL     1       2.671  -6.744   3.089  0.00  0.00    -0.458 OA
ENDBRANCH  29  32
ENDBRANCH  25  28
ENDBRANCH   1  21
TORSDOF 5
