REMARK  Name = ZINC37929751
REMARK  10 active torsions:
REMARK  status: ('A' for Active; 'I' for Inactive)
REMARK    1  A    between atoms: C_1  and  C_2
REMARK    2  A    between atoms: C_2  and  C_3
REMARK    3  A    between atoms: C_3  and  C_4
REMARK    4  A    between atoms: C_4  and  C_5
REMARK    5  A    between atoms: C_5  and  C_6
REMARK    6  A    between atoms: C_6  and  C_8
REMARK    7  A    between atoms: C_6  and  N_9
REMARK    8  A    between atoms: N_9  and  S_10
REMARK    9  A    between atoms: S_10  and  C_13
REMARK   10  A    between atoms: C_18  and  N_19
REMARK                            x       y       z     vdW  Elec       q    Type
REMARK                         _______ _______ _______ _____ _____    ______ ____
ROOT
ATOM      1  S   UNL     1      -1.383  -6.079   1.282  0.00  0.00    +0.060 S 
ATOM      2  O   UNL     1      -0.988  -6.437   2.599  0.00  0.00    -0.153 OA
ATOM      3  O   UNL     1      -2.212  -6.911   0.483  0.00  0.00    -0.153 OA
ENDROOT
BRANCH   1   4
ATOM      4  C   UNL     1       0.098  -5.814   0.366  0.00  0.00    +0.127 A 
ATOM      5  C   UNL     1       0.266  -6.415  -0.866  0.00  0.00    +0.045 A 
ATOM      6  C   UNL     1       1.429  -6.208  -1.585  0.00  0.00    +0.020 A 
ATOM      7  C   UNL     1       2.427  -5.397  -1.074  0.00  0.00    +0.017 A 
ATOM      8  C   UNL     1       2.265  -4.793   0.157  0.00  0.00    +0.026 A 
ATOM      9  C   UNL     1       1.096  -4.995   0.880  0.00  0.00    +0.051 A 
ATOM     10 BR   UNL     1       1.656  -7.034  -3.271  0.00  0.00    -0.050 Br
BRANCH   9  11
ATOM     11  N   UNL     1       0.926  -4.380   2.123  0.00  0.00    -0.356 N 
ATOM     12  H   UNL     1       0.079  -4.455   2.589  0.00  0.00    +0.142 HD
ATOM     13  H   UNL     1       1.655  -3.878   2.519  0.00  0.00    +0.142 HD
ENDBRANCH   9  11
ENDBRANCH   1   4
BRANCH   1  14
ATOM     14  N   UNL     1      -2.154  -4.617   1.401  0.00  0.00    -0.187 NA
ATOM     15  H   UNL     1      -2.258  -4.193   2.267  0.00  0.00    +0.148 HD
BRANCH  14  16
ATOM     16  C   UNL     1      -2.678  -3.966   0.198  0.00  0.00    +0.073 C 
ATOM     17  C   UNL     1      -4.155  -4.327   0.025  0.00  0.00    +0.025 C 
BRANCH  16  18
ATOM     18  C   UNL     1      -2.537  -2.449   0.336  0.00  0.00    +0.020 C 
BRANCH  18  19
ATOM     19  C   UNL     1      -1.053  -2.077   0.384  0.00  0.00    +0.002 C 
BRANCH  19  20
ATOM     20  C   UNL     1      -0.912  -0.560   0.523  0.00  0.00    -0.000 C 
BRANCH  20  22
ATOM     21  C   UNL     1       0.713   1.329   0.709  0.00  0.00    +0.004 C 
ATOM     22  C   UNL     1       0.572  -0.189   0.570  0.00  0.00    -0.003 C 
ENDBRANCH  20  22
ENDBRANCH  19  20
ENDBRANCH  18  19
ENDBRANCH  16  18
ENDBRANCH  14  16
ENDBRANCH   1  14
TORSDOF 8
