REMARK  Name = ZINC18467947
REMARK  12 active torsions:
REMARK  status: ('A' for Active; 'I' for Inactive)
REMARK    1  A    between atoms: C_1  and  C_2
REMARK    2  A    between atoms: C_2  and  C_3
REMARK    3  A    between atoms: C_2  and  C_4
REMARK    4  A    between atoms: C_4  and  N_5
REMARK    5  A    between atoms: N_5  and  C_6
REMARK    6  A    between atoms: C_7  and  N_22
REMARK    7  A    between atoms: N_8  and  C_15
REMARK    8  A    between atoms: C_15  and  C_16
REMARK    9  A    between atoms: C_23  and  C_25
REMARK   10  A    between atoms: C_25  and  O_26
REMARK   11  A    between atoms: O_26  and  C_27
REMARK   12  A    between atoms: C_27  and  C_29
REMARK                            x       y       z     vdW  Elec       q    Type
REMARK                         _______ _______ _______ _____ _____    ______ ____
ROOT
ATOM      1  N   UNL     1       0.048   1.531  -0.053  0.00  0.00    -0.261 N 
ATOM      2  C   UNL     1       0.059   0.205  -0.304  0.00  0.00    +0.258 C 
ATOM      3  O   UNL     1      -0.953  -0.448  -0.157  0.00  0.00    -0.272 OA
ENDROOT
BRANCH   1   4
ATOM      4  C   UNL     1       1.244   2.275  -0.141  0.00  0.00    +0.140 A 
ATOM      5  C   UNL     1       1.363   3.307  -1.050  0.00  0.00    +0.128 A 
ATOM      6  N   UNL     1       2.539   4.018  -1.108  0.00  0.00    -0.276 N 
ATOM      7  C   UNL     1       3.565   3.704  -0.297  0.00  0.00    +0.331 A 
ATOM      8  O   UNL     1       4.599   4.341  -0.368  0.00  0.00    -0.246 OA
ATOM      9  N   UNL     1       3.469   2.698   0.591  0.00  0.00    -0.273 N 
ATOM     10  H   UNL     1       4.247   2.485   1.182  0.00  0.00    +0.173 HD
ATOM     11  C   UNL     1       2.337   1.974   0.692  0.00  0.00    +0.277 A 
ATOM     12  O   UNL     1       2.261   1.064   1.500  0.00  0.00    -0.266 OA
BRANCH   5  13
ATOM     13  N   UNL     1       0.317   3.624  -1.883  0.00  0.00    -0.343 N 
ATOM     14  H   UNL     1      -0.530   3.158  -1.797  0.00  0.00    +0.144 HD
ATOM     15  H   UNL     1       0.425   4.314  -2.556  0.00  0.00    +0.144 HD
ENDBRANCH   5  13
BRANCH   6  16
ATOM     16  C   UNL     1       2.677   5.120  -2.064  0.00  0.00    +0.163 C 
BRANCH  16  17
ATOM     17  C   UNL     1       3.217   4.589  -3.367  0.00  0.00    -0.028 A 
ATOM     18  C   UNL     1       4.582   4.545  -3.583  0.00  0.00    +0.005 A 
ATOM     19  C   UNL     1       5.077   4.054  -4.776  0.00  0.00    +0.000 A 
ATOM     20  C   UNL     1       4.207   3.617  -5.758  0.00  0.00    +0.000 A 
ATOM     21  C   UNL     1       2.842   3.667  -5.544  0.00  0.00    +0.000 A 
ATOM     22  C   UNL     1       2.347   4.153  -4.349  0.00  0.00    +0.005 A 
ENDBRANCH  16  17
ENDBRANCH   6  16
ENDBRANCH   1   4
BRANCH   1  23
ATOM     23  C   UNL     1      -1.205   2.199   0.305  0.00  0.00    +0.117 C 
BRANCH  23  25
ATOM     24  C   UNL     1      -2.564   3.095   2.201  0.00  0.00    +0.009 C 
ATOM     25  C   UNL     1      -1.319   2.286   1.829  0.00  0.00    +0.001 C 
ATOM     26  C   UNL     1      -1.433   0.877   2.413  0.00  0.00    +0.009 C 
ENDBRANCH  23  25
ENDBRANCH   1  23
BRANCH   2  27
ATOM     27  C   UNL     1       1.327  -0.464  -0.768  0.00  0.00    +0.328 C 
BRANCH  27  28
ATOM     28  O   UNL     1       1.106  -1.894  -0.883  0.00  0.00    -0.451 OA
BRANCH  28  29
ATOM     29  C   UNL     1       2.150  -2.645  -1.290  0.00  0.00    +0.346 C 
ATOM     30  O   UNL     1       3.217  -2.117  -1.542  0.00  0.00    -0.244 OA
BRANCH  29  31
ATOM     31  C   UNL     1       2.000  -4.094  -1.429  0.00  0.00    +0.097 A 
ATOM     32  C   UNL     1       2.932  -5.032  -1.826  0.00  0.00    +0.026 A 
ATOM     33  C   UNL     1       2.540  -6.370  -1.877  0.00  0.00    -0.036 A 
ATOM     34  C   UNL     1       1.254  -6.644  -1.530  0.00  0.00    -0.006 A 
ATOM     35  S   UNL     1       0.568  -5.111  -1.121  0.00  0.00    -0.086 S 
ATOM     36  C   UNL     1       0.947  -8.113  -1.628  0.00  0.00    +0.043 C 
ATOM     37  C   UNL     1       2.082  -8.691  -2.501  0.00  0.00    +0.010 C 
ATOM     38  C   UNL     1       3.224  -7.689  -2.244  0.00  0.00    +0.036 C 
ENDBRANCH  29  31
ENDBRANCH  28  29
ENDBRANCH  27  28
ENDBRANCH   2  27
TORSDOF 10
