REMARK  Name = ZINC14543205
REMARK  8 active torsions:
REMARK  status: ('A' for Active; 'I' for Inactive)
REMARK    1  A    between atoms: C_1  and  C_2
REMARK    2  A    between atoms: C_2  and  C_3
REMARK    3  A    between atoms: C_3  and  N_4
REMARK    4  A    between atoms: C_7  and  C_9
REMARK    5  A    between atoms: C_18  and  N_64
REMARK    6  A    between atoms: C_22  and  C_23
REMARK    7  A    between atoms: C_22  and  N_64
REMARK    8  A    between atoms: C_23  and  O_29
REMARK                            x       y       z     vdW  Elec       q    Type
REMARK                         _______ _______ _______ _____ _____    ______ ____
ROOT
ATOM      1  N   UNL     1       0.009  -0.004   0.002  0.00  0.00    -0.267 N 
ATOM      2  C   UNL     1       0.009  -0.780   1.099  0.00  0.00    +0.043 A 
ATOM      3  C   UNL     1       0.014  -2.069   0.678  0.00  0.00    +0.004 A 
ATOM      4  C   UNL     1       0.019  -2.017  -0.726  0.00  0.00    +0.151 A 
ATOM      5  N   UNL     1       0.010  -0.737  -1.058  0.00  0.00    -0.166 NA
ATOM      6  C   UNL     1       0.013  -3.265   1.589  0.00  0.00    +0.023 C 
ATOM      7  C   UNL     1      -0.401  -2.802   2.992  0.00  0.00    -0.067 C 
ATOM      8  C   UNL     1       0.429  -1.580   3.393  0.00  0.00    -0.009 C 
ATOM      9  C   UNL     1       0.008  -0.370   2.549  0.00  0.00    +0.054 C 
ENDROOT
BRANCH   4  10
ATOM     10  C   UNL     1       0.026  -3.168  -1.652  0.00  0.00    +0.267 C 
ATOM     11  O   UNL     1       0.137  -4.297  -1.217  0.00  0.00    -0.268 OA
ATOM     12  N   UNL     1      -0.090  -2.966  -2.979  0.00  0.00    -0.295 N 
ATOM     13  C   UNL     1      -0.116  -1.599  -3.503  0.00  0.00    +0.119 C 
ATOM     14  C   UNL     1       1.141  -1.359  -4.356  0.00  0.00    +0.088 C 
ATOM     15  S   UNL     1       1.189  -2.604  -5.680  0.00  0.00    -0.158 S 
ATOM     16  C   UNL     1       1.048  -4.175  -4.777  0.00  0.00    +0.088 C 
ATOM     17  C   UNL     1      -0.194  -4.115  -3.880  0.00  0.00    +0.119 C 
ENDBRANCH   4  10
BRANCH   7  18
ATOM     18  N   UNL     1      -0.164  -3.895   3.953  0.00  0.00    +0.383 N 
ATOM     19  H   UNL     1       0.814  -3.866   4.264  0.00  0.00    -0.085 HD
ATOM     20  H   UNL     1      -0.351  -4.795   3.495  0.00  0.00    -0.085 HD
BRANCH  18  21
ATOM     21  C   UNL     1      -1.051  -3.750   5.123  0.00  0.00    -0.047 C 
BRANCH  21  22
ATOM     22  C   UNL     1      -0.782  -4.896   6.100  0.00  0.00    +0.051 C 
ATOM     23  C   UNL     1      -0.938  -6.234   5.373  0.00  0.00    +0.033 C 
ATOM     24  C   UNL     1      -0.669  -7.380   6.351  0.00  0.00    +0.003 C 
ATOM     25  C   UNL     1      -1.669  -7.309   7.507  0.00  0.00    +0.000 C 
ATOM     26  C   UNL     1      -1.514  -5.971   8.234  0.00  0.00    +0.003 C 
ATOM     27  C   UNL     1      -1.782  -4.825   7.256  0.00  0.00    +0.033 C 
BRANCH  22  28
ATOM     28  O   UNL     1       0.547  -4.784   6.613  0.00  0.00    -0.390 OA
ATOM     29  H   UNL     1       1.234  -4.821   5.934  0.00  0.00    +0.210 HD
ENDBRANCH  22  28
ENDBRANCH  21  22
ENDBRANCH  18  21
ENDBRANCH   7  18
BRANCH   1  30
ATOM     30  C   UNL     1       0.001   1.461   0.011  0.00  0.00    +0.143 C 
BRANCH  30  32
ATOM     31  C   UNL     1       1.433   3.508   0.026  0.00  0.00    +0.005 C 
ATOM     32  C   UNL     1       1.441   1.978   0.017  0.00  0.00    +0.020 C 
ENDBRANCH  30  32
ENDBRANCH   1  30
TORSDOF 7
