REMARK  Name = ZINC04376585
REMARK  12 active torsions:
REMARK  status: ('A' for Active; 'I' for Inactive)
REMARK    1  A    between atoms: C_1  and  C_2
REMARK    2  A    between atoms: C_2  and  C_3
REMARK    3  A    between atoms: C_3  and  C_5
REMARK    4  A    between atoms: C_3  and  N_6
REMARK    5  A    between atoms: N_6  and  C_7
REMARK    6  A    between atoms: C_7  and  C_8
REMARK    7  A    between atoms: N_12  and  C_13
REMARK    8  A    between atoms: C_13  and  C_14
REMARK    9  A    between atoms: C_20  and  C_22
REMARK   10  A    between atoms: C_22  and  C_24
REMARK   11  A    between atoms: C_22  and  C_26
REMARK   12  A    between atoms: C_24  and  C_25
REMARK                            x       y       z     vdW  Elec       q    Type
REMARK                         _______ _______ _______ _____ _____    ______ ____
ROOT
ATOM      1  N   UNL     1      -1.679   1.661  -0.641  0.00  0.00    -0.292 N 
ATOM      2  C   UNL     1      -1.101   0.812  -1.514  0.00  0.00    +0.224 C 
ATOM      3  O   UNL     1      -1.652   0.550  -2.561  0.00  0.00    -0.275 OA
ENDROOT
BRANCH   1   4
ATOM      4  C   UNL     1      -0.974   2.046   0.584  0.00  0.00    +0.073 C 
ATOM      5  C   UNL     1      -0.665   3.544   0.545  0.00  0.00    +0.028 C 
BRANCH   4   7
ATOM      6  C   UNL     1      -2.121   0.233   1.865  0.00  0.00    +0.005 C 
ATOM      7  C   UNL     1      -1.854   1.738   1.797  0.00  0.00    +0.019 C 
ENDBRANCH   4   7
ENDBRANCH   1   4
BRANCH   1   8
ATOM      8  C   UNL     1      -3.014   2.198  -0.918  0.00  0.00    +0.161 C 
BRANCH   8   9
ATOM      9  C   UNL     1      -2.889   3.457  -1.737  0.00  0.00    +0.036 A 
ATOM     10  C   UNL     1      -1.855   3.777  -2.541  0.00  0.00    +0.024 A 
ATOM     11  C   UNL     1      -2.141   5.032  -3.114  0.00  0.00    +0.019 A 
ATOM     12  C   UNL     1      -3.338   5.430  -2.639  0.00  0.00    +0.086 A 
ATOM     13  N   UNL     1      -3.805   4.465  -1.798  0.00  0.00    -0.345 N 
BRANCH  13  14
ATOM     14  C   UNL     1      -5.080   4.505  -1.076  0.00  0.00    +0.156 C 
BRANCH  14  15
ATOM     15  C   UNL     1      -4.860   5.085   0.298  0.00  0.00    -0.028 A 
ATOM     16  C   UNL     1      -4.658   4.246   1.378  0.00  0.00    +0.005 A 
ATOM     17  C   UNL     1      -4.457   4.778   2.638  0.00  0.00    +0.000 A 
ATOM     18  C   UNL     1      -4.457   6.149   2.818  0.00  0.00    +0.000 A 
ATOM     19  C   UNL     1      -4.658   6.988   1.737  0.00  0.00    +0.000 A 
ATOM     20  C   UNL     1      -4.855   6.456   0.477  0.00  0.00    +0.005 A 
ENDBRANCH  14  15
ENDBRANCH  13  14
ENDBRANCH   8   9
ENDBRANCH   1   8
BRANCH   2  21
ATOM     21  C   UNL     1       0.233   0.190  -1.188  0.00  0.00    +0.105 C 
BRANCH  21  22
ATOM     22  C   UNL     1       0.992  -0.068  -2.463  0.00  0.00    -0.036 A 
ATOM     23  C   UNL     1       0.458  -0.898  -3.430  0.00  0.00    +0.004 A 
ATOM     24  C   UNL     1       1.155  -1.135  -4.601  0.00  0.00    +0.000 A 
ATOM     25  C   UNL     1       2.386  -0.539  -4.804  0.00  0.00    +0.000 A 
ATOM     26  C   UNL     1       2.920   0.292  -3.838  0.00  0.00    +0.000 A 
ATOM     27  C   UNL     1       2.221   0.532  -2.669  0.00  0.00    +0.004 A 
ENDBRANCH  21  22
BRANCH  21  28
ATOM     28  C   UNL     1       0.011  -1.132  -0.450  0.00  0.00    +0.014 C 
ATOM     29  C   UNL     1       1.359  -1.688   0.015  0.00  0.00    +0.005 C 
ENDBRANCH  21  28
ENDBRANCH   2  21
TORSDOF 9
