REMARK  Name = ZINC06887768
REMARK  7 active torsions:
REMARK  status: ('A' for Active; 'I' for Inactive)
REMARK    1  A    between atoms: C_1  and  C_2
REMARK    2  A    between atoms: C_6  and  C_23
REMARK    3  A    between atoms: C_7  and  N_8
REMARK    4  A    between atoms: N_8  and  S_9
REMARK    5  A    between atoms: S_9  and  C_12
REMARK    6  A    between atoms: C_15  and  C_17
REMARK    7  A    between atoms: C_19  and  C_22
REMARK                            x       y       z     vdW  Elec       q    Type
REMARK                         _______ _______ _______ _____ _____    ______ ____
ROOT
ATOM      1  S   UNL     1      -1.579   6.027  -0.079  0.00  0.00    +0.079 S 
ATOM      2  O   UNL     1      -1.295   7.404  -0.290  0.00  0.00    -0.149 OA
ATOM      3  O   UNL     1      -2.488   5.303  -0.896  0.00  0.00    -0.149 OA
ENDROOT
BRANCH   1   4
ATOM      4  C   UNL     1      -2.163   5.882   1.577  0.00  0.00    +0.146 A 
ATOM      5  C   UNL     1      -1.863   6.650   2.657  0.00  0.00    +0.037 A 
ATOM      6  C   UNL     1      -2.443   6.360   3.870  0.00  0.00    +0.021 A 
ATOM      7  C   UNL     1      -3.307   5.283   3.946  0.00  0.00    +0.059 A 
ATOM      8  S   UNL     1      -3.295   4.685   2.264  0.00  0.00    -0.065 S 
BRANCH   7   9
ATOM      9  C   UNL     1      -4.043   4.765   5.109  0.00  0.00    +0.174 A 
ATOM     10  C   UNL     1      -4.893   3.688   5.135  0.00  0.00    +0.076 A 
ATOM     11  C   UNL     1      -5.322   3.628   6.474  0.00  0.00    +0.081 A 
ATOM     12  N   UNL     1      -4.732   4.609   7.099  0.00  0.00    -0.083 NA
ATOM     13  O   UNL     1      -4.016   5.248   6.365  0.00  0.00    -0.354 OA
ATOM     14  C   UNL     1      -6.276   2.626   7.070  0.00  0.00    +0.069 C 
ENDBRANCH   7   9
ENDBRANCH   1   4
BRANCH   1  15
ATOM     15  N   UNL     1      -0.131   5.228  -0.159  0.00  0.00    -0.215 N 
ATOM     16  H   UNL     1       0.687   5.722  -0.325  0.00  0.00    +0.174 HD
BRANCH  15  23
ATOM     17  C   UNL     1      -1.259   3.587  -2.191  0.00  0.00    +0.046 C 
ATOM     18  C   UNL     1      -0.627   3.004  -0.954  0.00  0.00    -0.028 A 
ATOM     19  C   UNL     1      -0.583   1.635  -0.780  0.00  0.00    +0.005 A 
ATOM     20  C   UNL     1      -0.002   1.098   0.355  0.00  0.00    +0.001 A 
ATOM     21  C   UNL     1       0.530   1.931   1.322  0.00  0.00    +0.005 A 
ATOM     22  C   UNL     1       0.495   3.301   1.152  0.00  0.00    -0.028 A 
ATOM     23  C   UNL     1      -0.087   3.843   0.013  0.00  0.00    +0.054 A 
ATOM     24  C   UNL     1       1.081   4.207   2.204  0.00  0.00    +0.046 C 
ENDBRANCH  15  23
ENDBRANCH   1  15
TORSDOF 4
