REMARK  Name = ZINC33170689
REMARK  13 active torsions:
REMARK  status: ('A' for Active; 'I' for Inactive)
REMARK    1  A    between atoms: C_1  and  C_2
REMARK    2  A    between atoms: C_5  and  O_32
REMARK    3  A    between atoms: C_6  and  N_8
REMARK    4  A    between atoms: N_8  and  S_9
REMARK    5  A    between atoms: S_9  and  C_12
REMARK    6  A    between atoms: C_14  and  C_20
REMARK    7  A    between atoms: C_17  and  O_18
REMARK    8  A    between atoms: O_18  and  C_19
REMARK    9  A    between atoms: C_21  and  C_22
REMARK   10  A    between atoms: C_23  and  N_28
REMARK   11  A    between atoms: C_24  and  C_27
REMARK   12  A    between atoms: C_29  and  C_31
REMARK   13  A    between atoms: O_32  and  C_33
REMARK                            x       y       z     vdW  Elec       q    Type
REMARK                         _______ _______ _______ _____ _____    ______ ____
ROOT
ATOM      1  C   UNL     1      -0.129  -0.030  -0.935  0.00  0.00    +0.150 A 
ATOM      2  C   UNL     1       0.284   1.185  -1.437  0.00  0.00    +0.040 A 
ATOM      3  C   UNL     1      -0.074   2.368  -0.782  0.00  0.00    -0.023 A 
ATOM      4  C   UNL     1      -0.851   2.311   0.380  0.00  0.00    +0.011 A 
ATOM      5  C   UNL     1      -1.263   1.092   0.871  0.00  0.00    +0.048 A 
ATOM      6  C   UNL     1      -0.900  -0.081   0.219  0.00  0.00    +0.147 A 
ENDROOT
BRANCH   1   7
ATOM      7  S   UNL     1       0.321  -1.521  -1.758  0.00  0.00    +0.076 S 
ATOM      8  O   UNL     1      -0.873  -2.275  -1.914  0.00  0.00    -0.150 OA
ATOM      9  O   UNL     1       1.135  -1.146  -2.862  0.00  0.00    -0.150 OA
BRANCH   7  10
ATOM     10  N   UNL     1       1.291  -2.377  -0.725  0.00  0.00    -0.213 N 
ATOM     11  H   UNL     1       0.933  -3.322  -0.290  0.00  0.00    +0.174 HD
BRANCH  10  17
ATOM     12  C   UNL     1       4.276   1.414   0.213  0.00  0.00    +0.044 C 
ATOM     13  C   UNL     1       4.043  -0.066   0.057  0.00  0.00    -0.048 A 
ATOM     14  C   UNL     1       5.091  -0.951   0.230  0.00  0.00    +0.007 A 
ATOM     15  C   UNL     1       4.884  -2.311   0.087  0.00  0.00    +0.048 A 
ATOM     16  C   UNL     1       3.623  -2.790  -0.230  0.00  0.00    +0.142 A 
ATOM     17  C   UNL     1       2.567  -1.899  -0.404  0.00  0.00    +0.090 A 
ATOM     18  C   UNL     1       2.784  -0.536  -0.265  0.00  0.00    +0.031 A 
BRANCH  16  19
ATOM     19  O   UNL     1       3.418  -4.127  -0.372  0.00  0.00    -0.493 OA
ATOM     20  C   UNL     1       4.548  -4.981  -0.179  0.00  0.00    +0.277 C 
ENDBRANCH  16  19
ENDBRANCH  10  17
ENDBRANCH   7  10
ENDBRANCH   1   7
BRANCH   6  21
ATOM     21  O   UNL     1      -1.306  -1.281   0.710  0.00  0.00    -0.493 OA
ATOM     22  C   UNL     1      -2.002  -1.270   1.958  0.00  0.00    +0.277 C 
ENDBRANCH   6  21
BRANCH   3  23
ATOM     23  C   UNL     1       0.365   3.668  -1.314  0.00  0.00    +0.012 C 
ATOM     24  C   UNL     1      -0.506   4.695  -1.389  0.00  0.00    +0.051 C 
BRANCH  24  25
ATOM     25  C   UNL     1      -1.931   4.464  -1.151  0.00  0.00    +0.182 A 
ATOM     26  C   UNL     1      -2.935   5.422  -1.076  0.00  0.00    +0.103 A 
ATOM     27  C   UNL     1      -4.102   4.661  -0.833  0.00  0.00    +0.102 A 
ATOM     28  N   UNL     1      -3.731   3.413  -0.787  0.00  0.00    -0.081 NA
ATOM     29  O   UNL     1      -2.544   3.277  -0.964  0.00  0.00    -0.353 OA
ATOM     30  C   UNL     1      -5.502   5.191  -0.663  0.00  0.00    +0.071 C 
BRANCH  26  31
ATOM     31  N   UNL     1      -2.818   6.812  -1.210  0.00  0.00    -0.281 N 
ATOM     32  C   UNL     1      -3.733   7.500  -1.922  0.00  0.00    +0.214 C 
ATOM     33  O   UNL     1      -4.690   6.924  -2.397  0.00  0.00    -0.276 OA
ATOM     34  C   UNL     1      -3.568   8.983  -2.129  0.00  0.00    +0.109 C 
ATOM     35  H   UNL     1      -1.981   7.343  -0.733  0.00  0.00    +0.155 HD
ENDBRANCH  26  31
ENDBRANCH  24  25
ENDBRANCH   3  23
TORSDOF 8
