REMARK  Name = ZINC50657544
REMARK  10 active torsions:
REMARK  status: ('A' for Active; 'I' for Inactive)
REMARK    1  A    between atoms: C_1  and  C_2
REMARK    2  A    between atoms: C_2  and  C_3
REMARK    3  A    between atoms: C_3  and  C_4
REMARK    4  A    between atoms: C_3  and  N_6
REMARK    5  A    between atoms: C_4  and  C_5
REMARK    6  A    between atoms: N_6  and  C_7
REMARK    7  A    between atoms: N_6  and  S_8
REMARK    8  A    between atoms: S_8  and  C_11
REMARK    9  A    between atoms: C_12  and  N_20
REMARK   10  A    between atoms: N_20  and  C_21
REMARK                            x       y       z     vdW  Elec       q    Type
REMARK                         _______ _______ _______ _____ _____    ______ ____
ROOT
ATOM      1  C   UNL     1       1.410  -0.190  -4.769  0.00  0.00    +0.220 A 
ATOM      2  C   UNL     1       2.691  -0.636  -4.724  0.00  0.00    +0.165 A 
ATOM      3  N   UNL     1       2.909  -1.409  -5.794  0.00  0.00    -0.211 NA
ATOM      4  C   UNL     1       1.801  -1.470  -6.521  0.00  0.00    +0.141 A 
ATOM      5  N   UNL     1       0.839  -0.719  -5.899  0.00  0.00    -0.282 N 
ATOM      6  C   UNL     1      -0.411  -0.613  -6.435  0.00  0.00    +0.094 A 
ATOM      7  C   UNL     1      -0.722  -1.249  -7.585  0.00  0.00    +0.018 A 
ATOM      8  C   UNL     1       0.241  -2.029  -8.245  0.00  0.00    +0.005 A 
ATOM      9  C   UNL     1       1.494  -2.136  -7.724  0.00  0.00    +0.047 A 
ENDROOT
BRANCH   1  10
ATOM     10  S   UNL     1       0.625   0.862  -3.593  0.00  0.00    +0.080 S 
ATOM     11  O   UNL     1      -0.449   1.498  -4.271  0.00  0.00    -0.151 OA
ATOM     12  O   UNL     1       1.659   1.592  -2.948  0.00  0.00    -0.151 OA
BRANCH  10  13
ATOM     13  N   UNL     1      -0.055  -0.114  -2.441  0.00  0.00    -0.175 NA
ATOM     14  C   UNL     1      -1.430  -0.593  -2.605  0.00  0.00    +0.132 C 
BRANCH  13  15
ATOM     15  C   UNL     1       0.718  -0.497  -1.257  0.00  0.00    +0.079 C 
BRANCH  15  17
ATOM     16  C   UNL     1      -0.019   1.526   0.010  0.00  0.00    +0.005 C 
ATOM     17  C   UNL     1       0.002  -0.004   0.002  0.00  0.00    +0.017 C 
ENDBRANCH  15  17
BRANCH  15  18
ATOM     18  C   UNL     1       0.849  -2.021  -1.205  0.00  0.00    +0.017 C 
ATOM     19  C   UNL     1       1.673  -2.503  -2.400  0.00  0.00    +0.005 C 
ENDBRANCH  15  18
ENDBRANCH  13  15
ENDBRANCH  10  13
ENDBRANCH   1  10
BRANCH   2  20
ATOM     20  N   UNL     1       3.628  -0.336  -3.727  0.00  0.00    -0.329 N 
ATOM     21  C   UNL     1       4.983  -0.887  -3.804  0.00  0.00    +0.127 C 
ATOM     22  H   UNL     1       3.379   0.237  -2.985  0.00  0.00    +0.147 HD
ENDBRANCH   2  20
TORSDOF 6
