REMARK  Name = ZINC36586587
REMARK  14 active torsions:
REMARK  status: ('A' for Active; 'I' for Inactive)
REMARK    1  A    between atoms: C_1  and  C_2
REMARK    2  A    between atoms: C_5  and  S_8
REMARK    3  A    between atoms: S_8  and  C_11
REMARK    4  A    between atoms: C_11  and  N_12
REMARK    5  A    between atoms: C_13  and  C_15
REMARK    6  A    between atoms: C_15  and  C_17
REMARK    7  A    between atoms: C_15  and  N_23
REMARK    8  A    between atoms: N_23  and  C_34
REMARK    9  A    between atoms: C_24  and  C_26
REMARK   10  A    between atoms: C_27  and  O_33
REMARK   11  A    between atoms: C_31  and  O_32
REMARK   12  A    between atoms: C_34  and  C_35
REMARK   13  A    between atoms: C_34  and  C_36
REMARK   14  A    between atoms: C_34  and  C_37
REMARK                            x       y       z     vdW  Elec       q    Type
REMARK                         _______ _______ _______ _____ _____    ______ ____
ROOT
ATOM      1  C   UNL     1       4.518  -4.596   2.814  0.00  0.00    +0.166 C 
ENDROOT
BRANCH   1   2
ATOM      2  C   UNL     1       3.876  -3.297   3.304  0.00  0.00    +0.019 C 
ATOM      3  C   UNL     1       4.105  -2.193   2.270  0.00  0.00    +0.006 C 
ATOM      4  C   UNL     1       3.463  -0.893   2.760  0.00  0.00    +0.000 C 
ATOM      5  C   UNL     1       4.095  -0.483   4.092  0.00  0.00    +0.000 C 
ATOM      6  C   UNL     1       3.865  -1.587   5.126  0.00  0.00    +0.000 C 
ATOM      7  C   UNL     1       4.507  -2.887   4.636  0.00  0.00    +0.006 C 
ENDBRANCH   1   2
BRANCH   1   9
ATOM      8  N   UNL     1       4.329  -4.393   0.356  0.00  0.00    -0.295 N 
ATOM      9  C   UNL     1       3.912  -4.988   1.491  0.00  0.00    +0.235 C 
ATOM     10  O   UNL     1       3.049  -5.839   1.448  0.00  0.00    -0.274 OA
ATOM     11  H   UNL     1       4.965  -3.662   0.398  0.00  0.00    +0.150 HD
BRANCH   8  12
ATOM     12  C   UNL     1       3.823  -4.851  -0.940  0.00  0.00    +0.278 C 
BRANCH  12  13
ATOM     13  S   UNL     1       2.387  -3.850  -1.417  0.00  0.00    +0.013 S 
ATOM     14  O   UNL     1       1.460  -3.781  -0.342  0.00  0.00    -0.168 OA
ATOM     15  O   UNL     1       1.956  -4.204  -2.724  0.00  0.00    -0.168 OA
BRANCH  13  20
ATOM     16  C   UNL     1       4.524   1.766  -1.968  0.00  0.00    +0.044 C 
ATOM     17  C   UNL     1       3.990   0.363  -1.831  0.00  0.00    -0.050 A 
ATOM     18  C   UNL     1       4.151  -0.542  -2.863  0.00  0.00    +0.005 A 
ATOM     19  C   UNL     1       3.661  -1.829  -2.736  0.00  0.00    +0.027 A 
ATOM     20  C   UNL     1       3.012  -2.211  -1.577  0.00  0.00    +0.090 A 
ATOM     21  C   UNL     1       2.853  -1.306  -0.544  0.00  0.00    +0.027 A 
ATOM     22  C   UNL     1       3.345  -0.020  -0.669  0.00  0.00    +0.005 A 
ENDBRANCH  13  20
ENDBRANCH  12  13
ENDBRANCH   8  12
ENDBRANCH   1   9
BRANCH   1  23
ATOM     23  N   UNL     1       4.279  -5.659   3.795  0.00  0.00    -0.280 N 
ATOM     24  C   UNL     1       3.027  -5.905   4.230  0.00  0.00    +0.255 C 
ATOM     25  O   UNL     1       2.080  -5.358   3.698  0.00  0.00    -0.270 OA
BRANCH  24  26
ATOM     26  C   UNL     1       2.807  -6.836   5.349  0.00  0.00    +0.119 A 
ATOM     27  C   UNL     1       2.845  -6.371   6.672  0.00  0.00    +0.133 A 
ATOM     28  C   UNL     1       2.636  -7.256   7.718  0.00  0.00    +0.046 A 
ATOM     29  C   UNL     1       2.390  -8.592   7.461  0.00  0.00    +0.007 A 
ATOM     30  C   UNL     1       2.351  -9.060   6.161  0.00  0.00    +0.046 A 
ATOM     31  C   UNL     1       2.552  -8.192   5.100  0.00  0.00    +0.133 A 
BRANCH  31  32
ATOM     32  O   UNL     1       2.507  -8.654   3.825  0.00  0.00    -0.506 OA
ATOM     33  H   UNL     1       3.361  -8.956   3.486  0.00  0.00    +0.292 HD
ENDBRANCH  31  32
BRANCH  27  34
ATOM     34  O   UNL     1       3.086  -5.061   6.926  0.00  0.00    -0.506 OA
ATOM     35  H   UNL     1       2.289  -4.515   6.967  0.00  0.00    +0.292 HD
ENDBRANCH  27  34
ENDBRANCH  24  26
BRANCH  23  36
ATOM     36  C   UNL     1       5.400  -6.453   4.301  0.00  0.00    +0.030 C 
ATOM     37  C   UNL     1       6.707  -5.935   3.697  0.00  0.00    +0.031 C 
ATOM     38  C   UNL     1       5.461  -6.335   5.826  0.00  0.00    +0.031 C 
ATOM     39  C   UNL     1       5.204  -7.920   3.911  0.00  0.00    +0.031 C 
ENDBRANCH  23  36
ENDBRANCH   1  23
TORSDOF 10
