REMARK  Name = ZINC40122957
REMARK  11 active torsions:
REMARK  status: ('A' for Active; 'I' for Inactive)
REMARK    1  A    between atoms: C_1  and  C_2
REMARK    2  A    between atoms: C_2  and  C_3
REMARK    3  A    between atoms: C_3  and  N_4
REMARK    4  A    between atoms: N_4  and  C_5
REMARK    5  A    between atoms: N_4  and  C_21
REMARK    6  A    between atoms: C_5  and  C_6
REMARK    7  A    between atoms: N_8  and  C_9
REMARK    8  A    between atoms: C_14  and  C_15
REMARK    9  A    between atoms: N_17  and  C_18
REMARK   10  A    between atoms: C_21  and  C_23
REMARK   11  A    between atoms: C_21  and  C_24
REMARK                            x       y       z     vdW  Elec       q    Type
REMARK                         _______ _______ _______ _____ _____    ______ ____
ROOT
ATOM      1  C   UNL     1       1.290  -1.558  -1.249  0.00  0.00    +0.201 C 
ATOM      2  O   UNL     1       0.430  -0.708  -1.151  0.00  0.00    -0.278 OA
ATOM      3  N   UNL     1       1.749  -1.915  -2.465  0.00  0.00    -0.286 N 
ATOM      4  H   UNL     1       2.392  -2.636  -2.548  0.00  0.00    +0.155 HD
ENDROOT
BRANCH   3   5
ATOM      5  C   UNL     1       1.301  -1.247  -3.602  0.00  0.00    +0.045 A 
ATOM      6  C   UNL     1      -0.042  -0.919  -3.736  0.00  0.00    +0.024 A 
ATOM      7  C   UNL     1      -0.483  -0.258  -4.863  0.00  0.00    +0.002 A 
ATOM      8  C   UNL     1       0.406   0.085  -5.869  0.00  0.00    +0.001 A 
ATOM      9  C   UNL     1       1.742  -0.232  -5.754  0.00  0.00    +0.015 A 
ATOM     10  C   UNL     1       2.205  -0.896  -4.615  0.00  0.00    +0.058 A 
BRANCH  10  11
ATOM     11  C   UNL     1       3.636  -1.232  -4.483  0.00  0.00    +0.246 C 
ATOM     12  O   UNL     1       4.023  -1.876  -3.527  0.00  0.00    -0.270 OA
ATOM     13  N   UNL     1       4.513  -0.826  -5.421  0.00  0.00    -0.308 N 
ATOM     14  H   UNL     1       4.205  -0.313  -6.184  0.00  0.00    +0.149 HD
BRANCH  13  15
ATOM     15  C   UNL     1       5.934  -1.160  -5.290  0.00  0.00    +0.073 C 
ATOM     16  C   UNL     1       6.950  -0.056  -5.591  0.00  0.00    +0.024 C 
ATOM     17  C   UNL     1       6.768  -1.217  -6.571  0.00  0.00    +0.024 C 
ENDBRANCH  13  15
ENDBRANCH  10  11
ENDBRANCH   3   5
BRANCH   1  18
ATOM     18  C   UNL     1       1.844  -2.215  -0.011  0.00  0.00    +0.020 C 
BRANCH  18  19
ATOM     19  N   UNL     1       1.297  -1.554   1.181  0.00  0.00    +0.390 N 
ATOM     20  H   UNL     1       0.289  -1.550   1.131  0.00  0.00    -0.080 HD
BRANCH  19  21
ATOM     21  C   UNL     1       1.724  -2.282   2.384  0.00  0.00    -0.039 C 
ATOM     22  C   UNL     1       1.155  -1.593   3.626  0.00  0.00    -0.008 C 
BRANCH  21  23
ATOM     23  C   UNL     1       1.218  -3.700   2.319  0.00  0.00    -0.047 A 
ATOM     24  C   UNL     1       0.166  -4.021   1.482  0.00  0.00    +0.003 A 
ATOM     25  C   UNL     1      -0.298  -5.321   1.422  0.00  0.00    +0.000 A 
ATOM     26  C   UNL     1       0.290  -6.302   2.199  0.00  0.00    +0.001 A 
ATOM     27  C   UNL     1       1.342  -5.982   3.036  0.00  0.00    +0.015 A 
ATOM     28  C   UNL     1       1.810  -4.681   3.092  0.00  0.00    +0.019 A 
ATOM     29 BR   UNL     1       3.255  -4.245   4.232  0.00  0.00    -0.050 Br
ENDBRANCH  21  23
ENDBRANCH  19  21
BRANCH  19  30
ATOM     30  C   UNL     1       1.790  -0.172   1.244  0.00  0.00    -0.078 C 
BRANCH  30  32
ATOM     31  C   UNL     1       3.813   1.259   1.570  0.00  0.00    +0.002 C 
ATOM     32  C   UNL     1       3.305  -0.180   1.460  0.00  0.00    -0.022 C 
ENDBRANCH  30  32
ENDBRANCH  19  30
ENDBRANCH  18  19
ENDBRANCH   1  18
TORSDOF 9
