REMARK  Name = ZINC33130706
REMARK  4 active torsions:
REMARK  status: ('A' for Active; 'I' for Inactive)
REMARK    1  A    between atoms: C_7  and  N_17
REMARK    2  A    between atoms: C_8  and  C_11
REMARK    3  A    between atoms: N_20  and  C_21
REMARK    4  A    between atoms: C_26  and  C_27
REMARK                            x       y       z     vdW  Elec       q    Type
REMARK                         _______ _______ _______ _____ _____    ______ ____
ROOT
ATOM      1  C   UNL     1      -4.989   4.582  -0.889  0.00  0.00    +0.001 A 
ATOM      2  C   UNL     1      -4.525   5.295   0.209  0.00  0.00    +0.002 A 
ATOM      3  C   UNL     1      -3.433   4.854   0.924  0.00  0.00    +0.026 A 
ATOM      4  C   UNL     1      -2.786   3.681   0.545  0.00  0.00    +0.049 A 
ATOM      5  C   UNL     1      -3.260   2.962  -0.568  0.00  0.00    +0.022 A 
ATOM      6  C   UNL     1      -4.369   3.429  -1.279  0.00  0.00    +0.012 A 
ATOM      7  C   UNL     1      -2.381   1.799  -0.713  0.00  0.00    +0.068 A 
ATOM      8  C   UNL     1      -1.462   1.871   0.288  0.00  0.00    +0.071 A 
ATOM      9  N   UNL     1      -1.698   3.002   1.046  0.00  0.00    -0.353 N 
ATOM     10  H   UNL     1      -1.165   3.390   1.927  0.00  0.00    +0.166 HD
ENDROOT
BRANCH   8  11
ATOM     11  C   UNL     1      -0.378   0.897   0.524  0.00  0.00    +0.018 A 
ATOM     12  C   UNL     1       0.926   1.333   0.792  0.00  0.00    +0.013 A 
ATOM     13  C   UNL     1       1.906   0.379   1.000  0.00  0.00    +0.020 A 
ATOM     14  C   UNL     1       1.571  -0.962   0.937  0.00  0.00    +0.111 A 
ATOM     15  N   UNL     1       0.334  -1.344   0.682  0.00  0.00    -0.263 NA
ATOM     16  C   UNL     1      -0.634  -0.475   0.477  0.00  0.00    +0.120 A 
ENDBRANCH   8  11
BRANCH   7  17
ATOM     17  N   UNL     1      -2.470   0.801  -1.695  0.00  0.00    -0.267 N 
ATOM     18  C   UNL     1      -3.677   0.369  -2.109  0.00  0.00    +0.308 C 
ATOM     19  O   UNL     1      -4.688   0.912  -1.707  0.00  0.00    -0.252 OA
ATOM     20  N   UNL     1      -3.765  -0.664  -2.970  0.00  0.00    -0.269 N 
ATOM     21  H   UNL     1      -1.554   0.372  -2.127  0.00  0.00    +0.156 HD
ATOM     22  H   UNL     1      -2.857  -1.209  -3.269  0.00  0.00    +0.156 HD
BRANCH  20  23
ATOM     23  C   UNL     1      -5.010  -1.045  -3.481  0.00  0.00    +0.046 A 
ATOM     24  C   UNL     1      -6.151  -0.923  -2.699  0.00  0.00    +0.024 A 
ATOM     25  C   UNL     1      -7.379  -1.295  -3.209  0.00  0.00    +0.002 A 
ATOM     26  C   UNL     1      -7.472  -1.799  -4.493  0.00  0.00    +0.001 A 
ATOM     27  C   UNL     1      -6.338  -1.927  -5.273  0.00  0.00    +0.014 A 
ATOM     28  C   UNL     1      -5.107  -1.552  -4.771  0.00  0.00    +0.076 A 
BRANCH  28  29
ATOM     29  C   UNL     1      -3.871  -1.692  -5.621  0.00  0.00    +0.419 C 
ATOM     30  F   UNL     1      -4.220  -2.220  -6.869  0.00  0.00    -0.166 F 
ATOM     31  F   UNL     1      -3.279  -0.436  -5.795  0.00  0.00    -0.166 F 
ATOM     32  F   UNL     1      -2.965  -2.550  -4.989  0.00  0.00    -0.166 F 
ENDBRANCH  28  29
ENDBRANCH  20  23
ENDBRANCH   7  17
TORSDOF 4
