REMARK  Name = ZINC21251220
REMARK  7 active torsions:
REMARK  status: ('A' for Active; 'I' for Inactive)
REMARK    1  A    between atoms: C_1  and  C_2
REMARK    2  A    between atoms: C_2  and  O_3
REMARK    3  A    between atoms: O_3  and  C_4
REMARK    4  A    between atoms: C_5  and  C_12
REMARK    5  A    between atoms: C_9  and  O_10
REMARK    6  A    between atoms: O_10  and  C_11
REMARK    7  A    between atoms: C_23  and  C_26
REMARK                            x       y       z     vdW  Elec       q    Type
REMARK                         _______ _______ _______ _____ _____    ______ ____
ROOT
ATOM      1  C   UNL     1       6.579  -0.253  -0.024  0.00  0.00    +0.066 C 
ATOM      2  C   UNL     1       7.417   0.234   1.159  0.00  0.00    +0.109 C 
ATOM      3  C   UNL     1       6.583   0.173   2.413  0.00  0.00    +0.218 C 
ATOM      4  O   UNL     1       7.105  -0.090   3.475  0.00  0.00    -0.275 OA
ATOM      5  N   UNL     1       5.261   0.410   2.356  0.00  0.00    -0.289 N 
ATOM      6  C   UNL     1       4.649   0.736   1.172  0.00  0.00    +0.018 C 
ATOM      7  C   UNL     1       5.236   0.439  -0.006  0.00  0.00    +0.020 C 
ATOM      8  C   UNL     1       4.625   0.758  -1.230  0.00  0.00    +0.162 C 
ATOM      9  O   UNL     1       5.191   0.486  -2.270  0.00  0.00    -0.292 OA
ATOM     10  C   UNL     1       3.280   1.432  -1.272  0.00  0.00    +0.088 C 
ATOM     11  C   UNL     1       2.490   1.046  -0.017  0.00  0.00    +0.032 C 
ATOM     12  C   UNL     1       3.312   1.434   1.215  0.00  0.00    +0.059 C 
ATOM     13  H   UNL     1       4.650   0.344   3.268  0.00  0.00    +0.155 HD
ENDROOT
BRANCH  11  14
ATOM     14  C   UNL     1       1.175   1.783   0.000  0.00  0.00    -0.042 A 
ATOM     15  C   UNL     1      -0.013   1.076   0.008  0.00  0.00    +0.005 A 
ATOM     16  C   UNL     1      -1.219   1.750   0.017  0.00  0.00    +0.022 A 
ATOM     17  C   UNL     1      -1.238   3.133   0.031  0.00  0.00    +0.059 A 
ATOM     18  C   UNL     1      -0.049   3.841   0.023  0.00  0.00    +0.060 A 
ATOM     19  C   UNL     1       1.158   3.165   0.008  0.00  0.00    +0.025 A 
ATOM     20 CL   UNL     1      -0.071   5.577   0.033  0.00  0.00    -0.082 Cl
ATOM     21 CL   UNL     1      -2.753   3.981   0.050  0.00  0.00    -0.082 Cl
ENDBRANCH  11  14
BRANCH   1  23
ATOM     22  C   UNL     1       6.833  -2.575  -0.930  0.00  0.00    +0.166 A 
ATOM     23  C   UNL     1       6.380  -1.743   0.080  0.00  0.00    +0.006 A 
ATOM     24  C   UNL     1       5.748  -2.280   1.187  0.00  0.00    +0.008 A 
ATOM     25  C   UNL     1       5.559  -3.646   1.283  0.00  0.00    +0.004 A 
ATOM     26  C   UNL     1       6.010  -4.482   0.279  0.00  0.00    +0.049 A 
ATOM     27  C   UNL     1       6.648  -3.950  -0.831  0.00  0.00    +0.162 A 
BRANCH  27  28
ATOM     28  O   UNL     1       7.091  -4.771  -1.820  0.00  0.00    -0.491 OA
ATOM     29  C   UNL     1       6.866  -6.172  -1.650  0.00  0.00    +0.277 C 
ENDBRANCH  27  28
BRANCH  22  30
ATOM     30  O   UNL     1       7.459  -2.049  -2.017  0.00  0.00    -0.488 OA
BRANCH  30  32
ATOM     31  C   UNL     1       9.400  -1.302  -3.248  0.00  0.00    +0.048 C 
ATOM     32  C   UNL     1       8.879  -1.906  -1.943  0.00  0.00    +0.226 C 
ENDBRANCH  30  32
ENDBRANCH  22  30
ENDBRANCH   1  23
TORSDOF 5
