REMARK  Name = ZINC22511462
REMARK  12 active torsions:
REMARK  status: ('A' for Active; 'I' for Inactive)
REMARK    1  A    between atoms: C_1  and  C_2
REMARK    2  A    between atoms: C_2  and  C_4
REMARK    3  A    between atoms: C_2  and  S_20
REMARK    4  A    between atoms: N_6  and  C_7
REMARK    5  A    between atoms: C_10  and  S_13
REMARK    6  A    between atoms: S_13  and  N_16
REMARK    7  A    between atoms: N_16  and  C_17
REMARK    8  A    between atoms: C_17  and  C_18
REMARK    9  A    between atoms: C_17  and  C_19
REMARK   10  A    between atoms: S_20  and  C_21
REMARK   11  A    between atoms: C_24  and  C_32
REMARK   12  A    between atoms: N_25  and  C_26
REMARK                            x       y       z     vdW  Elec       q    Type
REMARK                         _______ _______ _______ _____ _____    ______ ____
ROOT
ATOM      1  C   UNL     1      -1.412  -0.524   0.013  0.00  0.00    +0.230 C 
ATOM      2  O   UNL     1      -1.931  -0.892  -1.020  0.00  0.00    -0.274 OA
ATOM      3  N   UNL     1      -2.103  -0.575   1.169  0.00  0.00    -0.285 N 
ATOM      4  H   UNL     1      -1.668  -0.345   2.004  0.00  0.00    +0.155 HD
ENDROOT
BRANCH   3   5
ATOM      5  C   UNL     1      -3.448  -0.960   1.163  0.00  0.00    +0.034 A 
ATOM      6  C   UNL     1      -4.343  -0.374   2.050  0.00  0.00    +0.025 A 
ATOM      7  C   UNL     1      -5.670  -0.757   2.042  0.00  0.00    +0.030 A 
ATOM      8  C   UNL     1      -6.109  -1.721   1.153  0.00  0.00    +0.105 A 
ATOM      9  C   UNL     1      -5.220  -2.306   0.270  0.00  0.00    +0.030 A 
ATOM     10  C   UNL     1      -3.893  -1.924   0.268  0.00  0.00    +0.025 A 
BRANCH   8  11
ATOM     11  S   UNL     1      -7.803  -2.206   1.146  0.00  0.00    +0.059 S 
ATOM     12  O   UNL     1      -7.848  -3.514   0.594  0.00  0.00    -0.153 OA
ATOM     13  O   UNL     1      -8.316  -1.905   2.437  0.00  0.00    -0.153 OA
BRANCH  11  14
ATOM     14  N   UNL     1      -8.591  -1.214   0.080  0.00  0.00    -0.187 NA
ATOM     15  H   UNL     1      -9.270  -0.600   0.400  0.00  0.00    +0.148 HD
BRANCH  14  16
ATOM     16  C   UNL     1      -8.264  -1.265  -1.347  0.00  0.00    +0.070 C 
ATOM     17  C   UNL     1      -9.240  -2.203  -2.062  0.00  0.00    +0.025 C 
ATOM     18  C   UNL     1      -8.373   0.138  -1.946  0.00  0.00    +0.025 C 
ENDBRANCH  14  16
ENDBRANCH  11  14
ENDBRANCH   8  11
ENDBRANCH   3   5
BRANCH   1  20
ATOM     19  C   UNL     1      -0.008   1.520   0.019  0.00  0.00    +0.029 C 
ATOM     20  C   UNL     1       0.004  -0.010   0.003  0.00  0.00    +0.137 C 
BRANCH  20  21
ATOM     21  S   UNL     1       0.849  -0.593  -1.492  0.00  0.00    -0.073 S 
BRANCH  21  22
ATOM     22  C   UNL     1       2.510  -0.043  -1.286  0.00  0.00    +0.197 A 
ATOM     23  N   UNL     1       2.989   0.628  -0.263  0.00  0.00    -0.122 NA
ATOM     24  N   UNL     1       4.240   0.864  -0.442  0.00  0.00    -0.133 NA
ATOM     25  C   UNL     1       4.633   0.364  -1.579  0.00  0.00    +0.142 A 
ATOM     26  N   UNL     1       3.547  -0.238  -2.157  0.00  0.00    -0.274 N 
BRANCH  26  27
ATOM     27  C   UNL     1       3.505  -0.912  -3.386  0.00  0.00    +0.050 A 
ATOM     28  C   UNL     1       4.221  -2.089  -3.559  0.00  0.00    +0.026 A 
ATOM     29  C   UNL     1       4.177  -2.750  -4.771  0.00  0.00    +0.002 A 
ATOM     30  C   UNL     1       3.422  -2.241  -5.811  0.00  0.00    +0.000 A 
ATOM     31  C   UNL     1       2.708  -1.069  -5.642  0.00  0.00    +0.002 A 
ATOM     32  C   UNL     1       2.744  -0.406  -4.431  0.00  0.00    +0.026 A 
ENDBRANCH  26  27
BRANCH  25  33
ATOM     33  C   UNL     1       6.026   0.430  -2.150  0.00  0.00    +0.057 C 
ATOM     34  C   UNL     1       7.136   0.969  -1.245  0.00  0.00    +0.012 C 
ATOM     35  C   UNL     1       6.619   1.817  -2.409  0.00  0.00    +0.012 C 
ENDBRANCH  25  33
ENDBRANCH  21  22
ENDBRANCH  20  21
ENDBRANCH   1  20
TORSDOF 9
