REMARK  Name = ZINC07656825
REMARK  10 active torsions:
REMARK  status: ('A' for Active; 'I' for Inactive)
REMARK    1  A    between atoms: C_1  and  C_2
REMARK    2  A    between atoms: C_8  and  N_10
REMARK    3  A    between atoms: C_11  and  C_13
REMARK    4  A    between atoms: C_13  and  C_15
REMARK    5  A    between atoms: C_13  and  O_16
REMARK    6  A    between atoms: O_16  and  C_17
REMARK    7  A    between atoms: C_17  and  C_19
REMARK    8  A    between atoms: C_22  and  N_27
REMARK    9  A    between atoms: C_24  and  O_25
REMARK   10  A    between atoms: O_25  and  C_26
REMARK                            x       y       z     vdW  Elec       q    Type
REMARK                         _______ _______ _______ _____ _____    ______ ____
ROOT
ATOM      1  O   UNL     1      -2.963   5.700  -2.542  0.00  0.00    -0.449 OA
ENDROOT
BRANCH   1   2
ATOM      2  C   UNL     1      -1.764   5.229  -1.872  0.00  0.00    +0.259 C 
ATOM      3  C   UNL     1      -0.529   5.760  -2.602  0.00  0.00    +0.062 C 
BRANCH   2   5
ATOM      4  N   UNL     1      -0.773   3.058  -1.224  0.00  0.00    -0.309 N 
ATOM      5  C   UNL     1      -1.744   3.722  -1.880  0.00  0.00    +0.254 C 
ATOM      6  O   UNL     1      -2.602   3.107  -2.478  0.00  0.00    -0.272 OA
ATOM      7  H   UNL     1      -0.086   3.549  -0.746  0.00  0.00    +0.149 HD
BRANCH   4  14
ATOM      8  C   UNL     1      -0.729   1.579   1.267  0.00  0.00    +0.009 C 
ATOM      9  C   UNL     1      -0.013   1.086   0.008  0.00  0.00    +0.006 C 
ATOM     10  C   UNL     1       1.423   1.615  -0.003  0.00  0.00    +0.005 C 
ATOM     11  C   UNL     1       2.139   1.122  -1.262  0.00  0.00    +0.000 C 
ATOM     12  C   UNL     1       1.399   1.629  -2.501  0.00  0.00    +0.002 C 
ATOM     13  C   UNL     1      -0.037   1.099  -2.490  0.00  0.00    +0.022 C 
ATOM     14  C   UNL     1      -0.753   1.593  -1.232  0.00  0.00    +0.076 C 
ENDBRANCH   4  14
ENDBRANCH   2   5
ENDBRANCH   1   2
BRANCH   1  15
ATOM     15  C   UNL     1      -3.475   6.876  -2.126  0.00  0.00    +0.343 C 
ATOM     16  O   UNL     1      -2.934   7.490  -1.227  0.00  0.00    -0.245 OA
BRANCH  15  17
ATOM     17  C   UNL     1      -4.687   7.415  -2.760  0.00  0.00    +0.102 A 
ATOM     18  C   UNL     1      -5.309   6.713  -3.799  0.00  0.00    +0.040 A 
ATOM     19  C   UNL     1      -6.438   7.211  -4.382  0.00  0.00    +0.063 A 
ATOM     20  C   UNL     1      -6.973   8.427  -3.957  0.00  0.00    +0.047 A 
ATOM     21  C   UNL     1      -6.364   9.139  -2.931  0.00  0.00    +0.070 A 
ATOM     22  C   UNL     1      -5.223   8.639  -2.328  0.00  0.00    +0.136 A 
ATOM     23 CL   UNL     1      -7.208   6.331  -5.665  0.00  0.00    -0.082 Cl
BRANCH  20  24
ATOM     24  N   UNL     1      -8.120   8.929  -4.562  0.00  0.00    -0.357 N 
ATOM     25  H   UNL     1      -8.494   9.774  -4.268  0.00  0.00    +0.142 HD
ATOM     26  H   UNL     1      -8.547   8.434  -5.279  0.00  0.00    +0.142 HD
ENDBRANCH  20  24
BRANCH  22  27
ATOM     27  O   UNL     1      -4.624   9.330  -1.326  0.00  0.00    -0.494 OA
ATOM     28  C   UNL     1      -5.225  10.568  -0.941  0.00  0.00    +0.277 C 
ENDBRANCH  22  27
ENDBRANCH  15  17
ENDBRANCH   1  15
TORSDOF 7
