REMARK  Name = ZINC63384361
REMARK  8 active torsions:
REMARK  status: ('A' for Active; 'I' for Inactive)
REMARK    1  A    between atoms: C_1  and  C_2
REMARK    2  A    between atoms: C_2  and  C_3
REMARK    3  A    between atoms: C_3  and  N_4
REMARK    4  A    between atoms: C_5  and  C_7
REMARK    5  A    between atoms: C_7  and  C_9
REMARK    6  A    between atoms: C_7  and  N_16
REMARK    7  A    between atoms: C_9  and  C_10
REMARK    8  A    between atoms: C_17  and  C_19
REMARK                            x       y       z     vdW  Elec       q    Type
REMARK                         _______ _______ _______ _____ _____    ______ ____
ROOT
ATOM      1  C   UNL     1      -5.601  -6.452   0.514  0.00  0.00    +0.167 C 
ATOM      2  C   UNL     1      -6.489  -5.531   1.373  0.00  0.00    +0.065 C 
ATOM      3  C   UNL     1      -6.991  -6.356   2.531  0.00  0.00    -0.034 C 
ATOM      4  C   UNL     1      -8.226  -6.540   2.988  0.00  0.00    -0.001 A 
ATOM      5  C   UNL     1      -9.512  -5.940   2.597  0.00  0.00    +0.010 A 
ATOM      6  C   UNL     1     -10.607  -6.374   3.276  0.00  0.00    +0.001 A 
ATOM      7  C   UNL     1     -10.552  -7.333   4.292  0.00  0.00    +0.002 A 
ATOM      8  C   UNL     1      -9.412  -7.932   4.721  0.00  0.00    +0.026 A 
ATOM      9  C   UNL     1      -8.193  -7.552   4.086  0.00  0.00    +0.043 A 
ATOM     10  N   UNL     1      -6.973  -7.944   4.305  0.00  0.00    -0.375 N 
ATOM     11  C   UNL     1      -6.082  -7.195   3.419  0.00  0.00    +0.131 C 
ATOM     12  C   UNL     1      -5.275  -8.114   2.504  0.00  0.00    +0.134 C 
ATOM     13  N   UNL     1      -5.629  -7.796   1.105  0.00  0.00    -0.276 N 
ATOM     14  C   UNL     1      -5.992  -8.935   0.485  0.00  0.00    +0.248 C 
ATOM     15  O   UNL     1      -6.222  -9.037  -0.704  0.00  0.00    -0.270 OA
ATOM     16  C   UNL     1      -6.068 -10.031   1.452  0.00  0.00    +0.042 A 
ATOM     17  C   UNL     1      -5.620  -9.550   2.724  0.00  0.00    -0.013 A 
ATOM     18  C   UNL     1      -5.572 -10.347   3.846  0.00  0.00    +0.006 A 
ATOM     19  C   UNL     1      -5.966 -11.674   3.697  0.00  0.00    +0.000 A 
ATOM     20  C   UNL     1      -6.386 -12.175   2.481  0.00  0.00    +0.001 A 
ATOM     21  C   UNL     1      -6.467 -11.361   1.295  0.00  0.00    +0.013 A 
ATOM     22  H   UNL     1      -6.700  -8.619   4.947  0.00  0.00    +0.160 HD
ENDROOT
BRANCH   1  24
ATOM     23  N   UNL     1      -3.925  -4.702   0.014  0.00  0.00    -0.302 N 
ATOM     24  C   UNL     1      -4.187  -5.930   0.503  0.00  0.00    +0.235 C 
ATOM     25  O   UNL     1      -3.284  -6.616   0.935  0.00  0.00    -0.274 OA
ATOM     26  H   UNL     1      -4.647  -4.154  -0.331  0.00  0.00    +0.150 HD
BRANCH  23  27
ATOM     27  C   UNL     1      -2.551  -4.195   0.004  0.00  0.00    +0.163 C 
BRANCH  27  29
ATOM     28  N   UNL     1      -1.413  -1.998   0.005  0.00  0.00    -0.314 N 
ATOM     29  C   UNL     1      -2.571  -2.688   0.012  0.00  0.00    +0.234 C 
ATOM     30  O   UNL     1      -3.630  -2.096   0.025  0.00  0.00    -0.274 OA
ATOM     31  H   UNL     1      -0.567  -2.472  -0.006  0.00  0.00    +0.149 HD
BRANCH  28  32
ATOM     32  C   UNL     1      -1.433  -0.534   0.013  0.00  0.00    +0.104 C 
BRANCH  32  34
ATOM     33  C   UNL     1      -0.019   1.526   0.010  0.00  0.00    +0.005 C 
ATOM     34  C   UNL     1       0.002  -0.004   0.002  0.00  0.00    +0.015 C 
ENDBRANCH  32  34
ENDBRANCH  28  32
ENDBRANCH  27  29
BRANCH  27  35
ATOM     35  C   UNL     1      -1.835  -4.688  -1.255  0.00  0.00    +0.067 C 
BRANCH  35  36
ATOM     36  C   UNL     1      -1.706  -6.189  -1.204  0.00  0.00    -0.045 A 
ATOM     37  C   UNL     1      -0.595  -6.768  -0.619  0.00  0.00    +0.004 A 
ATOM     38  C   UNL     1      -0.477  -8.144  -0.572  0.00  0.00    +0.000 A 
ATOM     39  C   UNL     1      -1.469  -8.942  -1.110  0.00  0.00    +0.000 A 
ATOM     40  C   UNL     1      -2.580  -8.363  -1.694  0.00  0.00    +0.000 A 
ATOM     41  C   UNL     1      -2.701  -6.987  -1.737  0.00  0.00    +0.004 A 
ENDBRANCH  35  36
ENDBRANCH  27  35
ENDBRANCH  23  27
ENDBRANCH   1  24
TORSDOF 7
