REMARK  Name = ZINC66239270
REMARK  13 active torsions:
REMARK  status: ('A' for Active; 'I' for Inactive)
REMARK    1  A    between atoms: C_1  and  C_2
REMARK    2  A    between atoms: C_4  and  C_21
REMARK    3  A    between atoms: C_7  and  O_8
REMARK    4  A    between atoms: O_8  and  C_9
REMARK    5  A    between atoms: C_9  and  C_10
REMARK    6  A    between atoms: C_10  and  C_12
REMARK    7  A    between atoms: C_10  and  O_20
REMARK    8  A    between atoms: C_12  and  S_13
REMARK    9  A    between atoms: S_13  and  C_14
REMARK   10  A    between atoms: C_17  and  C_19
REMARK   11  A    between atoms: C_21  and  C_22
REMARK   12  A    between atoms: C_21  and  C_23
REMARK   13  A    between atoms: C_21  and  C_24
REMARK                            x       y       z     vdW  Elec       q    Type
REMARK                         _______ _______ _______ _____ _____    ______ ____
ROOT
ATOM      1  O   UNL     1       0.025  -0.033   2.381  0.00  0.00    -0.489 OA
ENDROOT
BRANCH   1   8
ATOM      2  C   UNL     1      -0.018   1.503   0.010  0.00  0.00    +0.047 C 
ATOM      3  C   UNL     1       0.002  -0.004   0.002  0.00  0.00    -0.009 A 
ATOM      4  C   UNL     1       0.006  -0.689  -1.198  0.00  0.00    +0.011 A 
ATOM      5  C   UNL     1       0.024  -2.071  -1.206  0.00  0.00    -0.042 A 
ATOM      6  C   UNL     1       0.039  -2.772  -0.014  0.00  0.00    +0.008 A 
ATOM      7  C   UNL     1       0.036  -2.092   1.188  0.00  0.00    +0.046 A 
ATOM      8  C   UNL     1       0.023  -0.705   1.199  0.00  0.00    +0.124 A 
BRANCH   5   9
ATOM      9  C   UNL     1       0.027  -2.816  -2.517  0.00  0.00    -0.013 C 
ATOM     10  C   UNL     1       1.267  -2.424  -3.323  0.00  0.00    +0.015 C 
ATOM     11  C   UNL     1       0.048  -4.322  -2.247  0.00  0.00    +0.015 C 
ATOM     12  C   UNL     1      -1.231  -2.457  -3.310  0.00  0.00    +0.015 C 
ENDBRANCH   5   9
ENDBRANCH   1   8
BRANCH   1  13
ATOM     13  C   UNL     1       0.048  -0.820   3.574  0.00  0.00    +0.261 C 
BRANCH  13  14
ATOM     14  C   UNL     1       0.047   0.104   4.793  0.00  0.00    +0.162 C 
BRANCH  14  15
ATOM     15  O   UNL     1      -1.183   0.829   4.841  0.00  0.00    -0.388 OA
ATOM     16  H   UNL     1      -1.968   0.268   4.908  0.00  0.00    +0.210 HD
ENDBRANCH  14  15
BRANCH  14  17
ATOM     17  C   UNL     1       0.196  -0.732   6.066  0.00  0.00    +0.111 C 
BRANCH  17  18
ATOM     18  S   UNL     1       0.196   0.363   7.512  0.00  0.00    -0.094 S 
BRANCH  18  19
ATOM     19  C   UNL     1       0.372  -0.735   8.879  0.00  0.00    +0.159 A 
ATOM     20  N   UNL     1       0.490  -2.057   8.902  0.00  0.00    -0.135 NA
ATOM     21  N   UNL     1       0.609  -2.694   9.984  0.00  0.00    -0.146 NA
ATOM     22  C   UNL     1       0.626  -2.091  11.156  0.00  0.00    +0.100 A 
ATOM     23  S   UNL     1       0.454  -0.388  10.633  0.00  0.00    -0.044 S 
ATOM     24  C   UNL     1       0.758  -2.671  12.541  0.00  0.00    +0.075 C 
ENDBRANCH  18  19
ENDBRANCH  17  18
ENDBRANCH  14  17
ENDBRANCH  13  14
ENDBRANCH   1  13
TORSDOF 8
