REMARK  Name = ZINC43163390
REMARK  4 active torsions:
REMARK  status: ('A' for Active; 'I' for Inactive)
REMARK    1  A    between atoms: C_1  and  N_2
REMARK    2  A    between atoms: N_2  and  C_3
REMARK    3  A    between atoms: N_11  and  C_12
REMARK    4  A    between atoms: C_12  and  C_13
REMARK                            x       y       z     vdW  Elec       q    Type
REMARK                         _______ _______ _______ _____ _____    ______ ____
ROOT
ATOM      1  C   UNL     1      -0.018   1.461   0.010  0.00  0.00    +0.134 C 
ATOM      2  N   UNL     1       0.002  -0.004   0.002  0.00  0.00    -0.286 N 
ATOM      3  C   UNL     1       0.000  -0.672  -1.169  0.00  0.00    +0.302 C 
ATOM      4  O   UNL     1       0.017  -1.887  -1.175  0.00  0.00    -0.253 OA
ATOM      5  N   UNL     1      -0.020   0.009  -2.332  0.00  0.00    -0.295 N 
ATOM      6  H   UNL     1      -0.033   0.978  -2.327  0.00  0.00    +0.151 HD
ENDROOT
BRANCH   2   7
ATOM      7  C   UNL     1       0.024  -0.743   1.267  0.00  0.00    +0.077 C 
ATOM      8  C   UNL     1      -1.222  -0.395   2.083  0.00  0.00    +0.022 C 
ATOM      9  C   UNL     1      -1.199  -1.167   3.404  0.00  0.00    +0.002 C 
ATOM     10  C   UNL     1       0.052  -0.785   4.196  0.00  0.00    +0.000 C 
ATOM     11  C   UNL     1       1.299  -1.133   3.380  0.00  0.00    +0.002 C 
ATOM     12  C   UNL     1       1.276  -0.361   2.059  0.00  0.00    +0.022 C 
ENDBRANCH   2   7
BRANCH   5  13
ATOM     13  C   UNL     1      -0.022  -0.717  -3.605  0.00  0.00    +0.141 C 
BRANCH  13  14
ATOM     14  C   UNL     1      -0.047   0.268  -4.745  0.00  0.00    -0.027 A 
ATOM     15  C   UNL     1      -1.256   0.707  -5.252  0.00  0.00    +0.009 A 
ATOM     16  C   UNL     1      -1.282   1.610  -6.298  0.00  0.00    +0.050 A 
ATOM     17  C   UNL     1      -0.095   2.078  -6.842  0.00  0.00    +0.162 A 
ATOM     18  C   UNL     1       1.120   1.638  -6.331  0.00  0.00    +0.162 A 
ATOM     19  C   UNL     1       1.140   0.736  -5.278  0.00  0.00    +0.054 A 
ATOM     20  O   UNL     1       2.297   2.091  -6.845  0.00  0.00    -0.485 OA
ATOM     21  C   UNL     1       2.240   2.709  -8.135  0.00  0.00    +0.270 C 
ATOM     22  C   UNL     1       1.064   3.695  -8.144  0.00  0.00    +0.270 C 
ATOM     23  O   UNL     1      -0.137   2.963  -7.875  0.00  0.00    -0.485 OA
ENDBRANCH  13  14
ENDBRANCH   5  13
TORSDOF 3
