REMARK  Name = ZINC09479954
REMARK  11 active torsions:
REMARK  status: ('A' for Active; 'I' for Inactive)
REMARK    1  A    between atoms: C_1  and  S_2
REMARK    2  A    between atoms: S_2  and  C_3
REMARK    3  A    between atoms: C_6  and  C_13
REMARK    4  A    between atoms: N_7  and  C_8
REMARK    5  A    between atoms: C_13  and  C_14
REMARK    6  A    between atoms: C_14  and  C_15
REMARK    7  A    between atoms: C_15  and  N_16
REMARK    8  A    between atoms: C_17  and  C_19
REMARK    9  A    between atoms: C_23  and  S_25
REMARK   10  A    between atoms: S_25  and  N_28
REMARK   11  A    between atoms: N_28  and  C_29
REMARK                            x       y       z     vdW  Elec       q    Type
REMARK                         _______ _______ _______ _____ _____    ______ ____
ROOT
ATOM      1  N   UNL     1       2.793  -4.940  -2.051  0.00  0.00    -0.311 N 
ATOM      2  C   UNL     1       3.150  -6.155  -2.513  0.00  0.00    +0.244 C 
ATOM      3  O   UNL     1       3.483  -7.027  -1.735  0.00  0.00    -0.270 OA
ATOM      4  H   UNL     1       2.527  -4.244  -2.672  0.00  0.00    +0.149 HD
ENDROOT
BRANCH   2   5
ATOM      5  C   UNL     1       3.136  -6.426  -3.965  0.00  0.00    +0.039 A 
ATOM      6  C   UNL     1       2.748  -5.428  -4.861  0.00  0.00    +0.014 A 
ATOM      7  C   UNL     1       2.742  -5.685  -6.216  0.00  0.00    +0.023 A 
ATOM      8  C   UNL     1       3.110  -6.935  -6.688  0.00  0.00    +0.067 A 
ATOM      9  C   UNL     1       3.490  -7.930  -5.804  0.00  0.00    +0.124 A 
ATOM     10  C   UNL     1       3.506  -7.683  -4.447  0.00  0.00    +0.043 A 
ATOM     11 CL   UNL     1       3.094  -7.253  -8.394  0.00  0.00    -0.082 Cl
BRANCH   9  12
ATOM     12  S   UNL     1       3.957  -9.516  -6.414  0.00  0.00    +0.060 S 
ATOM     13  O   UNL     1       4.335 -10.291  -5.284  0.00  0.00    -0.153 OA
ATOM     14  O   UNL     1       2.932  -9.925  -7.309  0.00  0.00    -0.153 OA
BRANCH  12  15
ATOM     15  N   UNL     1       5.325  -9.308  -7.323  0.00  0.00    -0.187 NA
ATOM     16  H   UNL     1       5.306  -9.489  -8.276  0.00  0.00    +0.148 HD
BRANCH  15  17
ATOM     17  C   UNL     1       6.564  -8.850  -6.689  0.00  0.00    +0.077 C 
ATOM     18  C   UNL     1       7.492  -7.958  -7.515  0.00  0.00    +0.022 C 
ATOM     19  C   UNL     1       7.882  -9.409  -7.228  0.00  0.00    +0.022 C 
ENDBRANCH  15  17
ENDBRANCH  12  15
ENDBRANCH   9  12
ENDBRANCH   2   5
BRANCH   1  20
ATOM     20  C   UNL     1       2.806  -4.671  -0.611  0.00  0.00    +0.105 C 
BRANCH  20  21
ATOM     21  C   UNL     1       2.362  -3.229  -0.357  0.00  0.00    +0.026 C 
BRANCH  21  22
ATOM     22  C   UNL     1       2.376  -2.948   1.147  0.00  0.00    +0.078 C 
BRANCH  22  26
ATOM     23  C   UNL     1       1.921   0.629   1.702  0.00  0.00    +0.192 A 
ATOM     24  N   UNL     1       0.700   0.152   1.774  0.00  0.00    -0.123 NA
ATOM     25  N   UNL     1       0.716  -1.120   1.594  0.00  0.00    -0.134 NA
ATOM     26  C   UNL     1       1.938  -1.528   1.397  0.00  0.00    +0.134 A 
ATOM     27  N   UNL     1       2.749  -0.429   1.459  0.00  0.00    -0.303 N 
BRANCH  27  28
ATOM     28  C   UNL     1       4.205  -0.394   1.297  0.00  0.00    +0.091 C 
ATOM     29  C   UNL     1       4.862   0.211   2.555  0.00  0.00    +0.025 C 
ATOM     30  C   UNL     1       6.043   1.047   2.001  0.00  0.00    +0.002 C 
ATOM     31  C   UNL     1       5.456   1.652   0.702  0.00  0.00    +0.002 C 
ATOM     32  C   UNL     1       4.583   0.521   0.120  0.00  0.00    +0.025 C 
ENDBRANCH  27  28
BRANCH  23  34
ATOM     33  C   UNL     1       0.782   3.072   2.175  0.00  0.00    +0.093 C 
ATOM     34  S   UNL     1       2.400   2.315   1.884  0.00  0.00    -0.089 S 
ENDBRANCH  23  34
ENDBRANCH  22  26
ENDBRANCH  21  22
ENDBRANCH  20  21
ENDBRANCH   1  20
TORSDOF 10
