REMARK  Name = ZINC07002777
REMARK  6 active torsions:
REMARK  status: ('A' for Active; 'I' for Inactive)
REMARK    1  A    between atoms: C_1  and  C_2
REMARK    2  A    between atoms: C_15  and  C_17
REMARK    3  A    between atoms: C_17  and  C_19
REMARK    4  A    between atoms: C_17  and  N_58
REMARK    5  A    between atoms: N_22  and  C_25
REMARK    6  A    between atoms: C_28  and  O_31
REMARK                            x       y       z     vdW  Elec       q    Type
REMARK                         _______ _______ _______ _____ _____    ______ ____
ROOT
ATOM      1  C   UNL     1       0.978  -5.595  -3.605  0.00  0.00    -0.004 C 
ATOM      2  C   UNL     1       1.292  -6.739  -2.639  0.00  0.00    -0.005 C 
ENDROOT
BRANCH   1  16
ATOM      3  C   UNL     1       1.889   3.334   0.707  0.00  0.00    +0.008 C 
ATOM      4  C   UNL     1       1.859   1.843   0.364  0.00  0.00    -0.009 C 
ATOM      5  C   UNL     1       0.425   1.318   0.477  0.00  0.00    +0.008 C 
ATOM      6  C   UNL     1       0.422  -0.208   0.382  0.00  0.00    +0.037 C 
ATOM      7  C   UNL     1       1.175  -0.627  -0.878  0.00  0.00    -0.023 A 
ATOM      8  C   UNL     1       2.021   0.234  -1.491  0.00  0.00    -0.004 A 
ATOM      9  S   UNL     1       2.662  -0.658  -2.886  0.00  0.00    -0.073 S 
ATOM     10  C   UNL     1       1.798  -2.178  -2.645  0.00  0.00    +0.116 A 
ATOM     11  C   UNL     1       1.034  -1.941  -1.480  0.00  0.00    +0.075 A 
ATOM     12  C   UNL     1       0.204  -3.016  -1.015  0.00  0.00    +0.260 A 
ATOM     13  O   UNL     1      -0.493  -2.913  -0.021  0.00  0.00    -0.267 OA
ATOM     14  N   UNL     1       0.245  -4.151  -1.753  0.00  0.00    -0.312 N 
ATOM     15  H   UNL     1      -0.317  -4.926  -1.466  0.00  0.00    +0.170 HD
ATOM     16  C   UNL     1       1.012  -4.285  -2.861  0.00  0.00    +0.097 A 
ATOM     17  N   UNL     1       1.786  -3.324  -3.318  0.00  0.00    -0.228 NA
ATOM     18  C   UNL     1       2.346   1.636  -1.078  0.00  0.00    +0.046 C 
ENDBRANCH   1  16
BRANCH   1  24
ATOM     19  C   UNL     1       1.758  -6.676  -5.627  0.00  0.00    -0.059 C 
ATOM     20  C   UNL     1       2.769  -6.572  -6.772  0.00  0.00    +0.086 C 
ATOM     21  N   UNL     1       4.132  -6.617  -6.224  0.00  0.00    -0.333 N 
ATOM     22  C   UNL     1       4.353  -5.515  -5.277  0.00  0.00    +0.086 C 
ATOM     23  C   UNL     1       3.342  -5.619  -4.133  0.00  0.00    -0.059 C 
ATOM     24  N   UNL     1       1.977  -5.550  -4.695  0.00  0.00    +0.388 N 
ATOM     25  H   UNL     1       1.871  -4.667  -5.207  0.00  0.00    -0.081 HD
BRANCH  21  26
ATOM     26  C   UNL     1       5.085  -6.597  -7.248  0.00  0.00    +0.030 A 
ATOM     27  C   UNL     1       6.063  -5.611  -7.268  0.00  0.00    +0.026 A 
ATOM     28  C   UNL     1       7.006  -5.596  -8.276  0.00  0.00    +0.047 A 
ATOM     29  C   UNL     1       6.971  -6.557  -9.275  0.00  0.00    +0.117 A 
ATOM     30  C   UNL     1       5.991  -7.539  -9.259  0.00  0.00    +0.047 A 
ATOM     31  C   UNL     1       5.050  -7.560  -8.248  0.00  0.00    +0.026 A 
BRANCH  29  32
ATOM     32  O   UNL     1       7.897  -6.537 -10.271  0.00  0.00    -0.507 OA
ATOM     33  H   UNL     1       7.636  -6.012 -11.040  0.00  0.00    +0.292 HD
ENDBRANCH  29  32
ENDBRANCH  21  26
ENDBRANCH   1  24
TORSDOF 4
