REMARK  Name = ZINC13726841
REMARK  10 active torsions:
REMARK  status: ('A' for Active; 'I' for Inactive)
REMARK    1  A    between atoms: C_1  and  C_2
REMARK    2  A    between atoms: C_2  and  C_36
REMARK    3  A    between atoms: C_4  and  N_10
REMARK    4  A    between atoms: C_6  and  C_8
REMARK    5  A    between atoms: C_6  and  C_9
REMARK    6  A    between atoms: C_20  and  O_23
REMARK    7  A    between atoms: O_23  and  C_24
REMARK    8  A    between atoms: C_27  and  C_30
REMARK    9  A    between atoms: C_30  and  O_32
REMARK   10  A    between atoms: O_32  and  C_33
REMARK                            x       y       z     vdW  Elec       q    Type
REMARK                         _______ _______ _______ _____ _____    ______ ____
ROOT
ATOM      1  N   UNL     1       2.535  -0.799  -2.796  0.00  0.00    -0.263 NA
ATOM      2  C   UNL     1       3.969  -0.485  -2.881  0.00  0.00    +0.130 C 
ATOM      3  C   UNL     1       4.596  -1.283  -3.995  0.00  0.00    +0.051 A 
ATOM      4  C   UNL     1       3.958  -2.391  -4.521  0.00  0.00    +0.130 A 
ATOM      5  C   UNL     1       4.550  -3.124  -5.551  0.00  0.00    +0.047 A 
ATOM      6  C   UNL     1       5.765  -2.757  -6.053  0.00  0.00    +0.019 A 
ATOM      7  C   UNL     1       6.419  -1.640  -5.533  0.00  0.00    +0.068 A 
ATOM      8  C   UNL     1       5.834  -0.894  -4.496  0.00  0.00    +0.147 A 
ATOM      9  O   UNL     1       6.467   0.183  -3.994  0.00  0.00    -0.459 OA
ATOM     10  C   UNL     1       7.657   0.574  -4.458  0.00  0.00    +0.245 A 
ATOM     11  C   UNL     1       8.315  -0.060  -5.448  0.00  0.00    +0.210 A 
ATOM     12  C   UNL     1       7.731  -1.212  -6.049  0.00  0.00    +0.235 A 
ATOM     13  O   UNL     1       8.292  -1.816  -6.948  0.00  0.00    -0.283 OA
ATOM     14  O   UNL     1       2.745  -2.783  -4.050  0.00  0.00    -0.476 OA
ATOM     15  C   UNL     1       2.336  -2.258  -2.785  0.00  0.00    +0.319 C 
ENDROOT
BRANCH   1  19
ATOM     16  C   UNL     1      -0.314   1.685  -0.534  0.00  0.00    -0.010 C 
ATOM     17  C   UNL     1      -0.227   0.163  -0.377  0.00  0.00    -0.072 C 
ATOM     18  C   UNL     1       0.424  -0.447  -1.614  0.00  0.00    +0.006 C 
ATOM     19  C   UNL     1       1.929  -0.176  -1.612  0.00  0.00    +0.058 C 
ATOM     20  C   UNL     1       2.524  -0.804  -0.351  0.00  0.00    +0.006 C 
ATOM     21  C   UNL     1       1.888  -0.198   0.896  0.00  0.00    -0.072 C 
ATOM     22  N   UNL     1       0.437  -0.203   0.862  0.00  0.00    +0.386 N 
ATOM     23  C   UNL     1       2.435   1.215   1.121  0.00  0.00    -0.010 C 
ATOM     24  C   UNL     1       2.334  -1.054   2.104  0.00  0.00    -0.010 C 
ATOM     25  C   UNL     1      -1.677  -0.370  -0.309  0.00  0.00    -0.010 C 
ATOM     26  H   UNL     1       0.096   0.416   1.604  0.00  0.00    -0.084 HD
ATOM     27  H   UNL     1       0.114  -1.137   1.134  0.00  0.00    -0.084 HD
ENDBRANCH   1  19
BRANCH  11  28
ATOM     28  O   UNL     1       9.526   0.396  -5.870  0.00  0.00    -0.449 OA
BRANCH  28  29
ATOM     29  C   UNL     1       9.614   0.901  -7.126  0.00  0.00    +0.129 A 
ATOM     30  C   UNL     1       8.465   1.052  -7.895  0.00  0.00    +0.047 A 
ATOM     31  C   UNL     1       8.550   1.563  -9.170  0.00  0.00    +0.018 A 
ATOM     32  C   UNL     1       9.794   1.931  -9.692  0.00  0.00    +0.059 A 
ATOM     33  C   UNL     1      10.947   1.778  -8.916  0.00  0.00    +0.018 A 
ATOM     34  C   UNL     1      10.852   1.271  -7.639  0.00  0.00    +0.047 A 
BRANCH  32  35
ATOM     35  C   UNL     1       9.890   2.479 -11.058  0.00  0.00    +0.339 C 
ATOM     36  O   UNL     1       8.887   2.611 -11.731  0.00  0.00    -0.245 OA
BRANCH  35  37
ATOM     37  O   UNL     1      11.090   2.833 -11.559  0.00  0.00    -0.464 OA
ATOM     38  C   UNL     1      11.108   3.357 -12.888  0.00  0.00    +0.280 C 
ENDBRANCH  35  37
ENDBRANCH  32  35
ENDBRANCH  28  29
ENDBRANCH  11  28
TORSDOF 5
