REMARK  Name = ZINC00920609
REMARK  11 active torsions:
REMARK  status: ('A' for Active; 'I' for Inactive)
REMARK    1  A    between atoms: C_1  and  C_2
REMARK    2  A    between atoms: C_2  and  C_3
REMARK    3  A    between atoms: C_6  and  N_9
REMARK    4  A    between atoms: C_10  and  C_12
REMARK    5  A    between atoms: C_12  and  S_13
REMARK    6  A    between atoms: S_13  and  C_14
REMARK    7  A    between atoms: C_16  and  C_30
REMARK    8  A    between atoms: N_18  and  C_19
REMARK    9  A    between atoms: C_19  and  C_20
REMARK   10  A    between atoms: N_22  and  C_23
REMARK   11  A    between atoms: C_28  and  C_29
REMARK                            x       y       z     vdW  Elec       q    Type
REMARK                         _______ _______ _______ _____ _____    ______ ____
ROOT
ATOM      1  C   UNL     1      -0.077   2.252   2.184  0.00  0.00    +0.188 A 
ATOM      2  N   UNL     1      -0.954   2.506   3.129  0.00  0.00    -0.201 NA
ATOM      3  C   UNL     1      -1.807   1.477   3.242  0.00  0.00    +0.182 A 
ATOM      4  N   UNL     1      -1.481   0.557   2.362  0.00  0.00    -0.148 NA
ATOM      5  N   UNL     1      -0.363   1.038   1.662  0.00  0.00    -0.231 N 
ENDROOT
BRANCH   3   6
ATOM      6  C   UNL     1      -2.933   1.391   4.203  0.00  0.00    +0.024 A 
ATOM      7  C   UNL     1      -3.768   0.270   4.233  0.00  0.00    +0.031 A 
ATOM      8  C   UNL     1      -4.801   0.229   5.146  0.00  0.00    +0.111 A 
ATOM      9  N   UNL     1      -5.013   1.233   5.975  0.00  0.00    -0.263 NA
ATOM     10  C   UNL     1      -4.252   2.311   5.976  0.00  0.00    +0.111 A 
ATOM     11  C   UNL     1      -3.193   2.432   5.100  0.00  0.00    +0.031 A 
ENDBRANCH   3   6
BRANCH   1  12
ATOM     12  S   UNL     1       1.240   3.310   1.683  0.00  0.00    -0.077 S 
BRANCH  12  13
ATOM     13  C   UNL     1       0.975   4.699   2.812  0.00  0.00    +0.173 C 
BRANCH  13  15
ATOM     14  N   UNL     1       2.015   6.893   3.287  0.00  0.00    -0.285 N 
ATOM     15  C   UNL     1       2.016   5.759   2.559  0.00  0.00    +0.227 C 
ATOM     16  O   UNL     1       2.855   5.591   1.699  0.00  0.00    -0.275 OA
ATOM     17  H   UNL     1       1.394   6.994   4.025  0.00  0.00    +0.155 HD
BRANCH  14  21
ATOM     18  C   UNL     1       4.681   9.960   2.370  0.00  0.00    -0.048 A 
ATOM     19  C   UNL     1       4.165   9.170   1.360  0.00  0.00    +0.005 A 
ATOM     20  C   UNL     1       3.281   8.152   1.661  0.00  0.00    +0.023 A 
ATOM     21  C   UNL     1       2.911   7.923   2.979  0.00  0.00    +0.033 A 
ATOM     22  C   UNL     1       3.427   8.722   3.991  0.00  0.00    +0.023 A 
ATOM     23  C   UNL     1       4.315   9.734   3.684  0.00  0.00    +0.005 A 
BRANCH  18  25
ATOM     24  C   UNL     1       4.866  12.360   1.775  0.00  0.00    +0.009 C 
ATOM     25  C   UNL     1       5.645  11.070   2.038  0.00  0.00    +0.032 C 
ENDBRANCH  18  25
ENDBRANCH  14  21
ENDBRANCH  13  15
ENDBRANCH  12  13
ENDBRANCH   1  12
BRANCH   5  26
ATOM     26  C   UNL     1       0.355   0.357   0.582  0.00  0.00    +0.242 C 
BRANCH  26  27
ATOM     27  C   UNL     1      -0.258   0.731  -0.743  0.00  0.00    +0.239 C 
ATOM     28  O   UNL     1      -1.202   1.491  -0.781  0.00  0.00    -0.273 OA
ATOM     29  N   UNL     1       0.242   0.219  -1.885  0.00  0.00    -0.284 N 
ATOM     30  H   UNL     1       1.043  -0.327  -1.862  0.00  0.00    +0.155 HD
BRANCH  29  31
ATOM     31  C   UNL     1      -0.394   0.477  -3.105  0.00  0.00    +0.036 A 
ATOM     32  C   UNL     1      -1.731   0.852  -3.127  0.00  0.00    +0.023 A 
ATOM     33  C   UNL     1      -2.354   1.111  -4.331  0.00  0.00    +0.002 A 
ATOM     34  C   UNL     1      -1.652   0.985  -5.516  0.00  0.00    +0.000 A 
ATOM     35  C   UNL     1      -0.323   0.606  -5.498  0.00  0.00    +0.005 A 
ATOM     36  C   UNL     1       0.308   0.351  -4.296  0.00  0.00    -0.029 A 
ATOM     37  C   UNL     1       1.757  -0.062  -4.277  0.00  0.00    +0.045 C 
ENDBRANCH  29  31
ENDBRANCH  26  27
ENDBRANCH   5  26
TORSDOF 9
