REMARK  Name = ZINC63948814
REMARK  2 active torsions:
REMARK  status: ('A' for Active; 'I' for Inactive)
REMARK    1  A    between atoms: C_8  and  C_28
REMARK    2  A    between atoms: C_16  and  C_18
REMARK                            x       y       z     vdW  Elec       q    Type
REMARK                         _______ _______ _______ _____ _____    ______ ____
ROOT
ATOM      1  C   UNL     1       0.037   1.558   0.689  0.00  0.00    +0.001 A 
ATOM      2  C   UNL     1       1.238   2.268   0.825  0.00  0.00    +0.002 A 
ATOM      3  C   UNL     1       2.447   1.676   0.731  0.00  0.00    +0.026 A 
ATOM      4  C   UNL     1       2.550   0.280   0.484  0.00  0.00    +0.043 A 
ATOM      5  N   UNL     1       3.591  -0.513   0.373  0.00  0.00    -0.375 N 
ATOM      6  C   UNL     1       3.120  -1.855   0.042  0.00  0.00    +0.131 C 
ATOM      7  C   UNL     1       3.594  -2.896   1.063  0.00  0.00    +0.133 C 
ATOM      8  N   UNL     1       2.767  -4.101   0.896  0.00  0.00    -0.285 N 
ATOM      9  C   UNL     1       1.311  -4.038   1.070  0.00  0.00    +0.113 C 
ATOM     10  C   UNL     1       0.725  -3.011   0.084  0.00  0.00    +0.052 C 
ATOM     11  C   UNL     1       1.604  -1.783   0.128  0.00  0.00    -0.035 C 
ATOM     12  C   UNL     1       1.293  -0.497   0.343  0.00  0.00    -0.001 A 
ATOM     13  C   UNL     1       0.020   0.226   0.456  0.00  0.00    +0.010 A 
ATOM     14  C   UNL     1       3.351  -5.274   0.581  0.00  0.00    +0.283 C 
ATOM     15  O   UNL     1       4.564  -5.362   0.558  0.00  0.00    -0.267 OA
ATOM     16  H   UNL     1       4.518  -0.251   0.491  0.00  0.00    +0.160 HD
ENDROOT
BRANCH  14  17
ATOM     17  C   UNL     1       2.523  -6.446   0.263  0.00  0.00    +0.191 A 
ATOM     18  C   UNL     1       2.990  -7.709   0.092  0.00  0.00    +0.063 A 
ATOM     19  C   UNL     1       1.822  -8.537  -0.206  0.00  0.00    +0.022 A 
ATOM     20  C   UNL     1       1.633  -9.894  -0.476  0.00  0.00    +0.027 A 
ATOM     21  C   UNL     1       0.374 -10.367  -0.722  0.00  0.00    +0.019 A 
ATOM     22  C   UNL     1      -0.716  -9.507  -0.704  0.00  0.00    +0.019 A 
ATOM     23  C   UNL     1      -0.551  -8.165  -0.439  0.00  0.00    +0.048 A 
ATOM     24  C   UNL     1       0.720  -7.661  -0.186  0.00  0.00    +0.136 A 
ATOM     25  O   UNL     1       1.183  -6.429   0.102  0.00  0.00    -0.450 OA
ATOM     26 BR   UNL     1       0.117 -12.204  -1.089  0.00  0.00    -0.050 Br
ENDBRANCH  14  17
BRANCH   7  27
ATOM     27  C   UNL     1       3.429  -2.352   2.459  0.00  0.00    -0.021 A 
ATOM     28  C   UNL     1       4.535  -2.198   3.274  0.00  0.00    +0.009 A 
ATOM     29  C   UNL     1       4.389  -1.699   4.555  0.00  0.00    +0.050 A 
ATOM     30  C   UNL     1       3.133  -1.352   5.025  0.00  0.00    +0.166 A 
ATOM     31  C   UNL     1       2.019  -1.508   4.204  0.00  0.00    +0.167 A 
ATOM     32  C   UNL     1       2.173  -2.003   2.919  0.00  0.00    +0.055 A 
ATOM     33  O   UNL     1       0.911  -1.101   4.890  0.00  0.00    -0.453 OA
ATOM     34  C   UNL     1       1.303  -1.080   6.276  0.00  0.00    +0.466 C 
ATOM     35  O   UNL     1       2.723  -0.848   6.226  0.00  0.00    -0.453 OA
ENDBRANCH   7  27
TORSDOF 2
