REMARK  Name = ZINC23449898
REMARK  8 active torsions:
REMARK  status: ('A' for Active; 'I' for Inactive)
REMARK    1  A    between atoms: C_1  and  C_2
REMARK    2  A    between atoms: C_5  and  C_8
REMARK    3  A    between atoms: C_10  and  N_19
REMARK    4  A    between atoms: N_11  and  C_13
REMARK    5  A    between atoms: C_20  and  C_22
REMARK    6  A    between atoms: C_22  and  O_23
REMARK    7  A    between atoms: O_23  and  C_24
REMARK    8  A    between atoms: C_24  and  C_26
REMARK                            x       y       z     vdW  Elec       q    Type
REMARK                         _______ _______ _______ _____ _____    ______ ____
ROOT
ATOM      1  C   UNL     1       0.061  -4.256  -0.021  0.00  0.00    +0.095 A 
ATOM      2  C   UNL     1       0.072  -5.088   1.114  0.00  0.00    +0.074 A 
ATOM      3  C   UNL     1       0.089  -6.377   0.685  0.00  0.00    +0.129 A 
ATOM      4  N   UNL     1       0.089  -6.359  -0.676  0.00  0.00    -0.218 N 
ATOM      5  N   UNL     1       0.065  -5.022  -1.092  0.00  0.00    -0.165 NA
ENDROOT
BRANCH   1  10
ATOM      6  C   UNL     1      -0.018   1.503   0.010  0.00  0.00    +0.044 C 
ATOM      7  C   UNL     1       0.002  -0.004   0.002  0.00  0.00    -0.050 A 
ATOM      8  C   UNL     1       0.006  -0.686  -1.201  0.00  0.00    +0.004 A 
ATOM      9  C   UNL     1       0.025  -2.067  -1.215  0.00  0.00    +0.010 A 
ATOM     10  C   UNL     1       0.041  -2.772  -0.013  0.00  0.00    +0.002 A 
ATOM     11  C   UNL     1       0.037  -2.080   1.196  0.00  0.00    +0.010 A 
ATOM     12  C   UNL     1       0.023  -0.700   1.198  0.00  0.00    +0.004 A 
ENDBRANCH   1  10
BRANCH   4  13
ATOM     13  C   UNL     1       0.104  -7.482  -1.514  0.00  0.00    +0.067 A 
ATOM     14  C   UNL     1       0.804  -8.621  -1.139  0.00  0.00    +0.028 A 
ATOM     15  C   UNL     1       0.817  -9.726  -1.967  0.00  0.00    +0.002 A 
ATOM     16  C   UNL     1       0.134  -9.700  -3.169  0.00  0.00    +0.000 A 
ATOM     17  C   UNL     1      -0.564  -8.567  -3.546  0.00  0.00    +0.002 A 
ATOM     18  C   UNL     1      -0.586  -7.460  -2.719  0.00  0.00    +0.028 A 
ENDBRANCH   4  13
BRANCH   3  19
ATOM     19  N   UNL     1       0.105  -7.513   1.494  0.00  0.00    -0.267 N 
ATOM     20  C   UNL     1       0.103  -7.385   2.836  0.00  0.00    +0.256 C 
ATOM     21  O   UNL     1       0.087  -6.282   3.340  0.00  0.00    -0.272 OA
ATOM     22  H   UNL     1       0.117  -8.395   1.091  0.00  0.00    +0.156 HD
BRANCH  20  23
ATOM     23  C   UNL     1       0.120  -8.613   3.709  0.00  0.00    +0.328 C 
BRANCH  23  24
ATOM     24  O   UNL     1       0.114  -8.220   5.083  0.00  0.00    -0.455 OA
BRANCH  24  25
ATOM     25  C   UNL     1       0.127  -9.202   5.998  0.00  0.00    +0.311 C 
ATOM     26  O   UNL     1       0.143 -10.357   5.644  0.00  0.00    -0.251 OA
BRANCH  25  27
ATOM     27  C   UNL     1       0.122  -8.861   7.480  0.00  0.00    +0.099 C 
ATOM     28  C   UNL     1      -1.093  -7.991   7.755  0.00  0.00    +0.025 C 
ATOM     29  C   UNL     1      -1.391  -7.818   9.241  0.00  0.00    +0.056 C 
ATOM     30  C   UNL     1      -0.294  -7.015   9.934  0.00  0.00    +0.011 C 
ATOM     31  C   UNL     1       1.040  -7.737   9.979  0.00  0.00    +0.001 C 
ATOM     32  C   UNL     1       0.967  -9.185  10.425  0.00  0.00    +0.011 C 
ATOM     33  C   UNL     1      -0.145  -9.979   9.747  0.00  0.00    +0.056 C 
ATOM     34  C   UNL     1       0.140 -10.166   8.259  0.00  0.00    +0.025 C 
ATOM     35  C   UNL     1      -1.438  -9.194   9.880  0.00  0.00    +0.140 C 
ATOM     36  O   UNL     1      -2.414  -9.625  10.442  0.00  0.00    -0.297 OA
ENDBRANCH  25  27
ENDBRANCH  24  25
ENDBRANCH  23  24
ENDBRANCH  20  23
ENDBRANCH   3  19
TORSDOF 7
