REMARK  Name = ZINC08906331
REMARK  8 active torsions:
REMARK  status: ('A' for Active; 'I' for Inactive)
REMARK    1  A    between atoms: C_1  and  C_2
REMARK    2  A    between atoms: C_5  and  N_8
REMARK    3  A    between atoms: C_10  and  C_15
REMARK    4  A    between atoms: C_21  and  S_23
REMARK    5  A    between atoms: S_23  and  C_24
REMARK    6  A    between atoms: C_24  and  C_25
REMARK    7  A    between atoms: N_27  and  C_28
REMARK    8  A    between atoms: C_31  and  N_34
REMARK                            x       y       z     vdW  Elec       q    Type
REMARK                         _______ _______ _______ _____ _____    ______ ____
ROOT
ATOM      1  C   UNL     1       0.577  -7.475   1.397  0.00  0.00    +0.224 C 
ATOM      2  O   UNL     1       1.451  -7.160   2.176  0.00  0.00    -0.275 OA
ATOM      3  N   UNL     1       0.327  -8.777   1.155  0.00  0.00    -0.263 N 
ATOM      4  C   UNL     1       1.073  -9.761   1.800  0.00  0.00    +0.189 A 
ATOM      5  N   UNL     1       2.054  -9.644   2.679  0.00  0.00    -0.125 NA
ATOM      6  N   UNL     1       2.632 -10.650   3.174  0.00  0.00    -0.133 NA
ATOM      7  C   UNL     1       2.290 -11.887   2.844  0.00  0.00    +0.160 A 
ATOM      8  S   UNL     1       0.971 -11.544   1.682  0.00  0.00    -0.024 S 
ATOM      9  H   UNL     1      -0.372  -9.029   0.532  0.00  0.00    +0.157 HD
ENDROOT
BRANCH   1  12
ATOM     10  N   UNL     1       0.120  -4.169  -0.079  0.00  0.00    -0.271 N 
ATOM     11  C   UNL     1       0.229  -4.999   1.127  0.00  0.00    +0.127 C 
ATOM     12  C   UNL     1      -0.230  -6.410   0.699  0.00  0.00    +0.102 C 
ATOM     13  C   UNL     1       0.071  -6.393  -0.818  0.00  0.00    +0.110 C 
ATOM     14  C   UNL     1       0.029  -4.926  -1.186  0.00  0.00    +0.221 C 
ATOM     15  O   UNL     1      -0.068  -4.495  -2.316  0.00  0.00    -0.275 OA
BRANCH  10  20
ATOM     16  C   UNL     1       0.063   1.504  -0.066  0.00  0.00    +0.044 C 
ATOM     17  C   UNL     1       0.078  -0.003  -0.069  0.00  0.00    -0.050 A 
ATOM     18  C   UNL     1       0.091  -0.690  -1.269  0.00  0.00    +0.005 A 
ATOM     19  C   UNL     1       0.105  -2.071  -1.276  0.00  0.00    +0.024 A 
ATOM     20  C   UNL     1       0.106  -2.770  -0.075  0.00  0.00    +0.036 A 
ATOM     21  C   UNL     1       0.093  -2.077   1.128  0.00  0.00    +0.024 A 
ATOM     22  C   UNL     1       0.084  -0.696   1.128  0.00  0.00    +0.005 A 
ENDBRANCH  10  20
ENDBRANCH   1  12
BRANCH   7  23
ATOM     23  S   UNL     1       2.943 -13.428   3.394  0.00  0.00    -0.088 S 
BRANCH  23  24
ATOM     24  C   UNL     1       4.245 -12.959   4.566  0.00  0.00    +0.172 C 
BRANCH  24  25
ATOM     25  C   UNL     1       4.895 -14.201   5.120  0.00  0.00    +0.227 C 
ATOM     26  O   UNL     1       4.516 -15.296   4.758  0.00  0.00    -0.275 OA
ATOM     27  N   UNL     1       5.896 -14.097   6.016  0.00  0.00    -0.285 N 
ATOM     28  H   UNL     1       6.146 -13.227   6.364  0.00  0.00    +0.155 HD
BRANCH  27  29
ATOM     29  C   UNL     1       6.574 -15.243   6.444  0.00  0.00    +0.034 A 
ATOM     30  C   UNL     1       7.028 -15.335   7.753  0.00  0.00    +0.025 A 
ATOM     31  C   UNL     1       7.698 -16.468   8.172  0.00  0.00    +0.034 A 
ATOM     32  C   UNL     1       7.916 -17.510   7.290  0.00  0.00    +0.126 A 
ATOM     33  C   UNL     1       7.466 -17.422   5.985  0.00  0.00    +0.034 A 
ATOM     34  C   UNL     1       6.790 -16.294   5.561  0.00  0.00    +0.025 A 
BRANCH  32  35
ATOM     35  N   UNL     1       8.634 -18.723   7.742  0.00  0.00    +0.056 N 
ATOM     36  O   UNL     1       9.029 -18.802   8.882  0.00  0.00    -0.126 OA
ATOM     37  O   UNL     1       8.826 -19.635   6.972  0.00  0.00    -0.126 OA
ENDBRANCH  32  35
ENDBRANCH  27  29
ENDBRANCH  24  25
ENDBRANCH  23  24
ENDBRANCH   7  23
TORSDOF 7
