REMARK  Name = ZINC12588215
REMARK  8 active torsions:
REMARK  status: ('A' for Active; 'I' for Inactive)
REMARK    1  A    between atoms: C_1  and  C_2
REMARK    2  A    between atoms: C_5  and  C_33
REMARK    3  A    between atoms: C_6  and  N_8
REMARK    4  A    between atoms: C_12  and  S_13
REMARK    5  A    between atoms: S_13  and  C_14
REMARK    6  A    between atoms: C_14  and  C_16
REMARK    7  A    between atoms: C_14  and  C_17
REMARK    8  A    between atoms: N_22  and  C_23
REMARK                            x       y       z     vdW  Elec       q    Type
REMARK                         _______ _______ _______ _____ _____    ______ ____
ROOT
ATOM      1  C   UNL     1      -1.407  -0.525  -0.111  0.00  0.00    +0.233 C 
ATOM      2  O   UNL     1      -2.343   0.189   0.181  0.00  0.00    -0.274 OA
ATOM      3  N   UNL     1      -1.628  -1.784  -0.537  0.00  0.00    -0.239 N 
ATOM      4  C   UNL     1      -2.889  -2.250  -0.638  0.00  0.00    +0.306 C 
ATOM      5  O   UNL     1      -3.827  -1.535  -0.345  0.00  0.00    -0.252 OA
ATOM      6  N   UNL     1      -3.110  -3.510  -1.064  0.00  0.00    -0.294 N 
ATOM      7  H   UNL     1      -0.880  -2.356  -0.771  0.00  0.00    +0.159 HD
ATOM      8  H   UNL     1      -2.361  -4.081  -1.298  0.00  0.00    +0.151 HD
ENDROOT
BRANCH   6   9
ATOM      9  C   UNL     1      -4.480  -4.016  -1.174  0.00  0.00    +0.037 C 
ATOM     10  C   UNL     1      -5.154  -3.967   0.199  0.00  0.00    +0.029 C 
ATOM     11  C   UNL     1      -6.585  -4.495   0.084  0.00  0.00    -0.008 C 
ATOM     12  C   UNL     1      -6.556  -5.941  -0.418  0.00  0.00    +0.007 C 
ATOM     13  C   UNL     1      -5.882  -5.990  -1.791  0.00  0.00    -0.008 C 
ATOM     14  C   UNL     1      -4.451  -5.461  -1.676  0.00  0.00    +0.029 C 
ATOM     15  C   UNL     1      -6.669  -5.123  -2.777  0.00  0.00    +0.007 C 
ATOM     16  C   UNL     1      -6.698  -3.678  -2.275  0.00  0.00    -0.008 C 
ATOM     17  C   UNL     1      -7.371  -3.629  -0.902  0.00  0.00    +0.007 C 
ATOM     18  C   UNL     1      -5.266  -3.150  -2.160  0.00  0.00    +0.029 C 
ENDBRANCH   6   9
BRANCH   1  19
ATOM     19  C   UNL     1       0.002  -0.004   0.002  0.00  0.00    +0.137 C 
ATOM     20  C   UNL     1       0.631  -0.513   1.301  0.00  0.00    +0.029 C 
BRANCH  19  21
ATOM     21  S   UNL     1      -0.022   1.806   0.012  0.00  0.00    -0.073 S 
BRANCH  21  26
ATOM     22  N   UNL     1       2.302   3.368  -0.007  0.00  0.00    -0.276 N 
ATOM     23  C   UNL     1       3.651   3.128  -0.016  0.00  0.00    +0.230 A 
ATOM     24  N   UNL     1       3.814   1.835  -0.025  0.00  0.00    -0.137 NA
ATOM     25  N   UNL     1       2.673   1.245  -0.017  0.00  0.00    -0.122 NA
ATOM     26  C   UNL     1       1.708   2.135  -0.003  0.00  0.00    +0.197 A 
BRANCH  22  32
ATOM     27  C   UNL     1       1.296   7.620  -2.265  0.00  0.00    +0.044 C 
ATOM     28  C   UNL     1       1.159   6.696  -1.083  0.00  0.00    -0.048 A 
ATOM     29  C   UNL     1       0.403   7.079   0.009  0.00  0.00    +0.004 A 
ATOM     30  C   UNL     1       0.275   6.234   1.096  0.00  0.00    +0.005 A 
ATOM     31  C   UNL     1       0.899   5.001   1.091  0.00  0.00    -0.026 A 
ATOM     32  C   UNL     1       1.663   4.616  -0.002  0.00  0.00    +0.053 A 
ATOM     33  C   UNL     1       1.789   5.467  -1.091  0.00  0.00    +0.030 A 
ATOM     34  C   UNL     1       0.754   4.078   2.273  0.00  0.00    +0.046 C 
ENDBRANCH  22  32
ENDBRANCH  21  26
ENDBRANCH  19  21
ENDBRANCH   1  19
TORSDOF 5
