REMARK  Name = ZINC06149345
REMARK  14 active torsions:
REMARK  status: ('A' for Active; 'I' for Inactive)
REMARK    1  A    between atoms: C_1  and  C_2
REMARK    2  A    between atoms: C_2  and  C_3
REMARK    3  A    between atoms: C_3  and  C_4
REMARK    4  A    between atoms: C_3  and  C_5
REMARK    5  A    between atoms: C_3  and  N_6
REMARK    6  A    between atoms: C_7  and  C_11
REMARK    7  A    between atoms: C_11  and  C_13
REMARK    8  A    between atoms: C_11  and  N_72
REMARK    9  A    between atoms: C_16  and  C_26
REMARK   10  A    between atoms: C_19  and  C_25
REMARK   11  A    between atoms: C_27  and  C_28
REMARK   12  A    between atoms: C_27  and  N_72
REMARK   13  A    between atoms: C_34  and  C_35
REMARK   14  A    between atoms: C_34  and  N_72
REMARK                            x       y       z     vdW  Elec       q    Type
REMARK                         _______ _______ _______ _____ _____    ______ ____
ROOT
ATOM      1  C   UNL     1       0.629  -1.374  -0.710  0.00  0.00    +0.040 C 
ENDROOT
BRANCH   1   2
ATOM      2  C   UNL     1       0.589  -2.877  -0.802  0.00  0.00    +0.011 A 
ATOM      3  C   UNL     1       1.608  -3.613  -0.293  0.00  0.00    +0.018 A 
ATOM      4  C   UNL     1       1.539  -5.071  -0.398  0.00  0.00    +0.002 A 
ATOM      5  C   UNL     1       2.560  -5.883   0.109  0.00  0.00    -0.041 A 
ATOM      6  C   UNL     1       2.465  -7.240  -0.005  0.00  0.00    +0.004 A 
ATOM      7  C   UNL     1       1.365  -7.823  -0.620  0.00  0.00    +0.005 A 
ATOM      8  C   UNL     1       0.348  -7.043  -1.127  0.00  0.00    -0.026 A 
ATOM      9  C   UNL     1       0.423  -5.658  -1.023  0.00  0.00    +0.052 A 
ATOM     10  N   UNL     1      -0.581  -4.854  -1.520  0.00  0.00    -0.322 N 
ATOM     11  H   UNL     1      -1.371  -5.273  -1.967  0.00  0.00    +0.169 HD
ATOM     12  C   UNL     1      -0.511  -3.516  -1.414  0.00  0.00    +0.251 A 
ATOM     13  O   UNL     1      -1.419  -2.836  -1.861  0.00  0.00    -0.268 OA
ATOM     14  C   UNL     1      -0.840  -7.689  -1.792  0.00  0.00    +0.046 C 
ATOM     15  C   UNL     1       3.758  -5.261   0.779  0.00  0.00    +0.044 C 
ENDBRANCH   1   2
BRANCH   1  17
ATOM     16  N   UNL     1       1.707  -0.279  -2.746  0.00  0.00    -0.225 N 
ATOM     17  C   UNL     1       0.642  -0.786  -2.098  0.00  0.00    +0.143 A 
ATOM     18  N   UNL     1      -0.381  -0.673  -2.910  0.00  0.00    -0.115 NA
ATOM     19  N   UNL     1       0.033  -0.119  -3.997  0.00  0.00    -0.023 NA
ATOM     20  N   UNL     1       1.295   0.117  -3.902  0.00  0.00    -0.043 NA
BRANCH  16  21
ATOM     21  C   UNL     1       3.077  -0.195  -2.235  0.00  0.00    +0.061 C 
ATOM     22  C   UNL     1       3.108   0.714  -1.005  0.00  0.00    +0.036 C 
ATOM     23  C   UNL     1       3.564  -1.593  -1.848  0.00  0.00    +0.036 C 
BRANCH  21  25
ATOM     24  C   UNL     1       5.422   0.469  -2.784  0.00  0.00    +0.006 C 
ATOM     25  C   UNL     1       3.991   0.381  -3.318  0.00  0.00    +0.026 C 
ENDBRANCH  21  25
ENDBRANCH  16  21
ENDBRANCH   1  17
BRANCH   1  26
ATOM     26  N   UNL     1      -0.580  -0.901  -0.004  0.00  0.00    +0.395 N 
ATOM     27  H   UNL     1      -1.400  -1.060  -0.602  0.00  0.00    -0.079 HD
BRANCH  26  28
ATOM     28  C   UNL     1      -0.754  -1.651   1.258  0.00  0.00    -0.041 C 
BRANCH  28  29
ATOM     29  C   UNL     1      -2.099  -1.309   1.846  0.00  0.00    -0.064 A 
ATOM     30  C   UNL     1      -2.217  -0.261   2.740  0.00  0.00    +0.002 A 
ATOM     31  C   UNL     1      -3.451   0.056   3.275  0.00  0.00    +0.000 A 
ATOM     32  C   UNL     1      -4.566  -0.682   2.924  0.00  0.00    +0.000 A 
ATOM     33  C   UNL     1      -4.448  -1.733   2.034  0.00  0.00    +0.000 A 
ATOM     34  C   UNL     1      -3.214  -2.046   1.494  0.00  0.00    +0.002 A 
ENDBRANCH  28  29
ENDBRANCH  26  28
BRANCH  26  35
ATOM     35  C   UNL     1      -0.466   0.545   0.280  0.00  0.00    -0.034 C 
BRANCH  35  36
ATOM     36  C   UNL     1      -0.782   1.310  -0.980  0.00  0.00    -0.027 A 
ATOM     37  C   UNL     1      -1.991   1.636  -1.500  0.00  0.00    +0.009 A 
ATOM     38  C   UNL     1      -2.041   2.352  -2.681  0.00  0.00    +0.008 A 
ATOM     39  C   UNL     1      -0.880   2.707  -3.285  0.00  0.00    +0.045 A 
ATOM     40  S   UNL     1       0.338   2.029  -2.170  0.00  0.00    -0.103 S 
ENDBRANCH  35  36
ENDBRANCH  26  35
ENDBRANCH   1  26
TORSDOF 9
