REMARK  Name = ZINC22846301
REMARK  11 active torsions:
REMARK  status: ('A' for Active; 'I' for Inactive)
REMARK    1  A    between atoms: C_1  and  C_2
REMARK    2  A    between atoms: C_2  and  C_38
REMARK    3  A    between atoms: C_6  and  C_25
REMARK    4  A    between atoms: C_11  and  S_13
REMARK    5  A    between atoms: S_13  and  C_14
REMARK    6  A    between atoms: C_14  and  C_15
REMARK    7  A    between atoms: C_18  and  N_21
REMARK    8  A    between atoms: C_29  and  O_33
REMARK    9  A    between atoms: C_30  and  O_31
REMARK   10  A    between atoms: O_31  and  C_32
REMARK   11  A    between atoms: O_33  and  C_34
REMARK                            x       y       z     vdW  Elec       q    Type
REMARK                         _______ _______ _______ _____ _____    ______ ____
ROOT
ATOM      1  C   UNL     1       1.769   2.611   2.877  0.00  0.00    +0.011 C 
ATOM      2  C   UNL     1       2.165   1.458   3.802  0.00  0.00    -0.023 C 
ATOM      3  C   UNL     1       1.720   0.129   3.188  0.00  0.00    +0.058 C 
ATOM      4  C   UNL     1       2.405  -0.069   1.856  0.00  0.00    +0.020 C 
ATOM      5  C   UNL     1       3.643   0.423   1.634  0.00  0.00    +0.041 C 
ATOM      6  C   UNL     1       4.362   0.226   0.318  0.00  0.00    +0.179 C 
ATOM      7  N   UNL     1       3.423  -0.230  -0.699  0.00  0.00    -0.220 N 
ATOM      8  C   UNL     1       2.183  -0.697  -0.414  0.00  0.00    +0.219 A 
ATOM      9  N   UNL     1       1.605  -1.027  -1.536  0.00  0.00    -0.187 NA
ATOM     10  C   UNL     1       2.438  -0.783  -2.558  0.00  0.00    +0.211 A 
ATOM     11  N   UNL     1       3.564  -0.293  -2.085  0.00  0.00    -0.141 NA
ATOM     12  N   UNL     1       1.716  -0.761   0.889  0.00  0.00    -0.287 N 
ATOM     13  C   UNL     1       4.319   1.152   2.630  0.00  0.00    +0.164 C 
ATOM     14  O   UNL     1       5.438   1.568   2.404  0.00  0.00    -0.292 OA
ATOM     15  C   UNL     1       3.688   1.427   3.966  0.00  0.00    +0.086 C 
ATOM     16  C   UNL     1       1.502   1.642   5.168  0.00  0.00    +0.011 C 
ATOM     17  H   UNL     1       0.927  -1.278   1.112  0.00  0.00    +0.155 HD
ENDROOT
BRANCH   6  18
ATOM     18  C   UNL     1       5.449  -0.803   0.490  0.00  0.00    +0.027 A 
ATOM     19  C   UNL     1       5.159  -2.024   1.073  0.00  0.00    +0.010 A 
ATOM     20  C   UNL     1       6.153  -2.970   1.233  0.00  0.00    +0.004 A 
ATOM     21  C   UNL     1       7.443  -2.701   0.812  0.00  0.00    +0.049 A 
ATOM     22  C   UNL     1       7.740  -1.480   0.228  0.00  0.00    +0.162 A 
ATOM     23  C   UNL     1       6.737  -0.530   0.061  0.00  0.00    +0.167 A 
BRANCH  23  24
ATOM     24  O   UNL     1       7.023   0.668  -0.517  0.00  0.00    -0.491 OA
ATOM     25  C   UNL     1       7.586   1.676   0.324  0.00  0.00    +0.277 C 
ENDBRANCH  23  24
BRANCH  22  26
ATOM     26  O   UNL     1       9.007  -1.214  -0.187  0.00  0.00    -0.491 OA
ATOM     27  C   UNL     1       9.983  -2.239   0.011  0.00  0.00    +0.277 C 
ENDBRANCH  22  26
ENDBRANCH   6  18
BRANCH  10  28
ATOM     28  S   UNL     1       2.084  -1.074  -4.260  0.00  0.00    -0.080 S 
BRANCH  28  29
ATOM     29  C   UNL     1       0.399  -1.746  -4.248  0.00  0.00    +0.112 C 
BRANCH  29  30
ATOM     30  C   UNL     1      -0.033  -2.042  -5.661  0.00  0.00    -0.037 A 
ATOM     31  C   UNL     1      -0.668  -1.068  -6.409  0.00  0.00    +0.007 A 
ATOM     32  C   UNL     1      -1.065  -1.340  -7.705  0.00  0.00    +0.033 A 
ATOM     33  C   UNL     1      -0.825  -2.586  -8.254  0.00  0.00    +0.126 A 
ATOM     34  C   UNL     1      -0.189  -3.559  -7.507  0.00  0.00    +0.033 A 
ATOM     35  C   UNL     1       0.211  -3.286  -6.212  0.00  0.00    +0.007 A 
BRANCH  33  36
ATOM     36  N   UNL     1      -1.250  -2.877  -9.641  0.00  0.00    +0.056 N 
ATOM     37  O   UNL     1      -1.807  -2.025 -10.294  0.00  0.00    -0.126 OA
ATOM     38  O   UNL     1      -1.040  -3.966 -10.122  0.00  0.00    -0.126 OA
ENDBRANCH  33  36
ENDBRANCH  29  30
ENDBRANCH  28  29
ENDBRANCH  10  28
TORSDOF 7
