REMARK  Name = ZINC43737339
REMARK  11 active torsions:
REMARK  status: ('A' for Active; 'I' for Inactive)
REMARK    1  A    between atoms: C_1  and  C_2
REMARK    2  A    between atoms: N_5  and  C_8
REMARK    3  A    between atoms: C_8  and  C_9
REMARK    4  A    between atoms: C_10  and  C_14
REMARK    5  A    between atoms: C_14  and  C_15
REMARK    6  A    between atoms: C_15  and  C_16
REMARK    7  A    between atoms: C_24  and  C_34
REMARK    8  A    between atoms: C_28  and  C_29
REMARK    9  A    between atoms: C_28  and  C_30
REMARK   10  A    between atoms: C_30  and  O_32
REMARK   11  A    between atoms: O_32  and  C_33
REMARK                            x       y       z     vdW  Elec       q    Type
REMARK                         _______ _______ _______ _____ _____    ______ ____
ROOT
ATOM      1  C   UNL     1      -4.590  -6.608   4.022  0.00  0.00    +0.021 C 
ATOM      2  C   UNL     1      -4.755  -5.511   3.003  0.00  0.00    -0.073 C 
ATOM      3  C   UNL     1      -4.016  -5.435   1.931  0.00  0.00    +0.008 C 
ATOM      4  C   UNL     1      -5.836  -4.496   3.304  0.00  0.00    +0.031 C 
ATOM      5  C   UNL     1      -7.150  -5.260   3.496  0.00  0.00    +0.009 C 
ATOM      6  C   UNL     1      -7.033  -6.346   4.575  0.00  0.00    +0.012 C 
ATOM      7  C   UNL     1      -5.930  -7.337   4.212  0.00  0.00    -0.022 C 
ATOM      8  C   UNL     1      -6.305  -8.095   2.942  0.00  0.00    +0.007 C 
ATOM      9  C   UNL     1      -7.633  -8.828   3.142  0.00  0.00    +0.002 C 
ATOM     10  C   UNL     1      -8.739  -7.835   3.473  0.00  0.00    +0.018 C 
ATOM     11  C   UNL     1      -8.405  -7.007   4.712  0.00  0.00    +0.068 C 
ATOM     12  C   UNL     1      -8.539  -7.861   5.974  0.00  0.00    +0.023 C 
ATOM     13  C   UNL     1      -5.665  -8.346   5.340  0.00  0.00    +0.012 C 
ENDROOT
BRANCH  11  14
ATOM     14  C   UNL     1      -9.479  -5.933   4.837  0.00  0.00    +0.313 C 
ATOM     15  O   UNL     1     -10.412  -5.920   4.070  0.00  0.00    -0.250 OA
BRANCH  14  16
ATOM     16  O   UNL     1      -9.387  -5.002   5.800  0.00  0.00    -0.468 OA
ATOM     17  C   UNL     1     -10.429  -4.026   5.859  0.00  0.00    +0.280 C 
ENDBRANCH  14  16
ENDBRANCH  11  14
BRANCH   1  18
ATOM     18  C   UNL     1      -3.499  -7.582   3.590  0.00  0.00    +0.013 C 
BRANCH  18  19
ATOM     19  C   UNL     1      -2.144  -6.871   3.605  0.00  0.00    +0.039 C 
BRANCH  19  21
ATOM     20  C   UNL     1      -0.668  -8.183   1.994  0.00  0.00    +0.092 A 
ATOM     21  C   UNL     1      -1.059  -7.849   3.237  0.00  0.00    -0.008 A 
ATOM     22  C   UNL     1      -0.255  -8.592   4.132  0.00  0.00    +0.045 A 
ATOM     23  C   UNL     1       0.579  -9.335   3.382  0.00  0.00    +0.195 A 
ATOM     24  O   UNL     1       0.320  -9.087   2.088  0.00  0.00    -0.469 OA
BRANCH  20  25
ATOM     25  C   UNL     1      -1.246  -7.638   0.713  0.00  0.00    -0.003 C 
BRANCH  25  30
ATOM     26  C   UNL     1       1.804  -3.563  -1.858  0.00  0.00    +0.007 C 
ATOM     27  C   UNL     1       1.055  -4.862  -1.559  0.00  0.00    -0.018 C 
ATOM     28  C   UNL     1      -0.411  -4.548  -1.246  0.00  0.00    -0.016 C 
ATOM     29  C   UNL     1      -1.136  -5.842  -0.871  0.00  0.00    -0.078 C 
ATOM     30  N   UNL     1      -0.499  -6.439   0.309  0.00  0.00    +0.384 N 
ATOM     31  C   UNL     1       0.886  -6.809  -0.006  0.00  0.00    -0.078 C 
ATOM     32  C   UNL     1       1.688  -5.552  -0.348  0.00  0.00    -0.016 C 
ATOM     33  H   UNL     1      -0.504  -5.772   1.067  0.00  0.00    -0.081 HD
ENDBRANCH  25  30
ENDBRANCH  20  25
ENDBRANCH  19  21
ENDBRANCH  18  19
ENDBRANCH   1  18
TORSDOF 7
