REMARK  Name = ZINC22735776
REMARK  8 active torsions:
REMARK  status: ('A' for Active; 'I' for Inactive)
REMARK    1  A    between atoms: C_1  and  N_2
REMARK    2  A    between atoms: N_5  and  C_8
REMARK    3  A    between atoms: C_8  and  C_10
REMARK    4  A    between atoms: C_8  and  C_20
REMARK    5  A    between atoms: C_10  and  N_11
REMARK    6  A    between atoms: N_11  and  S_12
REMARK    7  A    between atoms: S_12  and  C_15
REMARK    8  A    between atoms: N_28  and  C_29
REMARK                            x       y       z     vdW  Elec       q    Type
REMARK                         _______ _______ _______ _____ _____    ______ ____
ROOT
ATOM      1  C   UNL     1      -1.992   4.774   0.024  0.00  0.00    +0.102 C 
ENDROOT
BRANCH   1   2
ATOM      2  C   UNL     1      -0.960   3.685  -0.118  0.00  0.00    -0.029 A 
ATOM      3  C   UNL     1       0.382   4.009  -0.210  0.00  0.00    +0.007 A 
ATOM      4  C   UNL     1       1.329   3.016  -0.341  0.00  0.00    +0.024 A 
ATOM      5  C   UNL     1       0.942   1.678  -0.383  0.00  0.00    +0.033 A 
ATOM      6  C   UNL     1      -0.408   1.362  -0.286  0.00  0.00    -0.025 A 
ATOM      7  C   UNL     1      -1.352   2.359  -0.151  0.00  0.00    +0.010 A 
ATOM      8  C   UNL     1      -0.541  -0.146  -0.350  0.00  0.00    +0.056 C 
ATOM      9  C   UNL     1       0.901  -0.630  -0.074  0.00  0.00    +0.109 C 
ATOM     10  N   UNL     1       1.719   0.520  -0.517  0.00  0.00    -0.332 N 
ATOM     11  C   UNL     1       2.955   0.622   0.270  0.00  0.00    +0.129 C 
ENDBRANCH   1   2
BRANCH   1  16
ATOM     12  C   UNL     1      -0.929   9.313   3.212  0.00  0.00    -0.096 C 
ATOM     13  N   UNL     1      -1.387   8.331   2.220  0.00  0.00    +0.379 N 
ATOM     14  C   UNL     1      -0.257   7.799   1.446  0.00  0.00    -0.064 C 
ATOM     15  C   UNL     1      -0.782   6.842   0.373  0.00  0.00    +0.066 C 
ATOM     16  N   UNL     1      -1.534   5.756   1.016  0.00  0.00    -0.298 NA
ATOM     17  C   UNL     1      -2.665   6.288   1.790  0.00  0.00    +0.066 C 
ATOM     18  C   UNL     1      -2.139   7.245   2.863  0.00  0.00    -0.064 C 
ATOM     19  H   UNL     1      -2.063   8.847   1.522  0.00  0.00    -0.082 HD
ENDBRANCH   1  16
BRANCH   1  20
ATOM     20  C   UNL     1      -2.190   5.467  -1.326  0.00  0.00    +0.129 C 
BRANCH  20  21
ATOM     21  N   UNL     1      -3.200   6.519  -1.190  0.00  0.00    -0.188 NA
ATOM     22  H   UNL     1      -4.000   6.421  -0.442  0.00  0.00    +0.148 HD
BRANCH  21  23
ATOM     23  S   UNL     1      -3.291   7.730  -2.317  0.00  0.00    +0.065 S 
ATOM     24  O   UNL     1      -4.372   8.566  -1.928  0.00  0.00    -0.153 OA
ATOM     25  O   UNL     1      -1.969   8.223  -2.489  0.00  0.00    -0.153 OA
BRANCH  23  26
ATOM     26  C   UNL     1      -3.755   6.986  -3.845  0.00  0.00    +0.142 A 
ATOM     27  C   UNL     1      -4.995   6.766  -4.346  0.00  0.00    +0.036 A 
ATOM     28  C   UNL     1      -5.121   6.163  -5.583  0.00  0.00    +0.010 A 
ATOM     29  C   UNL     1      -4.001   5.800  -6.255  0.00  0.00    +0.047 A 
ATOM     30  S   UNL     1      -2.713   6.320  -5.133  0.00  0.00    -0.077 S 
ENDBRANCH  23  26
ENDBRANCH  21  23
ENDBRANCH  20  21
ENDBRANCH   1  20
TORSDOF 6
