REMARK  Name = ZINC16011997
REMARK  3 active torsions:
REMARK  status: ('A' for Active; 'I' for Inactive)
REMARK    1  A    between atoms: C_4  and  C_7
REMARK    2  A    between atoms: C_7  and  C_8
REMARK    3  A    between atoms: N_16  and  C_19
REMARK                            x       y       z     vdW  Elec       q    Type
REMARK                         _______ _______ _______ _____ _____    ______ ____
ROOT
ATOM      1  C   UNL     1       4.380  -0.945   1.081  0.00  0.00    +0.072 C 
ATOM      2  C   UNL     1       5.676  -1.740   1.349  0.00  0.00    +0.108 C 
ATOM      3  C   UNL     1       5.387  -2.548   2.644  0.00  0.00    +0.123 C 
ATOM      4  C   UNL     1       6.340  -1.945   3.651  0.00  0.00    +0.233 C 
ATOM      5  O   UNL     1       6.439  -2.283   4.811  0.00  0.00    -0.274 OA
ATOM      6  N   UNL     1       7.056  -0.979   3.063  0.00  0.00    -0.210 N 
ATOM      7  C   UNL     1       6.771  -0.779   1.755  0.00  0.00    +0.232 C 
ATOM      8  O   UNL     1       7.298   0.032   1.025  0.00  0.00    -0.274 OA
ATOM      9  C   UNL     1       3.938  -2.198   3.005  0.00  0.00    +0.136 C 
ATOM     10  N   UNL     1       3.309  -1.717   1.766  0.00  0.00    -0.295 NA
ATOM     11  C   UNL     1       3.214  -3.380   3.584  0.00  0.00    +0.003 A 
ATOM     12  C   UNL     1       2.930  -4.642   3.113  0.00  0.00    +0.008 A 
ATOM     13  C   UNL     1       2.225  -5.533   3.902  0.00  0.00    +0.000 A 
ATOM     14  C   UNL     1       1.807  -5.154   5.164  0.00  0.00    +0.002 A 
ATOM     15  C   UNL     1       2.089  -3.890   5.641  0.00  0.00    +0.023 A 
ATOM     16  C   UNL     1       2.799  -2.986   4.853  0.00  0.00    +0.039 A 
ATOM     17  N   UNL     1       3.201  -1.673   5.107  0.00  0.00    -0.283 N 
ATOM     18  C   UNL     1       3.876  -1.139   4.071  0.00  0.00    +0.243 C 
ATOM     19  O   UNL     1       4.343  -0.022   4.011  0.00  0.00    -0.273 OA
ATOM     20  H   UNL     1       2.511  -1.132   1.962  0.00  0.00    +0.124 HD
ATOM     21  H   UNL     1       3.015  -1.201   5.934  0.00  0.00    +0.155 HD
ENDROOT
BRANCH   6  22
ATOM     22  C   UNL     1       8.030  -0.236   3.745  0.00  0.00    +0.044 A 
ATOM     23  C   UNL     1       7.830   1.117   3.985  0.00  0.00    +0.025 A 
ATOM     24  C   UNL     1       8.791   1.847   4.656  0.00  0.00    +0.022 A 
ATOM     25  C   UNL     1       9.952   1.232   5.090  0.00  0.00    +0.041 A 
ATOM     26  C   UNL     1      10.153  -0.116   4.852  0.00  0.00    +0.022 A 
ATOM     27  C   UNL     1       9.193  -0.852   4.186  0.00  0.00    +0.025 A 
ATOM     28 CL   UNL     1      11.158   2.153   5.934  0.00  0.00    -0.084 Cl
ENDBRANCH   6  22
BRANCH   1  29
ATOM     29  C   UNL     1       4.103  -0.868  -0.421  0.00  0.00    +0.054 C 
BRANCH  29  33
ATOM     30  C   UNL     1       0.644   1.541  -1.113  0.00  0.00    +0.000 A 
ATOM     31  C   UNL     1       1.897   2.124  -1.078  0.00  0.00    +0.000 A 
ATOM     32  C   UNL     1       3.016   1.345  -0.854  0.00  0.00    +0.004 A 
ATOM     33  C   UNL     1       2.883  -0.018  -0.664  0.00  0.00    -0.046 A 
ATOM     34  C   UNL     1       1.630  -0.601  -0.698  0.00  0.00    +0.004 A 
ATOM     35  C   UNL     1       0.510   0.178  -0.924  0.00  0.00    +0.000 A 
ENDBRANCH  29  33
ENDBRANCH   1  29
TORSDOF 3
