REMARK  Name = ZINC20170893
REMARK  9 active torsions:
REMARK  status: ('A' for Active; 'I' for Inactive)
REMARK    1  A    between atoms: C_1  and  C_2
REMARK    2  A    between atoms: C_2  and  O_3
REMARK    3  A    between atoms: O_3  and  C_4
REMARK    4  A    between atoms: C_4  and  C_6
REMARK    5  A    between atoms: C_8  and  C_26
REMARK    6  A    between atoms: C_13  and  C_20
REMARK    7  A    between atoms: C_14  and  C_18
REMARK    8  A    between atoms: C_15  and  N_17
REMARK    9  A    between atoms: C_24  and  O_25
REMARK                            x       y       z     vdW  Elec       q    Type
REMARK                         _______ _______ _______ _____ _____    ______ ____
ROOT
ATOM      1  C   UNL     1       1.602  -2.390   2.519  0.00  0.00    +0.194 C 
ATOM      2  C   UNL     1       1.406  -3.905   2.463  0.00  0.00    +0.078 C 
ATOM      3  C   UNL     1      -0.036  -4.209   2.863  0.00  0.00    +0.020 A 
ATOM      4  C   UNL     1      -0.776  -5.297   2.385  0.00  0.00    +0.086 A 
ATOM      5  C   UNL     1      -2.106  -5.420   2.882  0.00  0.00    +0.044 A 
ATOM      6  C   UNL     1      -2.972  -6.422   2.528  0.00  0.00    -0.014 A 
ATOM      7  C   UNL     1      -2.452  -7.358   1.609  0.00  0.00    +0.095 A 
ATOM      8  C   UNL     1      -1.136  -7.207   1.136  0.00  0.00    +0.135 A 
ATOM      9  N   UNL     1      -0.332  -6.227   1.500  0.00  0.00    -0.230 NA
ATOM     10  C   UNL     1      -4.371  -6.517   3.080  0.00  0.00    +0.046 C 
ATOM     11  S   UNL     1      -2.275  -4.039   3.970  0.00  0.00    -0.067 S 
ATOM     12  C   UNL     1      -0.654  -3.358   3.754  0.00  0.00    +0.111 A 
ATOM     13  N   UNL     1      -0.090  -2.261   4.296  0.00  0.00    -0.209 NA
ATOM     14  C   UNL     1       1.007  -1.797   3.764  0.00  0.00    +0.203 C 
ENDROOT
BRANCH   2  15
ATOM     15  C   UNL     1       1.664  -4.401   1.063  0.00  0.00    -0.020 A 
ATOM     16  C   UNL     1       2.823  -5.098   0.779  0.00  0.00    +0.006 A 
ATOM     17  C   UNL     1       3.059  -5.553  -0.505  0.00  0.00    +0.000 A 
ATOM     18  C   UNL     1       2.136  -5.310  -1.506  0.00  0.00    +0.001 A 
ATOM     19  C   UNL     1       0.977  -4.613  -1.222  0.00  0.00    +0.020 A 
ATOM     20  C   UNL     1       0.737  -4.163   0.064  0.00  0.00    +0.045 A 
ATOM     21 CL   UNL     1      -0.722  -3.293   0.422  0.00  0.00    -0.083 Cl
ENDBRANCH   2  15
BRANCH   8  22
ATOM     22  N   UNL     1      -0.656  -8.142   0.233  0.00  0.00    -0.342 N 
ATOM     23  H   UNL     1      -1.224  -8.874  -0.055  0.00  0.00    +0.144 HD
ATOM     24  H   UNL     1       0.247  -8.065  -0.112  0.00  0.00    +0.144 HD
ENDBRANCH   8  22
BRANCH   1  25
ATOM     25  C   UNL     1       0.945  -1.765   1.315  0.00  0.00    +0.320 C 
ATOM     26  O   UNL     1       1.345  -2.026   0.205  0.00  0.00    -0.250 OA
BRANCH  25  27
ATOM     27  O   UNL     1      -0.084  -0.919   1.476  0.00  0.00    -0.464 OA
BRANCH  27  29
ATOM     28  C   UNL     1      -1.810   0.569   0.672  0.00  0.00    +0.048 C 
ATOM     29  C   UNL     1      -0.659  -0.364   0.291  0.00  0.00    +0.229 C 
ENDBRANCH  27  29
ENDBRANCH  25  27
ENDBRANCH   1  25
BRANCH   7  30
ATOM     30  C   UNL     1      -3.259  -8.454   1.161  0.00  0.00    +0.103 C 
ATOM     31  N   UNL     1      -3.898  -9.322   0.805  0.00  0.00    -0.191 NA
ENDBRANCH   7  30
BRANCH  14  32
ATOM     32  O   UNL     1       1.624  -0.753   4.351  0.00  0.00    -0.495 OA
ATOM     33  H   UNL     1       1.180  -0.429   5.146  0.00  0.00    +0.293 HD
ENDBRANCH  14  32
TORSDOF 7
