REMARK  Name = ZINC01213734
REMARK  6 active torsions:
REMARK  status: ('A' for Active; 'I' for Inactive)
REMARK    1  A    between atoms: C_1  and  C_2
REMARK    2  A    between atoms: C_2  and  C_3
REMARK    3  A    between atoms: C_6  and  N_9
REMARK    4  A    between atoms: C_10  and  C_12
REMARK    5  A    between atoms: C_17  and  C_30
REMARK    6  A    between atoms: C_20  and  C_23
REMARK                            x       y       z     vdW  Elec       q    Type
REMARK                         _______ _______ _______ _____ _____    ______ ____
ROOT
ATOM      1  C   UNL     1      -7.416  -2.510  -1.097  0.00  0.00    +0.149 A 
ATOM      2  C   UNL     1      -8.241  -2.695  -2.230  0.00  0.00    +0.078 A 
ATOM      3  C   UNL     1      -9.460  -3.063  -1.791  0.00  0.00    +0.119 A 
ATOM      4  N   UNL     1      -9.424  -3.111  -0.426  0.00  0.00    -0.238 N 
ATOM      5  N   UNL     1      -8.135  -2.768  -0.019  0.00  0.00    -0.164 NA
ATOM      6  C   UNL     1     -10.576  -3.471   0.406  0.00  0.00    +0.215 C 
ATOM      7  C   UNL     1     -11.856  -3.299  -0.419  0.00  0.00    +0.063 C 
ATOM      8  C   UNL     1     -11.707  -4.010  -1.769  0.00  0.00    +0.104 C 
ATOM      9  N   UNL     1     -10.613  -3.364  -2.521  0.00  0.00    -0.322 N 
ATOM     10  H   UNL     1     -10.691  -3.160  -3.466  0.00  0.00    +0.148 HD
ENDROOT
BRANCH   8  11
ATOM     11  C   UNL     1     -12.995  -3.898  -2.544  0.00  0.00    -0.027 A 
ATOM     12  C   UNL     1     -13.287  -2.737  -3.235  0.00  0.00    +0.007 A 
ATOM     13  C   UNL     1     -14.467  -2.634  -3.946  0.00  0.00    +0.020 A 
ATOM     14  C   UNL     1     -15.357  -3.694  -3.967  0.00  0.00    +0.041 A 
ATOM     15  C   UNL     1     -15.063  -4.856  -3.276  0.00  0.00    +0.020 A 
ATOM     16  C   UNL     1     -13.880  -4.960  -2.569  0.00  0.00    +0.007 A 
ATOM     17 CL   UNL     1     -16.840  -3.566  -4.860  0.00  0.00    -0.084 Cl
ENDBRANCH   8  11
BRANCH   1  19
ATOM     18  N   UNL     1      -5.320  -1.968   0.042  0.00  0.00    -0.280 N 
ATOM     19  C   UNL     1      -5.996  -2.104  -1.115  0.00  0.00    +0.268 C 
ATOM     20  O   UNL     1      -5.438  -1.893  -2.174  0.00  0.00    -0.268 OA
ATOM     21  H   UNL     1      -5.741  -2.209   0.882  0.00  0.00    +0.155 HD
BRANCH  18  25
ATOM     22  C   UNL     1      -1.419  -0.507   0.015  0.00  0.00    -0.048 A 
ATOM     23  C   UNL     1      -2.333  -0.050  -0.916  0.00  0.00    +0.005 A 
ATOM     24  C   UNL     1      -3.627  -0.532  -0.910  0.00  0.00    +0.023 A 
ATOM     25  C   UNL     1      -4.010  -1.478   0.033  0.00  0.00    +0.034 A 
ATOM     26  C   UNL     1      -3.089  -1.935   0.967  0.00  0.00    +0.023 A 
ATOM     27  C   UNL     1      -1.795  -1.452   0.952  0.00  0.00    +0.005 A 
BRANCH  22  29
ATOM     28  C   UNL     1       0.858  -0.853  -0.904  0.00  0.00    +0.009 C 
ATOM     29  C   UNL     1      -0.007   0.021   0.005  0.00  0.00    +0.032 C 
ENDBRANCH  22  29
ENDBRANCH  18  25
ENDBRANCH   1  19
BRANCH   6  30
ATOM     30  C   UNL     1     -10.627  -2.559   1.633  0.00  0.00    +0.412 C 
ATOM     31  F   UNL     1     -10.750  -1.228   1.220  0.00  0.00    -0.168 F 
ATOM     32  F   UNL     1     -11.727  -2.905   2.425  0.00  0.00    -0.168 F 
ATOM     33  F   UNL     1      -9.451  -2.710   2.376  0.00  0.00    -0.168 F 
ENDBRANCH   6  30
TORSDOF 5
