REMARK  Name = ZINC09909393
REMARK  5 active torsions:
REMARK  status: ('A' for Active; 'I' for Inactive)
REMARK    1  A    between atoms: C_1  and  C_2
REMARK    2  A    between atoms: C_9  and  N_14
REMARK    3  A    between atoms: N_14  and  C_15
REMARK    4  A    between atoms: C_15  and  C_16
REMARK    5  A    between atoms: C_22  and  C_27
REMARK                            x       y       z     vdW  Elec       q    Type
REMARK                         _______ _______ _______ _____ _____    ______ ____
ROOT
ATOM      1  C   UNL     1      -5.375   0.994  -3.039  0.00  0.00    +0.128 A 
ATOM      2  N   UNL     1      -4.272   1.760  -3.245  0.00  0.00    -0.309 N 
ATOM      3  H   UNL     1      -4.190   2.263  -4.071  0.00  0.00    +0.170 HD
ATOM      4  C   UNL     1      -3.291   1.833  -2.327  0.00  0.00    +0.260 A 
ATOM      5  O   UNL     1      -2.307   2.525  -2.528  0.00  0.00    -0.267 OA
ATOM      6  C   UNL     1      -3.420   1.088  -1.112  0.00  0.00    +0.080 A 
ATOM      7  C   UNL     1      -2.505   1.003   0.020  0.00  0.00    +0.005 A 
ATOM      8  C   UNL     1      -2.840   0.218   1.072  0.00  0.00    +0.056 A 
ATOM      9  S   UNL     1      -4.424  -0.450   0.599  0.00  0.00    -0.076 S 
ATOM     10  C   UNL     1      -4.593   0.326  -0.988  0.00  0.00    +0.116 A 
ATOM     11  N   UNL     1      -5.521   0.302  -1.941  0.00  0.00    -0.225 NA
ENDROOT
BRANCH   7  12
ATOM     12  C   UNL     1      -1.229   1.758   0.017  0.00  0.00    +0.002 A 
ATOM     13  C   UNL     1      -0.013   1.076   0.008  0.00  0.00    +0.010 A 
ATOM     14  C   UNL     1       1.172   1.783   0.000  0.00  0.00    +0.001 A 
ATOM     15  C   UNL     1       1.156   3.167   0.007  0.00  0.00    +0.001 A 
ATOM     16  C   UNL     1      -0.047   3.849   0.022  0.00  0.00    +0.020 A 
ATOM     17  C   UNL     1      -1.240   3.153   0.029  0.00  0.00    +0.049 A 
ATOM     18 CL   UNL     1      -2.748   4.011   0.047  0.00  0.00    -0.083 Cl
ENDBRANCH   7  12
BRANCH   1  19
ATOM     19  C   UNL     1      -6.448   0.942  -4.096  0.00  0.00    +0.176 C 
BRANCH  19  20
ATOM     20  N   UNL     1      -7.528   0.058  -3.651  0.00  0.00    -0.337 N 
ATOM     21  H   UNL     1      -7.470  -0.383  -2.788  0.00  0.00    +0.147 HD
BRANCH  20  29
ATOM     22  C   UNL     1     -13.916  -2.018  -7.492  0.00  0.00    +0.062 C 
ATOM     23  C   UNL     1     -12.543  -2.061  -6.817  0.00  0.00    +0.256 C 
ATOM     24  C   UNL     1     -12.706  -2.462  -5.373  0.00  0.00    +0.258 C 
ATOM     25  O   UNL     1     -13.635  -3.167  -5.038  0.00  0.00    -0.271 OA
ATOM     26  N   UNL     1     -11.814  -2.034  -4.454  0.00  0.00    -0.279 N 
ATOM     27  C   UNL     1     -10.769  -1.192  -4.861  0.00  0.00    +0.077 A 
ATOM     28  C   UNL     1      -9.665  -0.993  -4.050  0.00  0.00    +0.050 A 
ATOM     29  C   UNL     1      -8.644  -0.150  -4.469  0.00  0.00    +0.029 A 
ATOM     30  C   UNL     1      -8.726   0.481  -5.704  0.00  0.00    +0.026 A 
ATOM     31  C   UNL     1      -9.827   0.278  -6.516  0.00  0.00    +0.049 A 
ATOM     32  C   UNL     1     -10.849  -0.557  -6.100  0.00  0.00    +0.143 A 
ATOM     33  O   UNL     1     -11.936  -0.768  -6.891  0.00  0.00    -0.478 OA
ATOM     34  H   UNL     1     -11.894  -2.304  -3.526  0.00  0.00    +0.155 HD
ENDBRANCH  20  29
ENDBRANCH  19  20
ENDBRANCH   1  19
TORSDOF 4
