REMARK  Name = ZINC12498265
REMARK  9 active torsions:
REMARK  status: ('A' for Active; 'I' for Inactive)
REMARK    1  A    between atoms: C_1  and  C_2
REMARK    2  A    between atoms: C_7  and  C_8
REMARK    3  A    between atoms: N_16  and  C_19
REMARK    4  A    between atoms: C_23  and  C_25
REMARK    5  A    between atoms: C_25  and  C_27
REMARK    6  A    between atoms: C_28  and  C_29
REMARK    7  A    between atoms: C_28  and  C_35
REMARK    8  A    between atoms: C_35  and  O_37
REMARK    9  A    between atoms: O_37  and  C_38
REMARK                            x       y       z     vdW  Elec       q    Type
REMARK                         _______ _______ _______ _____ _____    ______ ____
ROOT
ATOM      1  C   UNL     1       0.691  -1.466   1.804  0.00  0.00    -0.026 C 
ATOM      2  C   UNL     1      -0.655  -1.962   1.334  0.00  0.00    +0.078 C 
ATOM      3  C   UNL     1      -1.232  -0.582   0.823  0.00  0.00    +0.090 C 
ATOM      4  C   UNL     1      -2.608  -0.980   0.552  0.00  0.00    +0.229 C 
ATOM      5  O   UNL     1      -3.327  -0.591  -0.343  0.00  0.00    -0.275 OA
ATOM      6  N   UNL     1      -2.912  -1.892   1.532  0.00  0.00    -0.210 N 
ATOM      7  C   UNL     1      -1.799  -2.346   2.191  0.00  0.00    +0.229 C 
ATOM      8  O   UNL     1      -1.761  -2.936   3.249  0.00  0.00    -0.275 OA
ATOM      9  C   UNL     1      -0.112  -0.105  -0.029  0.00  0.00    +0.070 C 
ATOM     10  N   UNL     1       1.113  -0.590   0.669  0.00  0.00    +0.398 N 
ATOM     11  H   UNL     1       1.696  -1.125   0.015  0.00  0.00    -0.083 HD
ATOM     12  H   UNL     1       1.647   0.210   1.028  0.00  0.00    -0.083 HD
ENDROOT
BRANCH   1  19
ATOM     13  C   UNL     1       3.259  -1.014   3.049  0.00  0.00    +0.044 C 
ATOM     14  C   UNL     1       2.879  -2.397   2.587  0.00  0.00    -0.049 A 
ATOM     15  C   UNL     1       3.759  -3.449   2.759  0.00  0.00    +0.003 A 
ATOM     16  C   UNL     1       3.410  -4.718   2.335  0.00  0.00    +0.000 A 
ATOM     17  C   UNL     1       2.181  -4.934   1.740  0.00  0.00    +0.000 A 
ATOM     18  C   UNL     1       1.299  -3.883   1.573  0.00  0.00    +0.002 A 
ATOM     19  C   UNL     1       1.650  -2.613   1.991  0.00  0.00    -0.058 A 
ENDBRANCH   1  19
BRANCH   6  20
ATOM     20  C   UNL     1      -4.217  -2.312   1.827  0.00  0.00    +0.045 A 
ATOM     21  C   UNL     1      -5.291  -1.796   1.112  0.00  0.00    +0.024 A 
ATOM     22  C   UNL     1      -6.580  -2.211   1.394  0.00  0.00    +0.003 A 
ATOM     23  C   UNL     1      -6.810  -3.132   2.394  0.00  0.00    +0.011 A 
ATOM     24  C   UNL     1      -5.737  -3.654   3.124  0.00  0.00    +0.019 A 
ATOM     25  C   UNL     1      -4.435  -3.238   2.834  0.00  0.00    +0.035 A 
BRANCH  24  26
ATOM     26  C   UNL     1      -5.979  -4.636   4.193  0.00  0.00    +0.160 C 
ATOM     27  O   UNL     1      -5.046  -5.087   4.824  0.00  0.00    -0.292 OA
ATOM     28  C   UNL     1      -7.384  -5.083   4.503  0.00  0.00    +0.091 C 
ENDBRANCH  24  26
ENDBRANCH   6  20
BRANCH   9  29
ATOM     29  C   UNL     1      -0.118   1.400  -0.111  0.00  0.00    -0.047 A 
ATOM     30  C   UNL     1      -1.314   2.091  -0.056  0.00  0.00    +0.003 A 
ATOM     31  C   UNL     1      -1.318   3.471  -0.126  0.00  0.00    +0.000 A 
ATOM     32  C   UNL     1      -0.128   4.161  -0.261  0.00  0.00    +0.000 A 
ATOM     33  C   UNL     1       1.068   3.469  -0.321  0.00  0.00    +0.000 A 
ATOM     34  C   UNL     1       1.073   2.089  -0.246  0.00  0.00    +0.003 A 
ENDBRANCH   9  29
BRANCH   9  35
ATOM     35  C   UNL     1      -0.209  -0.705  -1.408  0.00  0.00    +0.301 C 
ATOM     36  O   UNL     1      -1.283  -1.041  -1.847  0.00  0.00    -0.252 OA
BRANCH  35  37
ATOM     37  O   UNL     1       0.899  -0.867  -2.149  0.00  0.00    -0.469 OA
ATOM     38  C   UNL     1       0.731  -1.452  -3.467  0.00  0.00    +0.280 C 
ENDBRANCH  35  37
ENDBRANCH   9  35
TORSDOF 6
