REMARK  Name = ZINC27533835
REMARK  9 active torsions:
REMARK  status: ('A' for Active; 'I' for Inactive)
REMARK    1  A    between atoms: C_1  and  C_2
REMARK    2  A    between atoms: C_2  and  C_3
REMARK    3  A    between atoms: C_3  and  C_4
REMARK    4  A    between atoms: C_10  and  C_11
REMARK    5  A    between atoms: C_16  and  O_17
REMARK    6  A    between atoms: O_17  and  C_18
REMARK    7  A    between atoms: C_18  and  C_19
REMARK    8  A    between atoms: C_19  and  O_20
REMARK    9  A    between atoms: O_20  and  C_21
REMARK                            x       y       z     vdW  Elec       q    Type
REMARK                         _______ _______ _______ _____ _____    ______ ____
ROOT
ATOM      1  C   UNL     1       1.136  -8.684   1.169  0.00  0.00    +0.017 A 
ATOM      2  C   UNL     1       1.710  -9.114  -0.035  0.00  0.00    +0.011 A 
ATOM      3  C   UNL     1       2.254 -10.375  -0.123  0.00  0.00    +0.001 A 
ATOM      4  C   UNL     1       2.237 -11.224   0.973  0.00  0.00    +0.004 A 
ATOM      5  C   UNL     1       1.675 -10.815   2.167  0.00  0.00    +0.046 A 
ATOM      6  C   UNL     1       1.127  -9.547   2.280  0.00  0.00    +0.128 A 
ENDROOT
BRANCH   1  13
ATOM      7  C   UNL     1      -0.812  -3.087  -2.600  0.00  0.00    +0.100 C 
ATOM      8  N   UNL     1      -0.667  -3.511  -1.377  0.00  0.00    -0.169 NA
ATOM      9  N   UNL     1      -0.703  -4.856  -1.077  0.00  0.00    -0.152 N 
ATOM     10  C   UNL     1      -0.647  -5.415   0.217  0.00  0.00    +0.153 C 
ATOM     11  N   UNL     1      -0.970  -4.756   1.298  0.00  0.00    -0.283 NA
ATOM     12  C   UNL     1      -0.184  -6.832   0.230  0.00  0.00    +0.081 C 
ATOM     13  C   UNL     1       0.555  -7.344   1.272  0.00  0.00    +0.028 C 
ATOM     14  C   UNL     1      -0.562  -7.661  -0.942  0.00  0.00    +0.273 C 
ATOM     15  O   UNL     1      -0.647  -8.875  -0.851  0.00  0.00    -0.268 OA
ATOM     16  N   UNL     1      -0.809  -7.034  -2.108  0.00  0.00    -0.152 NA
ATOM     17  C   UNL     1      -0.834  -5.725  -2.140  0.00  0.00    +0.181 C 
ATOM     18  S   UNL     1      -1.025  -4.612  -3.507  0.00  0.00    -0.038 S 
ATOM     19  H   UNL     1      -1.267  -3.835   1.234  0.00  0.00    +0.188 HD
BRANCH   7  20
ATOM     20  C   UNL     1      -0.807  -1.671  -3.116  0.00  0.00    +0.064 C 
BRANCH  20  22
ATOM     21  C   UNL     1      -0.585   0.734  -2.476  0.00  0.00    +0.004 C 
ATOM     22  C   UNL     1      -0.589  -0.704  -1.951  0.00  0.00    +0.003 C 
ENDBRANCH  20  22
ENDBRANCH   7  20
ENDBRANCH   1  13
BRANCH   6  23
ATOM     23  O   UNL     1       0.579  -9.143   3.453  0.00  0.00    -0.488 OA
BRANCH  23  24
ATOM     24  C   UNL     1       0.607 -10.075   4.537  0.00  0.00    +0.270 C 
BRANCH  24  25
ATOM     25  C   UNL     1      -0.051  -9.446   5.766  0.00  0.00    +0.270 C 
BRANCH  25  26
ATOM     26  O   UNL     1      -1.436  -9.216   5.500  0.00  0.00    -0.489 OA
BRANCH  26  27
ATOM     27  C   UNL     1      -2.172  -8.657   6.498  0.00  0.00    +0.121 A 
ATOM     28  C   UNL     1      -1.571  -8.332   7.705  0.00  0.00    +0.047 A 
ATOM     29  C   UNL     1      -2.320  -7.765   8.718  0.00  0.00    +0.019 A 
ATOM     30  C   UNL     1      -3.668  -7.521   8.528  0.00  0.00    +0.018 A 
ATOM     31  C   UNL     1      -4.270  -7.844   7.325  0.00  0.00    +0.019 A 
ATOM     32  C   UNL     1      -3.523  -8.406   6.308  0.00  0.00    +0.047 A 
ATOM     33 BR   UNL     1      -4.691  -6.744   9.916  0.00  0.00    -0.050 Br
ENDBRANCH  26  27
ENDBRANCH  25  26
ENDBRANCH  24  25
ENDBRANCH  23  24
ENDBRANCH   6  23
TORSDOF 8
