REMARK  Name = ZINC05350948
REMARK  5 active torsions:
REMARK  status: ('A' for Active; 'I' for Inactive)
REMARK    1  A    between atoms: C_9  and  S_11
REMARK    2  A    between atoms: S_11  and  C_12
REMARK    3  A    between atoms: C_12  and  N_14
REMARK    4  A    between atoms: C_15  and  C_16
REMARK    5  A    between atoms: C_19  and  N_21
REMARK                            x       y       z     vdW  Elec       q    Type
REMARK                         _______ _______ _______ _____ _____    ______ ____
ROOT
ATOM      1  C   UNL     1       5.553  -2.993  -0.067  0.00  0.00    +0.303 C 
ATOM      2  O   UNL     1       5.793  -1.799  -0.064  0.00  0.00    -0.260 OA
ENDROOT
BRANCH   1   3
ATOM      3  N   UNL     1       6.562  -3.881  -0.081  0.00  0.00    -0.175 NA
ATOM      4  C   UNL     1       7.810  -3.460  -0.091  0.00  0.00    +0.147 C 
BRANCH   4   5
ATOM      5  C   UNL     1       8.868  -4.391  -0.106  0.00  0.00    +0.146 A 
ATOM      6  C   UNL     1      10.219  -4.091  -0.112  0.00  0.00    +0.053 A 
ATOM      7  C   UNL     1      10.898  -5.316  -0.126  0.00  0.00    +0.076 A 
ATOM      8  C   UNL     1       9.962  -6.294  -0.128  0.00  0.00    +0.280 A 
ATOM      9  O   UNL     1       8.746  -5.736  -0.110  0.00  0.00    -0.433 OA
BRANCH   8  10
ATOM     10  N   UNL     1      10.240  -7.748  -0.142  0.00  0.00    +0.093 N 
ATOM     11  O   UNL     1      11.382  -8.145  -0.153  0.00  0.00    -0.123 OA
ATOM     12  O   UNL     1       9.325  -8.538  -0.143  0.00  0.00    -0.123 OA
ENDBRANCH   8  10
ENDBRANCH   4   5
ENDBRANCH   1   3
BRANCH   1  13
ATOM     13  S   UNL     1       3.884  -3.557  -0.053  0.00  0.00    +0.008 S 
BRANCH  13  22
ATOM     14  C   UNL     1      -0.017   1.375   0.010  0.00  0.00    +0.002 A 
ATOM     15  C   UNL     1       1.170   2.094   0.002  0.00  0.00    +0.002 A 
ATOM     16  C   UNL     1       2.382   1.442  -0.013  0.00  0.00    +0.030 A 
ATOM     17  C   UNL     1       2.419   0.045  -0.021  0.00  0.00    +0.090 A 
ATOM     18  C   UNL     1       1.214  -0.678  -0.013  0.00  0.00    +0.067 A 
ATOM     19  C   UNL     1       0.002  -0.004   0.002  0.00  0.00    +0.028 A 
ATOM     20  N   UNL     1       1.569  -2.016  -0.024  0.00  0.00    -0.333 N 
ATOM     21  H   UNL     1       0.961  -2.772  -0.022  0.00  0.00    +0.168 HD
ATOM     22  C   UNL     1       2.933  -2.074  -0.037  0.00  0.00    +0.176 A 
ATOM     23  N   UNL     1       3.429  -0.862  -0.036  0.00  0.00    -0.222 NA
ENDBRANCH  13  22
ENDBRANCH   1  13
TORSDOF 5
