REMARK  Name = ZINC20732819
REMARK  8 active torsions:
REMARK  status: ('A' for Active; 'I' for Inactive)
REMARK    1  A    between atoms: C_1  and  N_2
REMARK    2  A    between atoms: N_2  and  C_3
REMARK    3  A    between atoms: N_2  and  C_22
REMARK    4  A    between atoms: C_3  and  C_4
REMARK    5  A    between atoms: C_4  and  C_5
REMARK    6  A    between atoms: C_5  and  N_6
REMARK    7  A    between atoms: C_7  and  C_9
REMARK    8  A    between atoms: C_9  and  C_10
REMARK                            x       y       z     vdW  Elec       q    Type
REMARK                         _______ _______ _______ _____ _____    ______ ____
ROOT
ATOM      1  N   UNL     1       5.900   0.977   1.731  0.00  0.00    -0.315 N 
ATOM      2  C   UNL     1       6.834   0.491   2.573  0.00  0.00    +0.215 C 
ATOM      3  O   UNL     1       6.506  -0.234   3.488  0.00  0.00    -0.276 OA
ATOM      4  H   UNL     1       6.198   1.635   0.901  0.00  0.00    +0.149 HD
ENDROOT
BRANCH   1   5
ATOM      5  C   UNL     1       4.490   0.629   1.921  0.00  0.00    +0.102 C 
BRANCH   5   6
ATOM      6  C   UNL     1       3.647   1.307   0.839  0.00  0.00    +0.000 C 
BRANCH   6   7
ATOM      7  C   UNL     1       2.174   0.944   1.037  0.00  0.00    -0.077 C 
BRANCH   7   9
ATOM      8  C   UNL     1       1.389   3.055   0.150  0.00  0.00    -0.096 C 
ATOM      9  N   UNL     1       1.365   1.594  -0.002  0.00  0.00    +0.380 N 
ATOM     10  H   UNL     1       1.809   1.349  -0.979  0.00  0.00    -0.082 HD
BRANCH   9  11
ATOM     11  C   UNL     1      -0.013   1.086   0.008  0.00  0.00    -0.069 C 
ATOM     12  C   UNL     1      -0.729   1.579   1.267  0.00  0.00    -0.015 C 
ATOM     13  C   UNL     1      -2.164   1.050   1.278  0.00  0.00    -0.002 C 
ATOM     14  C   UNL     1      -2.904   1.556   0.038  0.00  0.00    -0.000 C 
ATOM     15  C   UNL     1      -2.188   1.063  -1.221  0.00  0.00    -0.002 C 
ATOM     16  C   UNL     1      -0.753   1.593  -1.232  0.00  0.00    -0.015 C 
ENDBRANCH   9  11
ENDBRANCH   7   9
ENDBRANCH   6   7
ENDBRANCH   5   6
ENDBRANCH   1   5
BRANCH   2  17
ATOM     17  C   UNL     1       8.284   0.849   2.378  0.00  0.00    +0.127 C 
BRANCH  17  18
ATOM     18  C   UNL     1       9.127   0.171   3.461  0.00  0.00    +0.166 C 
ATOM     19  C   UNL     1      10.561   0.621   3.339  0.00  0.00    +0.238 C 
ATOM     20  O   UNL     1      10.940   1.592   3.959  0.00  0.00    -0.273 OA
ATOM     21  N   UNL     1      11.425  -0.044   2.550  0.00  0.00    -0.282 N 
ATOM     22  C   UNL     1      11.055  -1.242   1.929  0.00  0.00    +0.055 A 
ATOM     23  C   UNL     1      11.871  -1.823   0.972  0.00  0.00    +0.025 A 
ATOM     24  C   UNL     1      11.488  -3.005   0.365  0.00  0.00    +0.002 A 
ATOM     25  C   UNL     1      10.297  -3.615   0.713  0.00  0.00    +0.002 A 
ATOM     26  C   UNL     1       9.481  -3.049   1.676  0.00  0.00    +0.025 A 
ATOM     27  C   UNL     1       9.861  -1.868   2.291  0.00  0.00    +0.049 A 
ATOM     28  N   UNL     1       9.065  -1.288   3.291  0.00  0.00    -0.331 N 
ATOM     29  H   UNL     1      12.438   0.353   2.387  0.00  0.00    +0.155 HD
ATOM     30  H   UNL     1       8.409  -1.889   3.938  0.00  0.00    +0.147 HD
ENDBRANCH  17  18
ENDBRANCH   2  17
TORSDOF 7
