REMARK  Name = ZINC67591562
REMARK  11 active torsions:
REMARK  status: ('A' for Active; 'I' for Inactive)
REMARK    1  A    between atoms: C_1  and  C_2
REMARK    2  A    between atoms: C_6  and  C_25
REMARK    3  A    between atoms: C_7  and  O_8
REMARK    4  A    between atoms: O_8  and  C_9
REMARK    5  A    between atoms: C_9  and  C_10
REMARK    6  A    between atoms: C_10  and  C_12
REMARK    7  A    between atoms: C_10  and  O_24
REMARK    8  A    between atoms: C_12  and  N_13
REMARK    9  A    between atoms: N_16  and  C_17
REMARK   10  A    between atoms: C_17  and  C_18
REMARK   11  A    between atoms: C_21  and  C_23
REMARK                            x       y       z     vdW  Elec       q    Type
REMARK                         _______ _______ _______ _____ _____    ______ ____
ROOT
ATOM      1  C   UNL     1      -2.401   1.456   4.828  0.00  0.00    +0.140 C 
ENDROOT
BRANCH   1   2
ATOM      2  N   UNL     1      -2.201   2.278   6.025  0.00  0.00    -0.297 N 
ATOM      3  C   UNL     1      -3.264   2.776   6.686  0.00  0.00    +0.300 C 
ATOM      4  O   UNL     1      -4.390   2.543   6.291  0.00  0.00    -0.253 OA
ATOM      5  N   UNL     1      -3.079   3.532   7.787  0.00  0.00    -0.295 N 
ATOM      6  H   UNL     1      -1.302   2.464   6.340  0.00  0.00    +0.150 HD
ATOM      7  H   UNL     1      -2.181   3.717   8.103  0.00  0.00    +0.151 HD
BRANCH   5   8
ATOM      8  C   UNL     1      -4.235   4.073   8.506  0.00  0.00    +0.148 C 
BRANCH   8   9
ATOM      9  C   UNL     1      -3.760   4.875   9.690  0.00  0.00    +0.007 A 
ATOM     10  C   UNL     1      -3.464   6.196   9.762  0.00  0.00    +0.013 A 
ATOM     11  C   UNL     1      -3.041   6.723  10.968  0.00  0.00    +0.011 A 
ATOM     12  C   UNL     1      -2.935   5.904  12.043  0.00  0.00    -0.013 A 
ATOM     13  S   UNL     1      -3.447   4.335  11.363  0.00  0.00    -0.097 S 
ATOM     14  C   UNL     1      -2.502   6.233  13.448  0.00  0.00    +0.051 C 
ENDBRANCH   8   9
ENDBRANCH   5   8
ENDBRANCH   1   2
BRANCH   1  15
ATOM     15  C   UNL     1      -1.043   1.022   4.274  0.00  0.00    +0.169 C 
BRANCH  15  16
ATOM     16  O   UNL     1      -0.396   0.166   5.217  0.00  0.00    -0.387 OA
ATOM     17  H   UNL     1      -0.891  -0.639   5.421  0.00  0.00    +0.210 HD
ENDBRANCH  15  16
BRANCH  15  18
ATOM     18  C   UNL     1      -1.246   0.270   2.957  0.00  0.00    +0.261 C 
BRANCH  18  19
ATOM     19  O   UNL     1       0.025  -0.033   2.381  0.00  0.00    -0.489 OA
BRANCH  19  26
ATOM     20  C   UNL     1      -0.018   1.503   0.010  0.00  0.00    +0.047 C 
ATOM     21  C   UNL     1       0.002  -0.004   0.002  0.00  0.00    -0.009 A 
ATOM     22  C   UNL     1       0.006  -0.689  -1.198  0.00  0.00    +0.007 A 
ATOM     23  C   UNL     1       0.024  -2.071  -1.206  0.00  0.00    +0.001 A 
ATOM     24  C   UNL     1       0.040  -2.772  -0.014  0.00  0.00    +0.007 A 
ATOM     25  C   UNL     1       0.036  -2.092   1.188  0.00  0.00    -0.009 A 
ATOM     26  C   UNL     1       0.023  -0.705   1.199  0.00  0.00    +0.126 A 
ATOM     27  C   UNL     1       0.052  -2.856   2.487  0.00  0.00    +0.047 C 
ENDBRANCH  19  26
ENDBRANCH  18  19
ENDBRANCH  15  18
ENDBRANCH   1  15
TORSDOF 8
