REMARK  Name = ZINC60154746
REMARK  12 active torsions:
REMARK  status: ('A' for Active; 'I' for Inactive)
REMARK    1  A    between atoms: C_1  and  C_2
REMARK    2  A    between atoms: C_2  and  C_4
REMARK    3  A    between atoms: C_2  and  N_18
REMARK    4  A    between atoms: C_12  and  C_14
REMARK    5  A    between atoms: C_14  and  C_15
REMARK    6  A    between atoms: C_14  and  C_16
REMARK    7  A    between atoms: C_14  and  C_17
REMARK    8  A    between atoms: C_19  and  O_21
REMARK    9  A    between atoms: O_21  and  C_22
REMARK   10  A    between atoms: C_22  and  C_23
REMARK   11  A    between atoms: C_22  and  C_24
REMARK   12  A    between atoms: C_22  and  C_25
REMARK                            x       y       z     vdW  Elec       q    Type
REMARK                         _______ _______ _______ _____ _____    ______ ____
ROOT
ATOM      1  C   UNL     1      -1.663  -1.681   0.476  0.00  0.00    +0.236 C 
ATOM      2  O   UNL     1      -2.151  -2.333   1.375  0.00  0.00    -0.274 OA
ATOM      3  N   UNL     1      -2.437  -1.241  -0.535  0.00  0.00    -0.297 N 
ATOM      4  C   UNL     1      -1.842  -0.547  -1.686  0.00  0.00    +0.127 C 
ATOM      5  C   UNL     1      -2.258  -1.280  -2.968  0.00  0.00    +0.127 C 
ATOM      6  N   UNL     1      -3.712  -1.486  -2.941  0.00  0.00    -0.298 N 
ATOM      7  C   UNL     1      -4.308  -2.180  -1.790  0.00  0.00    +0.127 C 
ATOM      8  C   UNL     1      -3.891  -1.453  -0.510  0.00  0.00    +0.127 C 
ATOM      9  C   UNL     1      -4.487  -1.047  -3.952  0.00  0.00    +0.221 C 
ATOM     10  O   UNL     1      -4.000  -0.393  -4.849  0.00  0.00    -0.275 OA
ENDROOT
BRANCH   9  11
ATOM     11  C   UNL     1      -5.959  -1.369  -3.969  0.00  0.00    +0.039 C 
ATOM     12  C   UNL     1      -6.575  -0.874  -5.279  0.00  0.00    +0.020 C 
ATOM     13  C   UNL     1      -6.152  -2.883  -3.854  0.00  0.00    +0.020 C 
ATOM     14  C   UNL     1      -6.646  -0.677  -2.789  0.00  0.00    +0.020 C 
ENDBRANCH   9  11
BRANCH   1  16
ATOM     15  C   UNL     1       0.018   0.065   1.004  0.00  0.00    +0.038 C 
ATOM     16  C   UNL     1      -0.190  -1.361   0.491  0.00  0.00    +0.159 C 
BRANCH  16  17
ATOM     17  N   UNL     1       0.505  -2.303   1.372  0.00  0.00    -0.270 N 
ATOM     18  C   UNL     1       1.814  -2.563   1.182  0.00  0.00    +0.401 C 
ATOM     19  O   UNL     1       2.417  -2.016   0.280  0.00  0.00    -0.226 OA
ATOM     20  H   UNL     1       0.024  -2.740   2.092  0.00  0.00    +0.153 HD
BRANCH  18  21
ATOM     21  O   UNL     1       2.453  -3.429   1.991  0.00  0.00    -0.445 OA
BRANCH  21  22
ATOM     22  C   UNL     1       3.840  -3.657   1.732  0.00  0.00    +0.107 C 
ATOM     23  C   UNL     1       4.605  -2.338   1.855  0.00  0.00    +0.055 C 
ATOM     24  C   UNL     1       4.389  -4.662   2.746  0.00  0.00    +0.055 C 
ATOM     25  C   UNL     1       4.009  -4.215   0.318  0.00  0.00    +0.055 C 
ENDBRANCH  21  22
ENDBRANCH  18  21
ENDBRANCH  16  17
ENDBRANCH   1  16
TORSDOF 5
