REMARK  Name = ZINC35278192
REMARK  10 active torsions:
REMARK  status: ('A' for Active; 'I' for Inactive)
REMARK    1  A    between atoms: C_1  and  C_2
REMARK    2  A    between atoms: C_2  and  C_3
REMARK    3  A    between atoms: C_3  and  C_4
REMARK    4  A    between atoms: C_4  and  N_5
REMARK    5  A    between atoms: N_5  and  C_6
REMARK    6  A    between atoms: C_6  and  C_7
REMARK    7  A    between atoms: N_11  and  C_12
REMARK    8  A    between atoms: C_13  and  C_15
REMARK    9  A    between atoms: C_15  and  C_16
REMARK   10  A    between atoms: C_15  and  C_22
REMARK                            x       y       z     vdW  Elec       q    Type
REMARK                         _______ _______ _______ _____ _____    ______ ____
ROOT
ATOM      1  N   UNL     1       1.086  -1.469  -2.419  0.00  0.00    -0.295 N 
ATOM      2  C   UNL     1       0.684  -2.266  -3.429  0.00  0.00    +0.228 C 
ATOM      3  O   UNL     1       1.499  -2.718  -4.206  0.00  0.00    -0.275 OA
ENDROOT
BRANCH   1   4
ATOM      4  C   UNL     1       0.122  -1.024  -1.410  0.00  0.00    +0.108 C 
BRANCH   4   5
ATOM      5  C   UNL     1      -0.602   0.227  -1.913  0.00  0.00    +0.019 C 
BRANCH   5   7
ATOM      6  C   UNL     1      -2.332   1.943  -1.364  0.00  0.00    +0.004 C 
ATOM      7  C   UNL     1      -1.609   0.693  -0.860  0.00  0.00    -0.002 C 
ENDBRANCH   5   7
ENDBRANCH   4   5
ENDBRANCH   1   4
BRANCH   1   8
ATOM      8  C   UNL     1       2.487  -1.050  -2.329  0.00  0.00    +0.161 C 
BRANCH   8   9
ATOM      9  C   UNL     1       3.260  -2.052  -1.512  0.00  0.00    +0.036 A 
ATOM     10  C   UNL     1       3.976  -3.086  -1.999  0.00  0.00    +0.024 A 
ATOM     11  C   UNL     1       4.535  -3.767  -0.900  0.00  0.00    +0.019 A 
ATOM     12  C   UNL     1       4.139  -3.124   0.218  0.00  0.00    +0.085 A 
ATOM     13  N   UNL     1       3.361  -2.067  -0.152  0.00  0.00    -0.352 N 
ATOM     14  C   UNL     1       2.735  -1.108   0.761  0.00  0.00    +0.148 C 
ENDBRANCH   8   9
ENDBRANCH   1   8
BRANCH   2  15
ATOM     15  C   UNL     1      -0.777  -2.595  -3.594  0.00  0.00    +0.135 C 
BRANCH  15  16
ATOM     16  C   UNL     1      -0.986  -3.311  -4.904  0.00  0.00    -0.031 A 
ATOM     17  C   UNL     1      -0.431  -4.561  -5.104  0.00  0.00    +0.005 A 
ATOM     18  C   UNL     1      -0.623  -5.218  -6.304  0.00  0.00    +0.000 A 
ATOM     19  C   UNL     1      -1.369  -4.625  -7.305  0.00  0.00    +0.000 A 
ATOM     20  C   UNL     1      -1.925  -3.376  -7.105  0.00  0.00    +0.000 A 
ATOM     21  C   UNL     1      -1.737  -2.720  -5.902  0.00  0.00    +0.005 A 
ENDBRANCH  15  16
BRANCH  15  22
ATOM     22  C   UNL     1      -1.224  -3.480  -2.460  0.00  0.00    -0.031 A 
ATOM     23  C   UNL     1      -2.453  -3.272  -1.864  0.00  0.00    +0.005 A 
ATOM     24  C   UNL     1      -2.863  -4.085  -0.823  0.00  0.00    +0.000 A 
ATOM     25  C   UNL     1      -2.044  -5.106  -0.379  0.00  0.00    +0.000 A 
ATOM     26  C   UNL     1      -0.814  -5.314  -0.976  0.00  0.00    +0.000 A 
ATOM     27  C   UNL     1      -0.406  -4.505  -2.020  0.00  0.00    +0.005 A 
ENDBRANCH  15  22
ENDBRANCH   2  15
TORSDOF 8
