REMARK  Name = ZINC64611197
REMARK  5 active torsions:
REMARK  status: ('A' for Active; 'I' for Inactive)
REMARK    1  A    between atoms: C_1  and  C_2
REMARK    2  A    between atoms: C_5  and  C_28
REMARK    3  A    between atoms: C_6  and  N_8
REMARK    4  A    between atoms: N_11  and  C_12
REMARK    5  A    between atoms: C_13  and  C_21
REMARK                            x       y       z     vdW  Elec       q    Type
REMARK                         _______ _______ _______ _____ _____    ______ ____
ROOT
ATOM      1  C   UNL     1       0.239  -2.048   5.886  0.00  0.00    +0.139 A 
ATOM      2  C   UNL     1       0.261  -2.612   7.144  0.00  0.00    +0.112 A 
ATOM      3  N   UNL     1       0.255  -1.616   8.047  0.00  0.00    -0.226 NA
ATOM      4  C   UNL     1       0.230  -0.454   7.415  0.00  0.00    +0.140 A 
ATOM      5  N   UNL     1       0.226  -0.692   6.060  0.00  0.00    -0.287 N 
ATOM      6  C   UNL     1       0.207   0.351   5.175  0.00  0.00    +0.094 A 
ATOM      7  C   UNL     1       0.197   1.626   5.614  0.00  0.00    +0.018 A 
ATOM      8  C   UNL     1       0.204   1.901   6.993  0.00  0.00    +0.005 A 
ATOM      9  C   UNL     1       0.213   0.876   7.887  0.00  0.00    +0.047 A 
ENDROOT
BRANCH   2  10
ATOM     10  C   UNL     1       0.287  -4.063   7.447  0.00  0.00    +0.004 A 
ATOM     11  C   UNL     1      -0.395  -4.961   6.628  0.00  0.00    +0.013 A 
ATOM     12  C   UNL     1      -0.368  -6.310   6.914  0.00  0.00    +0.039 A 
ATOM     13  C   UNL     1       0.334  -6.773   8.015  0.00  0.00    +0.123 A 
ATOM     14  C   UNL     1       1.013  -5.884   8.833  0.00  0.00    +0.039 A 
ATOM     15  C   UNL     1       0.997  -4.534   8.551  0.00  0.00    +0.013 A 
ATOM     16  F   UNL     1       0.357  -8.095   8.292  0.00  0.00    -0.205 F 
ENDBRANCH   2  10
BRANCH   1  20
ATOM     17  N   UNL     1      -0.734  -3.132   2.582  0.00  0.00    -0.269 N 
ATOM     18  C   UNL     1      -0.648  -2.396   3.708  0.00  0.00    +0.309 C 
ATOM     19  O   UNL     1      -1.370  -1.429   3.858  0.00  0.00    -0.252 OA
ATOM     20  N   UNL     1       0.237  -2.731   4.667  0.00  0.00    -0.253 N 
ATOM     21  H   UNL     1      -0.210  -3.944   2.493  0.00  0.00    +0.156 HD
ATOM     22  H   UNL     1       0.874  -3.446   4.511  0.00  0.00    +0.158 HD
BRANCH  17  28
ATOM     23  C   UNL     1      -3.174   0.453   0.267  0.00  0.00    +0.044 C 
ATOM     24  C   UNL     1      -2.777  -0.995   0.398  0.00  0.00    -0.049 A 
ATOM     25  C   UNL     1      -3.249  -1.925  -0.511  0.00  0.00    +0.004 A 
ATOM     26  C   UNL     1      -2.888  -3.254  -0.395  0.00  0.00    +0.005 A 
ATOM     27  C   UNL     1      -2.054  -3.658   0.630  0.00  0.00    -0.029 A 
ATOM     28  C   UNL     1      -1.579  -2.727   1.543  0.00  0.00    +0.038 A 
ATOM     29  C   UNL     1      -1.939  -1.391   1.421  0.00  0.00    +0.027 A 
ATOM     30  C   UNL     1      -1.662  -5.107   0.756  0.00  0.00    +0.045 C 
ENDBRANCH  17  28
ENDBRANCH   1  20
TORSDOF 3
