REMARK  Name = ZINC00913807
REMARK  13 active torsions:
REMARK  status: ('A' for Active; 'I' for Inactive)
REMARK    1  A    between atoms: C_1  and  C_2
REMARK    2  A    between atoms: C_2  and  O_3
REMARK    3  A    between atoms: O_3  and  C_4
REMARK    4  A    between atoms: C_4  and  C_6
REMARK    5  A    between atoms: C_10  and  S_12
REMARK    6  A    between atoms: S_12  and  N_15
REMARK    7  A    between atoms: N_15  and  C_16
REMARK    8  A    between atoms: N_15  and  C_25
REMARK    9  A    between atoms: C_16  and  C_17
REMARK   10  A    between atoms: C_20  and  O_23
REMARK   11  A    between atoms: O_23  and  C_24
REMARK   12  A    between atoms: C_25  and  C_26
REMARK   13  A    between atoms: C_31  and  C_38
REMARK                            x       y       z     vdW  Elec       q    Type
REMARK                         _______ _______ _______ _____ _____    ______ ____
ROOT
ATOM      1  N   UNL     1      -2.993   0.472   1.545  0.00  0.00    -0.168 NA
ENDROOT
BRANCH   1   2
ATOM      2  S   UNL     1      -2.402   0.917   0.064  0.00  0.00    +0.061 S 
ATOM      3  O   UNL     1      -3.454   1.599  -0.605  0.00  0.00    -0.153 OA
ATOM      4  O   UNL     1      -1.770  -0.232  -0.483  0.00  0.00    -0.153 OA
BRANCH   2   9
ATOM      5  C   UNL     1      -0.450   4.371   0.756  0.00  0.00    +0.061 A 
ATOM      6  C   UNL     1       0.884   3.961   0.783  0.00  0.00    +0.015 A 
ATOM      7  C   UNL     1       1.198   2.631   0.594  0.00  0.00    +0.003 A 
ATOM      8  C   UNL     1       0.193   1.704   0.379  0.00  0.00    +0.028 A 
ATOM      9  C   UNL     1      -1.131   2.105   0.346  0.00  0.00    +0.106 A 
ATOM     10  C   UNL     1      -1.459   3.431   0.539  0.00  0.00    +0.043 A 
BRANCH   5  11
ATOM     11  C   UNL     1      -0.793   5.794   0.957  0.00  0.00    +0.339 C 
ATOM     12  O   UNL     1      -1.955   6.148   0.934  0.00  0.00    -0.245 OA
BRANCH  11  13
ATOM     13  O   UNL     1       0.183   6.699   1.167  0.00  0.00    -0.461 OA
BRANCH  13  15
ATOM     14  C   UNL     1       1.009   8.952   1.580  0.00  0.00    +0.048 C 
ATOM     15  C   UNL     1      -0.227   8.079   1.357  0.00  0.00    +0.229 C 
ENDBRANCH  13  15
ENDBRANCH  11  13
ENDBRANCH   5  11
ENDBRANCH   2   9
ENDBRANCH   1   2
BRANCH   1  16
ATOM     16  C   UNL     1      -4.026   1.282   2.196  0.00  0.00    +0.145 C 
BRANCH  16  17
ATOM     17  C   UNL     1      -5.385   0.711   1.882  0.00  0.00    -0.031 A 
ATOM     18  C   UNL     1      -6.077   1.148   0.768  0.00  0.00    +0.008 A 
ATOM     19  C   UNL     1      -7.320   0.622   0.476  0.00  0.00    +0.046 A 
ATOM     20  C   UNL     1      -7.879  -0.338   1.307  0.00  0.00    +0.120 A 
ATOM     21  C   UNL     1      -7.185  -0.772   2.427  0.00  0.00    +0.046 A 
ATOM     22  C   UNL     1      -5.939  -0.246   2.712  0.00  0.00    +0.008 A 
BRANCH  20  23
ATOM     23  O   UNL     1      -9.104  -0.854   1.024  0.00  0.00    -0.495 OA
ATOM     24  C   UNL     1      -9.761  -0.361  -0.146  0.00  0.00    +0.277 C 
ENDBRANCH  20  23
ENDBRANCH  16  17
ENDBRANCH   1  16
BRANCH   1  25
ATOM     25  C   UNL     1      -2.484  -0.733   2.205  0.00  0.00    +0.150 C 
BRANCH  25  26
ATOM     26  C   UNL     1      -1.751  -0.345   3.463  0.00  0.00    +0.033 A 
ATOM     27  C   UNL     1      -2.405  -0.337   4.651  0.00  0.00    +0.020 A 
ATOM     28  C   UNL     1      -1.663   0.045   5.855  0.00  0.00    -0.001 A 
ATOM     29  C   UNL     1      -2.284   0.072   7.108  0.00  0.00    +0.010 A 
ATOM     30  C   UNL     1      -1.565   0.433   8.212  0.00  0.00    +0.004 A 
ATOM     31  C   UNL     1      -0.223   0.773   8.101  0.00  0.00    -0.048 A 
ATOM     32  C   UNL     1       0.409   0.753   6.877  0.00  0.00    +0.029 A 
ATOM     33  C   UNL     1      -0.304   0.390   5.738  0.00  0.00    +0.049 A 
ATOM     34  N   UNL     1       0.303   0.361   4.501  0.00  0.00    -0.322 N 
ATOM     35  H   UNL     1       1.268   0.610   4.419  0.00  0.00    +0.169 HD
ATOM     36  C   UNL     1      -0.384   0.004   3.402  0.00  0.00    +0.254 A 
ATOM     37  O   UNL     1       0.186  -0.015   2.324  0.00  0.00    -0.268 OA
ATOM     38  C   UNL     1       0.550   1.168   9.333  0.00  0.00    +0.044 C 
ENDBRANCH  25  26
ENDBRANCH   1  25
TORSDOF 10
