REMARK  Name = ZINC43619497
REMARK  6 active torsions:
REMARK  status: ('A' for Active; 'I' for Inactive)
REMARK    1  A    between atoms: C_6  and  C_19
REMARK    2  A    between atoms: C_7  and  C_9
REMARK    3  A    between atoms: C_19  and  N_20
REMARK    4  A    between atoms: N_20  and  C_21
REMARK    5  A    between atoms: C_21  and  C_22
REMARK    6  A    between atoms: C_22  and  C_23
REMARK                            x       y       z     vdW  Elec       q    Type
REMARK                         _______ _______ _______ _____ _____    ______ ____
ROOT
ATOM      1  C   UNL     1      -0.017   1.375   0.010  0.00  0.00    +0.100 A 
ATOM      2  C   UNL     1       1.117   2.073   0.003  0.00  0.00    +0.067 A 
ATOM      3  S   UNL     1       2.349   0.780  -0.016  0.00  0.00    -0.058 S 
ATOM      4  C   UNL     1       1.236  -0.607  -0.013  0.00  0.00    +0.178 A 
ATOM      5  N   UNL     1       0.002  -0.004   0.002  0.00  0.00    -0.299 N 
ATOM      6  C   UNL     1      -0.911  -1.042   0.005  0.00  0.00    +0.039 A 
ATOM      7  C   UNL     1      -0.211  -2.209  -0.008  0.00  0.00    +0.146 A 
ATOM      8  N   UNL     1       1.112  -1.900  -0.018  0.00  0.00    -0.216 NA
ENDROOT
BRANCH   7   9
ATOM      9  C   UNL     1      -0.785  -3.566  -0.010  0.00  0.00    +0.267 C 
ATOM     10  O   UNL     1      -1.992  -3.715   0.001  0.00  0.00    -0.268 OA
ATOM     11  N   UNL     1       0.027  -4.641  -0.023  0.00  0.00    -0.296 N 
ATOM     12  C   UNL     1       1.487  -4.469  -0.030  0.00  0.00    +0.108 C 
ATOM     13  C   UNL     1       1.927  -3.896   1.311  0.00  0.00    +0.019 C 
ATOM     14  C   UNL     1       1.815  -4.987   2.388  0.00  0.00    +0.002 C 
ATOM     15  C   UNL     1       0.356  -5.146   2.800  0.00  0.00    +0.000 C 
ATOM     16  C   UNL     1      -0.181  -6.527   2.384  0.00  0.00    +0.002 C 
ATOM     17  C   UNL     1       0.266  -6.845   0.957  0.00  0.00    +0.019 C 
ATOM     18  C   UNL     1      -0.531  -5.983  -0.025  0.00  0.00    +0.108 C 
ENDBRANCH   7   9
BRANCH   6  19
ATOM     19  C   UNL     1      -2.412  -0.906   0.020  0.00  0.00    -0.025 C 
BRANCH  19  20
ATOM     20  N   UNL     1      -2.913  -0.855  -1.360  0.00  0.00    +0.383 N 
ATOM     21  H   UNL     1      -2.508  -0.062  -1.835  0.00  0.00    -0.085 HD
ATOM     22  H   UNL     1      -2.656  -1.703  -1.842  0.00  0.00    -0.085 HD
BRANCH  20  23
ATOM     23  C   UNL     1      -4.375  -0.722  -1.345  0.00  0.00    -0.082 C 
BRANCH  23  24
ATOM     24  C   UNL     1      -4.897  -0.669  -2.782  0.00  0.00    -0.015 C 
BRANCH  24  25
ATOM     25  C   UNL     1      -6.421  -0.531  -2.767  0.00  0.00    -0.005 C 
ATOM     26  C   UNL     1      -7.080  -1.827  -2.236  0.00  0.00    +0.011 C 
ATOM     27  C   UNL     1      -7.948  -2.319  -3.437  0.00  0.00    +0.012 C 
ATOM     28  C   UNL     1      -7.020  -1.918  -4.642  0.00  0.00    +0.015 C 
ATOM     29  C   UNL     1      -6.975  -0.399  -4.221  0.00  0.00    +0.015 C 
ATOM     30  C   UNL     1      -8.474  -0.138  -4.027  0.00  0.00    -0.027 C 
ATOM     31  C   UNL     1      -9.048  -1.257  -3.562  0.00  0.00    -0.027 C 
ENDBRANCH  24  25
ENDBRANCH  23  24
ENDBRANCH  20  23
ENDBRANCH  19  20
ENDBRANCH   6  19
TORSDOF 6
