REMARK  Name = ZINC03339275
REMARK  7 active torsions:
REMARK  status: ('A' for Active; 'I' for Inactive)
REMARK    1  A    between atoms: C_4  and  C_7
REMARK    2  A    between atoms: C_10  and  S_18
REMARK    3  A    between atoms: N_11  and  C_12
REMARK    4  A    between atoms: S_18  and  C_19
REMARK    5  A    between atoms: C_19  and  C_20
REMARK    6  A    between atoms: N_22  and  N_23
REMARK    7  A    between atoms: N_23  and  C_24
REMARK                            x       y       z     vdW  Elec       q    Type
REMARK                         _______ _______ _______ _____ _____    ______ ____
ROOT
ATOM      1  S   UNL     1      -0.888   1.685  -1.458  0.00  0.00    -0.076 S 
ENDROOT
BRANCH   1   5
ATOM      2  C   UNL     1       0.964   0.410  -4.657  0.00  0.00    +0.169 A 
ATOM      3  N   UNL     1       1.690  -0.088  -3.683  0.00  0.00    -0.128 NA
ATOM      4  N   UNL     1       1.196   0.252  -2.547  0.00  0.00    -0.122 NA
ATOM      5  C   UNL     1       0.122   0.990  -2.724  0.00  0.00    +0.197 A 
ATOM      6  N   UNL     1      -0.068   1.112  -4.073  0.00  0.00    -0.270 N 
BRANCH   2  10
ATOM      7  C   UNL     1       1.654  -0.068  -8.820  0.00  0.00    +0.000 A 
ATOM      8  C   UNL     1       2.303  -0.890  -7.916  0.00  0.00    +0.001 A 
ATOM      9  C   UNL     1       2.083  -0.740  -6.562  0.00  0.00    +0.011 A 
ATOM     10  C   UNL     1       1.204   0.243  -6.106  0.00  0.00    +0.020 A 
ATOM     11  C   UNL     1       0.548   1.065  -7.024  0.00  0.00    +0.011 A 
ATOM     12  C   UNL     1       0.781   0.908  -8.375  0.00  0.00    +0.001 A 
ENDBRANCH   2  10
BRANCH   6  13
ATOM     13  C   UNL     1      -1.095   1.808  -4.725  0.00  0.00    +0.051 A 
ATOM     14  C   UNL     1      -2.021   1.119  -5.497  0.00  0.00    +0.026 A 
ATOM     15  C   UNL     1      -3.035   1.807  -6.134  0.00  0.00    +0.002 A 
ATOM     16  C   UNL     1      -3.122   3.182  -6.012  0.00  0.00    +0.000 A 
ATOM     17  C   UNL     1      -2.199   3.871  -5.248  0.00  0.00    +0.002 A 
ATOM     18  C   UNL     1      -1.186   3.188  -4.604  0.00  0.00    +0.026 A 
ENDBRANCH   6  13
ENDBRANCH   1   5
BRANCH   1  19
ATOM     19  C   UNL     1      -0.013   1.086   0.008  0.00  0.00    +0.174 C 
BRANCH  19  20
ATOM     20  C   UNL     1      -0.718   1.572   1.248  0.00  0.00    +0.239 C 
ATOM     21  O   UNL     1      -1.714   2.256   1.150  0.00  0.00    -0.273 OA
ATOM     22  N   UNL     1      -0.242   1.246   2.466  0.00  0.00    -0.236 N 
ATOM     23  H   UNL     1       0.555   0.699   2.544  0.00  0.00    +0.173 HD
BRANCH  22  24
ATOM     24  N   UNL     1      -0.897   1.698   3.618  0.00  0.00    -0.264 N 
ATOM     25  H   UNL     1      -1.694   2.245   3.540  0.00  0.00    +0.170 HD
BRANCH  24  26
ATOM     26  C   UNL     1      -0.404   1.360   4.879  0.00  0.00    +0.048 C 
ATOM     27  C   UNL     1       0.691   0.608   4.995  0.00  0.00    -0.002 C 
ATOM     28  C   UNL     1       1.228   0.229   6.347  0.00  0.00    +0.034 C 
ATOM     29  C   UNL     1       1.034   1.368   7.346  0.00  0.00    +0.040 C 
ATOM     30  C   UNL     1      -0.395   1.840   7.312  0.00  0.00    -0.038 A 
ATOM     31  C   UNL     1      -1.088   1.839   6.103  0.00  0.00    +0.000 A 
ATOM     32  C   UNL     1      -2.412   2.269   6.058  0.00  0.00    +0.010 A 
ATOM     33  C   UNL     1      -3.028   2.705   7.216  0.00  0.00    +0.001 A 
ATOM     34  C   UNL     1      -2.334   2.709   8.412  0.00  0.00    +0.000 A 
ATOM     35  C   UNL     1      -1.019   2.277   8.461  0.00  0.00    +0.004 A 
ENDBRANCH  24  26
ENDBRANCH  22  24
ENDBRANCH  19  20
ENDBRANCH   1  19
TORSDOF 7
