REMARK  Name = ZINC04985509
REMARK  7 active torsions:
REMARK  status: ('A' for Active; 'I' for Inactive)
REMARK    1  A    between atoms: C_1  and  C_2
REMARK    2  A    between atoms: C_2  and  C_3
REMARK    3  A    between atoms: C_2  and  C_4
REMARK    4  A    between atoms: C_4  and  C_5
REMARK    5  A    between atoms: N_11  and  C_14
REMARK    6  A    between atoms: C_14  and  C_15
REMARK    7  A    between atoms: N_21  and  C_22
REMARK                            x       y       z     vdW  Elec       q    Type
REMARK                         _______ _______ _______ _____ _____    ______ ____
ROOT
ATOM      1  C   UNL     1       1.653   7.268  -2.902  0.00  0.00    +0.134 A 
ATOM      2  N   UNL     1       2.214   7.130  -4.091  0.00  0.00    -0.215 NA
ATOM      3  C   UNL     1       2.958   6.070  -4.383  0.00  0.00    +0.152 A 
ATOM      4  C   UNL     1       3.142   5.084  -3.393  0.00  0.00    +0.171 A 
ATOM      5  C   UNL     1       2.523   5.279  -2.146  0.00  0.00    +0.184 A 
ATOM      6  N   UNL     1       1.796   6.375  -1.947  0.00  0.00    -0.211 NA
ATOM      7  N   UNL     1       2.858   4.194  -1.384  0.00  0.00    -0.222 N 
ATOM      8  N   UNL     1       3.671   3.377  -2.185  0.00  0.00    -0.063 NA
ATOM      9  N   UNL     1       3.811   3.919  -3.344  0.00  0.00    -0.124 NA
ATOM     10  N   UNL     1       3.539   5.937  -5.630  0.00  0.00    -0.324 N 
ATOM     11  H   UNL     1       4.081   5.158  -5.832  0.00  0.00    +0.148 HD
ENDROOT
BRANCH  10  12
ATOM     12  C   UNL     1       3.337   6.972  -6.647  0.00  0.00    +0.072 C 
ATOM     13  C   UNL     1       1.996   6.712  -7.364  0.00  0.00    +0.022 C 
ATOM     14  C   UNL     1       1.545   7.995  -8.011  0.00  0.00    +0.002 C 
ATOM     15  C   UNL     1       1.984   8.096  -9.485  0.00  0.00    +0.000 C 
ATOM     16  C   UNL     1       3.426   7.606  -9.713  0.00  0.00    +0.000 C 
ATOM     17  C   UNL     1       4.369   8.066  -8.634  0.00  0.00    +0.002 C 
ATOM     18  C   UNL     1       4.467   6.959  -7.564  0.00  0.00    +0.022 C 
ENDBRANCH  10  12
BRANCH   1  19
ATOM     19  C   UNL     1       0.820   8.493  -2.631  0.00  0.00    +0.079 C 
BRANCH  19  21
ATOM     20  C   UNL     1       0.891  10.883  -1.907  0.00  0.00    +0.007 C 
ATOM     21  C   UNL     1       1.711   9.601  -2.066  0.00  0.00    -0.010 C 
ATOM     22  C   UNL     1       2.255   9.172  -0.702  0.00  0.00    +0.007 C 
ENDBRANCH  19  21
ENDBRANCH   1  19
BRANCH   7  23
ATOM     23  C   UNL     1       2.451   3.937  -0.001  0.00  0.00    +0.182 C 
BRANCH  23  24
ATOM     24  C   UNL     1       1.156   3.165   0.008  0.00  0.00    -0.026 A 
ATOM     25  C   UNL     1       1.175   1.783   0.000  0.00  0.00    +0.005 A 
ATOM     26  C   UNL     1      -0.013   1.076   0.008  0.00  0.00    +0.000 A 
ATOM     27  C   UNL     1      -1.219   1.751   0.017  0.00  0.00    +0.000 A 
ATOM     28  C   UNL     1      -1.238   3.133   0.030  0.00  0.00    +0.000 A 
ATOM     29  C   UNL     1      -0.050   3.840   0.023  0.00  0.00    +0.005 A 
ENDBRANCH  23  24
ENDBRANCH   7  23
TORSDOF 5
