REMARK  Name = ZINC63390174
REMARK  9 active torsions:
REMARK  status: ('A' for Active; 'I' for Inactive)
REMARK    1  A    between atoms: C_1  and  C_2
REMARK    2  A    between atoms: C_8  and  N_10
REMARK    3  A    between atoms: C_11  and  C_13
REMARK    4  A    between atoms: C_13  and  C_14
REMARK    5  A    between atoms: C_14  and  C_15
REMARK    6  A    between atoms: N_19  and  C_23
REMARK    7  A    between atoms: C_20  and  O_22
REMARK    8  A    between atoms: C_23  and  C_24
REMARK    9  A    between atoms: C_24  and  C_25
REMARK                            x       y       z     vdW  Elec       q    Type
REMARK                         _______ _______ _______ _____ _____    ______ ____
ROOT
ATOM      1  C   UNL     1       6.180   1.230   3.799  0.00  0.00    +0.197 C 
ATOM      2  C   UNL     1       6.761   1.221   5.199  0.00  0.00    +0.248 C 
ATOM      3  O   UNL     1       6.937   0.261   5.919  0.00  0.00    -0.273 OA
ATOM      4  N   UNL     1       7.040   2.514   5.471  0.00  0.00    -0.224 N 
ATOM      5  C   UNL     1       6.702   3.314   4.410  0.00  0.00    +0.285 C 
ATOM      6  N   UNL     1       6.204   2.650   3.413  0.00  0.00    -0.224 NA
ENDROOT
BRANCH   5   7
ATOM      7  O   UNL     1       6.870   4.655   4.402  0.00  0.00    -0.481 OA
ATOM      8  H   UNL     1       6.585   5.083   3.584  0.00  0.00    +0.295 HD
ENDBRANCH   5   7
BRANCH   1   9
ATOM      9  C   UNL     1       4.745   0.700   3.810  0.00  0.00    +0.045 C 
BRANCH   9  10
ATOM     10  C   UNL     1       4.209   0.649   2.377  0.00  0.00    +0.098 C 
BRANCH  10  12
ATOM     11  N   UNL     1       2.116  -0.004   1.231  0.00  0.00    -0.312 N 
ATOM     12  C   UNL     1       2.795   0.128   2.388  0.00  0.00    +0.213 C 
ATOM     13  O   UNL     1       2.268  -0.174   3.438  0.00  0.00    -0.276 OA
ATOM     14  H   UNL     1       2.538   0.237   0.392  0.00  0.00    +0.149 HD
BRANCH  11  21
ATOM     15  C   UNL     1      -0.019   1.526   0.010  0.00  0.00    +0.009 C 
ATOM     16  C   UNL     1       0.002  -0.004   0.002  0.00  0.00    +0.006 C 
ATOM     17  C   UNL     1       0.718  -0.497  -1.257  0.00  0.00    +0.005 C 
ATOM     18  C   UNL     1       0.739  -2.027  -1.265  0.00  0.00    +0.000 C 
ATOM     19  C   UNL     1       1.479  -2.534  -0.026  0.00  0.00    +0.002 C 
ATOM     20  C   UNL     1       0.763  -2.041   1.233  0.00  0.00    +0.022 C 
ATOM     21  C   UNL     1       0.742  -0.511   1.242  0.00  0.00    +0.076 C 
ENDBRANCH  11  21
ENDBRANCH  10  12
ENDBRANCH   9  10
ENDBRANCH   1   9
BRANCH   4  22
ATOM     22  C   UNL     1       7.623   2.995   6.726  0.00  0.00    +0.122 C 
BRANCH  22  23
ATOM     23  C   UNL     1       9.149   2.992   6.613  0.00  0.00    +0.052 C 
BRANCH  23  24
ATOM     24  C   UNL     1       9.748   3.487   7.904  0.00  0.00    -0.040 C 
ATOM     25  C   UNL     1      10.189   2.734   8.938  0.00  0.00    -0.001 A 
ATOM     26  C   UNL     1      10.239   1.284   9.161  0.00  0.00    +0.010 A 
ATOM     27  C   UNL     1      10.747   0.817  10.324  0.00  0.00    +0.001 A 
ATOM     28  C   UNL     1      11.225   1.680  11.319  0.00  0.00    +0.002 A 
ATOM     29  C   UNL     1      11.213   3.023  11.187  0.00  0.00    +0.026 A 
ATOM     30  C   UNL     1      10.701   3.624  10.004  0.00  0.00    +0.043 A 
ATOM     31  N   UNL     1      10.581   4.879   9.644  0.00  0.00    -0.380 N 
ATOM     32  C   UNL     1       9.985   4.926   8.304  0.00  0.00    +0.144 C 
ATOM     33  H   UNL     1      10.847   5.647  10.173  0.00  0.00    +0.160 HD
ENDBRANCH  23  24
ENDBRANCH  22  23
ENDBRANCH   4  22
TORSDOF 8
