REMARK  Name = ZINC14462710
REMARK  6 active torsions:
REMARK  status: ('A' for Active; 'I' for Inactive)
REMARK    1  A    between atoms: C_1  and  C_2
REMARK    2  A    between atoms: C_2  and  C_3
REMARK    3  A    between atoms: C_2  and  C_4
REMARK    4  A    between atoms: C_7  and  C_10
REMARK    5  A    between atoms: C_20  and  N_27
REMARK    6  A    between atoms: C_23  and  O_26
REMARK                            x       y       z     vdW  Elec       q    Type
REMARK                         _______ _______ _______ _____ _____    ______ ____
ROOT
ATOM      1  C   UNL     1      -5.505  -1.929   0.078  0.00  0.00    +0.105 C 
ATOM      2  C   UNL     1      -5.504  -3.376   0.536  0.00  0.00    +0.029 C 
ATOM      3  C   UNL     1      -5.143  -3.646   2.003  0.00  0.00    +0.033 C 
ATOM      4  C   UNL     1      -5.932  -4.927   2.283  0.00  0.00    -0.030 C 
ATOM      5  C   UNL     1      -6.979  -5.002   1.471  0.00  0.00    -0.023 C 
ATOM      6  C   UNL     1      -7.003  -3.797   0.587  0.00  0.00    +0.051 C 
ATOM      7  C   UNL     1      -7.513  -3.827  -0.801  0.00  0.00    +0.014 A 
ATOM      8  C   UNL     1      -8.448  -4.748  -1.227  0.00  0.00    +0.132 A 
ATOM      9  C   UNL     1      -8.905  -4.729  -2.531  0.00  0.00    +0.037 A 
ATOM     10  C   UNL     1      -8.426  -3.782  -3.418  0.00  0.00    +0.049 A 
ATOM     11  C   UNL     1      -7.485  -2.857  -3.004  0.00  0.00    +0.138 A 
ATOM     12  C   UNL     1      -7.013  -2.874  -1.693  0.00  0.00    +0.076 A 
ATOM     13  N   UNL     1      -6.034  -1.946  -1.303  0.00  0.00    -0.334 N 
ATOM     14  H   UNL     1      -5.697  -1.307  -1.951  0.00  0.00    +0.147 HD
ENDROOT
BRANCH   1  18
ATOM     15  C   UNL     1      -1.529  -0.367   0.119  0.00  0.00    -0.045 A 
ATOM     16  C   UNL     1      -2.406  -0.052   1.140  0.00  0.00    +0.004 A 
ATOM     17  C   UNL     1      -3.692  -0.557   1.127  0.00  0.00    +0.006 A 
ATOM     18  C   UNL     1      -4.103  -1.377   0.092  0.00  0.00    -0.027 A 
ATOM     19  C   UNL     1      -3.226  -1.692  -0.930  0.00  0.00    +0.006 A 
ATOM     20  C   UNL     1      -1.941  -1.183  -0.919  0.00  0.00    +0.004 A 
BRANCH  15  22
ATOM     21  C   UNL     1      -0.178   1.712   0.123  0.00  0.00    +0.012 C 
ATOM     22  C   UNL     1      -0.126   0.183   0.133  0.00  0.00    +0.013 C 
ATOM     23  C   UNL     1       0.596  -0.294   1.394  0.00  0.00    +0.012 C 
ENDBRANCH  15  22
ENDBRANCH   1  18
BRANCH   8  24
ATOM     24  N   UNL     1      -8.964  -5.762  -0.281  0.00  0.00    +0.057 N 
ATOM     25  O   UNL     1      -8.924  -6.935  -0.571  0.00  0.00    -0.126 OA
ATOM     26  O   UNL     1      -9.427  -5.418   0.782  0.00  0.00    -0.126 OA
ENDBRANCH   8  24
BRANCH  11  27
ATOM     27  O   UNL     1      -7.018  -1.927  -3.880  0.00  0.00    -0.505 OA
ATOM     28  H   UNL     1      -7.530  -1.107  -3.894  0.00  0.00    +0.292 HD
ENDBRANCH  11  27
TORSDOF 4
