REMARK  Name = ZINC57562774
REMARK  7 active torsions:
REMARK  status: ('A' for Active; 'I' for Inactive)
REMARK    1  A    between atoms: C_1  and  C_2
REMARK    2  A    between atoms: C_5  and  C_7
REMARK    3  A    between atoms: C_7  and  C_9
REMARK    4  A    between atoms: C_7  and  N_28
REMARK    5  A    between atoms: C_9  and  N_10
REMARK    6  A    between atoms: N_13  and  C_14
REMARK    7  A    between atoms: C_14  and  C_15
REMARK                            x       y       z     vdW  Elec       q    Type
REMARK                         _______ _______ _______ _____ _____    ______ ____
ROOT
ATOM      1  N   UNL     1       3.305  -4.611   1.532  0.00  0.00    -0.297 N 
ATOM      2  C   UNL     1       3.978  -4.886   2.667  0.00  0.00    +0.300 C 
ATOM      3  O   UNL     1       3.771  -4.232   3.671  0.00  0.00    -0.253 OA
ATOM      4  N   UNL     1       4.881  -5.887   2.689  0.00  0.00    -0.295 N 
ATOM      5  H   UNL     1       3.470  -5.133   0.731  0.00  0.00    +0.150 HD
ATOM      6  H   UNL     1       5.046  -6.409   1.888  0.00  0.00    +0.151 HD
ENDROOT
BRANCH   1   7
ATOM      7  C   UNL     1       2.324  -3.523   1.508  0.00  0.00    +0.132 C 
BRANCH   7   8
ATOM      8  C   UNL     1       1.708  -3.422   0.111  0.00  0.00    +0.140 C 
BRANCH   8  13
ATOM      9  C   UNL     1       0.104   1.357  -0.069  0.00  0.00    +0.086 C 
ATOM     10  C   UNL     1       0.093  -0.150  -0.026  0.00  0.00    +0.102 A 
ATOM     11  C   UNL     1      -1.003  -0.930  -0.034  0.00  0.00    +0.045 A 
ATOM     12  C   UNL     1      -0.553  -2.269   0.016  0.00  0.00    +0.046 A 
ATOM     13  C   UNL     1       0.791  -2.228   0.052  0.00  0.00    +0.124 A 
ATOM     14  O   UNL     1       1.177  -0.942   0.020  0.00  0.00    -0.463 OA
ENDBRANCH   8  13
BRANCH   8  15
ATOM     15  N   UNL     1       2.777  -3.269  -0.885  0.00  0.00    -0.287 NA
ATOM     16  C   UNL     1       3.635  -2.118  -0.565  0.00  0.00    +0.113 C 
ATOM     17  C   UNL     1       4.767  -2.031  -1.592  0.00  0.00    +0.175 C 
ATOM     18  O   UNL     1       4.207  -1.941  -2.905  0.00  0.00    -0.377 OA
ATOM     19  C   UNL     1       3.367  -3.046  -3.250  0.00  0.00    +0.175 C 
ATOM     20  C   UNL     1       2.220  -3.143  -2.240  0.00  0.00    +0.113 C 
ENDBRANCH   8  15
ENDBRANCH   7   8
ENDBRANCH   1   7
BRANCH   4  21
ATOM     21  C   UNL     1       5.612  -6.187   3.922  0.00  0.00    +0.142 C 
BRANCH  21  22
ATOM     22  C   UNL     1       6.552  -7.340   3.681  0.00  0.00    -0.014 A 
ATOM     23  C   UNL     1       6.127  -8.646   3.887  0.00  0.00    +0.010 A 
ATOM     24  C   UNL     1       7.021  -9.675   3.655  0.00  0.00    +0.042 A 
ATOM     25  C   UNL     1       8.308  -9.369   3.224  0.00  0.00    +0.099 A 
ATOM     26  N   UNL     1       8.676  -8.111   3.039  0.00  0.00    -0.349 N 
ATOM     27  C   UNL     1       7.842  -7.109   3.248  0.00  0.00    +0.089 A 
ATOM     28  N   UNL     1       9.217 -10.394   2.987  0.00  0.00    -0.317 N 
ATOM     29  C   UNL     1       8.753 -11.761   3.054  0.00  0.00    +0.106 C 
ATOM     30  C   UNL     1       8.894 -12.288   4.503  0.00  0.00    +0.019 C 
ATOM     31  C   UNL     1      10.312 -12.493   4.837  0.00  0.00    +0.002 C 
ATOM     32  C   UNL     1      11.153 -11.221   4.813  0.00  0.00    +0.002 C 
ATOM     33  C   UNL     1      11.620 -10.956   3.403  0.00  0.00    +0.019 C 
ATOM     34  C   UNL     1      10.615 -10.041   2.671  0.00  0.00    +0.106 C 
ATOM     35  H   UNL     1       9.578  -7.921   2.739  0.00  0.00    +0.167 HD
ENDBRANCH  21  22
ENDBRANCH   4  21
TORSDOF 6
