REMARK  Name = ZINC59020314
REMARK  9 active torsions:
REMARK  status: ('A' for Active; 'I' for Inactive)
REMARK    1  A    between atoms: C_1  and  C_2
REMARK    2  A    between atoms: C_5  and  C_28
REMARK    3  A    between atoms: C_6  and  N_8
REMARK    4  A    between atoms: C_9  and  C_11
REMARK    5  A    between atoms: C_11  and  S_12
REMARK    6  A    between atoms: S_12  and  C_13
REMARK    7  A    between atoms: N_18  and  N_19
REMARK    8  A    between atoms: C_20  and  C_21
REMARK    9  A    between atoms: C_20  and  C_22
REMARK                            x       y       z     vdW  Elec       q    Type
REMARK                         _______ _______ _______ _____ _____    ______ ____
ROOT
ATOM      1  C   UNL     1       0.592  -2.770   7.651  0.00  0.00    +0.211 A 
ATOM      2  N   UNL     1       0.683  -2.347   8.917  0.00  0.00    -0.186 NA
ATOM      3  C   UNL     1       0.769  -3.382   9.725  0.00  0.00    +0.232 A 
ATOM      4  N   UNL     1       0.734  -4.503   8.973  0.00  0.00    -0.245 N 
ATOM      5  N   UNL     1       0.614  -4.082   7.638  0.00  0.00    -0.144 NA
ATOM      6  N   UNL     1       0.877  -3.331  11.103  0.00  0.00    -0.205 N 
ATOM      7  H   UNL     1       0.935  -4.153  11.616  0.00  0.00    +0.177 HD
ATOM      8  H   UNL     1       0.779  -5.418   9.291  0.00  0.00    +0.192 HD
ENDROOT
BRANCH   6   9
ATOM      9  N   UNL     1       0.902  -2.093  11.758  0.00  0.00    -0.184 NA
ATOM     10  C   UNL     1       1.101  -2.041  13.040  0.00  0.00    +0.063 C 
ATOM     11  C   UNL     1       1.237  -0.707  13.728  0.00  0.00    +0.068 C 
BRANCH  10  12
ATOM     12  C   UNL     1       1.195  -3.287  13.823  0.00  0.00    -0.003 A 
ATOM     13  C   UNL     1       2.245  -4.181  13.597  0.00  0.00    +0.010 A 
ATOM     14  C   UNL     1       2.326  -5.344  14.334  0.00  0.00    +0.001 A 
ATOM     15  C   UNL     1       1.371  -5.627  15.294  0.00  0.00    +0.000 A 
ATOM     16  C   UNL     1       0.328  -4.747  15.522  0.00  0.00    +0.001 A 
ATOM     17  C   UNL     1       0.237  -3.577  14.797  0.00  0.00    +0.010 A 
ENDBRANCH  10  12
ENDBRANCH   6   9
BRANCH   1  18
ATOM     18  S   UNL     1       0.458  -1.734   6.232  0.00  0.00    -0.075 S 
BRANCH  18  19
ATOM     19  C   UNL     1       0.365  -2.900   4.846  0.00  0.00    +0.173 C 
BRANCH  19  21
ATOM     20  N   UNL     1       0.161  -2.797   2.382  0.00  0.00    -0.285 N 
ATOM     21  C   UNL     1       0.245  -2.134   3.553  0.00  0.00    +0.227 C 
ATOM     22  O   UNL     1       0.225  -0.922   3.566  0.00  0.00    -0.275 OA
ATOM     23  H   UNL     1       0.093  -3.765   2.377  0.00  0.00    +0.155 HD
BRANCH  20  29
ATOM     24  C   UNL     1       1.403   1.228  -0.152  0.00  0.00    +0.044 C 
ATOM     25  C   UNL     1       0.766  -0.136  -0.082  0.00  0.00    -0.049 A 
ATOM     26  C   UNL     1       0.192  -0.690  -1.211  0.00  0.00    +0.004 A 
ATOM     27  C   UNL     1      -0.393  -1.941  -1.150  0.00  0.00    +0.005 A 
ATOM     28  C   UNL     1      -0.404  -2.643   0.040  0.00  0.00    -0.029 A 
ATOM     29  C   UNL     1       0.172  -2.089   1.175  0.00  0.00    +0.037 A 
ATOM     30  C   UNL     1       0.762  -0.834   1.110  0.00  0.00    +0.027 A 
ATOM     31  C   UNL     1      -1.042  -4.006   0.105  0.00  0.00    +0.045 C 
ENDBRANCH  20  29
ENDBRANCH  19  21
ENDBRANCH  18  19
ENDBRANCH   1  18
TORSDOF 6
