REMARK  Name = ZINC02717767
REMARK  7 active torsions:
REMARK  status: ('A' for Active; 'I' for Inactive)
REMARK    1  A    between atoms: C_1  and  C_2
REMARK    2  A    between atoms: C_5  and  C_29
REMARK    3  A    between atoms: C_6  and  N_8
REMARK    4  A    between atoms: C_9  and  C_11
REMARK    5  A    between atoms: C_11  and  S_12
REMARK    6  A    between atoms: S_12  and  C_13
REMARK    7  A    between atoms: N_20  and  C_23
REMARK                            x       y       z     vdW  Elec       q    Type
REMARK                         _______ _______ _______ _____ _____    ______ ____
ROOT
ATOM      1  C   UNL     1       0.537  -2.770   7.657  0.00  0.00    +0.194 A 
ATOM      2  N   UNL     1       0.545  -4.089   7.489  0.00  0.00    -0.183 NA
ATOM      3  C   UNL     1       0.653  -4.911   8.522  0.00  0.00    +0.285 A 
ATOM      4  O   UNL     1       0.661  -6.252   8.341  0.00  0.00    -0.265 OA
ATOM      5  C   UNL     1       0.758  -4.359   9.812  0.00  0.00    +0.105 A 
ATOM      6  C   UNL     1       0.884  -4.896  11.113  0.00  0.00    +0.150 A 
ATOM      7  N   UNL     1       0.942  -3.910  11.963  0.00  0.00    -0.172 NA
ATOM      8  N   UNL     1       0.859  -2.691  11.280  0.00  0.00    -0.214 N 
ATOM      9  C   UNL     1       0.744  -2.956   9.945  0.00  0.00    +0.171 A 
ATOM     10  N   UNL     1       0.638  -2.207   8.850  0.00  0.00    -0.202 NA
ENDROOT
BRANCH   8  11
ATOM     11  C   UNL     1       0.888  -1.418  11.865  0.00  0.00    +0.068 A 
ATOM     12  C   UNL     1       1.496  -0.361  11.201  0.00  0.00    +0.028 A 
ATOM     13  C   UNL     1       1.523   0.892  11.780  0.00  0.00    +0.002 A 
ATOM     14  C   UNL     1       0.945   1.096  13.019  0.00  0.00    +0.000 A 
ATOM     15  C   UNL     1       0.338   0.045  13.683  0.00  0.00    +0.002 A 
ATOM     16  C   UNL     1       0.303  -1.210  13.107  0.00  0.00    +0.028 A 
ENDBRANCH   8  11
BRANCH   1  17
ATOM     17  S   UNL     1       0.391  -1.734   6.239  0.00  0.00    -0.077 S 
BRANCH  17  18
ATOM     18  C   UNL     1       0.280  -2.900   4.854  0.00  0.00    +0.173 C 
BRANCH  18  20
ATOM     19  N   UNL     1       0.052  -2.797   2.393  0.00  0.00    -0.285 N 
ATOM     20  C   UNL     1       0.150  -2.135   3.562  0.00  0.00    +0.227 C 
ATOM     21  O   UNL     1       0.134  -0.922   3.575  0.00  0.00    -0.275 OA
ATOM     22  H   UNL     1      -0.016  -3.765   2.388  0.00  0.00    +0.155 HD
BRANCH  19  28
ATOM     23  C   UNL     1       1.264   1.227  -0.158  0.00  0.00    +0.044 C 
ATOM     24  C   UNL     1       0.628  -0.137  -0.079  0.00  0.00    -0.049 A 
ATOM     25  C   UNL     1       0.039  -0.690  -1.201  0.00  0.00    +0.004 A 
ATOM     26  C   UNL     1      -0.546  -1.941  -1.133  0.00  0.00    +0.005 A 
ATOM     27  C   UNL     1      -0.543  -2.643   0.057  0.00  0.00    -0.029 A 
ATOM     28  C   UNL     1       0.048  -2.090   1.185  0.00  0.00    +0.037 A 
ATOM     29  C   UNL     1       0.639  -0.835   1.112  0.00  0.00    +0.027 A 
ATOM     30  C   UNL     1      -1.181  -4.006   0.131  0.00  0.00    +0.045 C 
ENDBRANCH  19  28
ENDBRANCH  18  20
ENDBRANCH  17  18
ENDBRANCH   1  17
TORSDOF 5
