REMARK  Name = ZINC20673570
REMARK  4 active torsions:
REMARK  status: ('A' for Active; 'I' for Inactive)
REMARK    1  A    between atoms: C_1  and  N_2
REMARK    2  A    between atoms: N_2  and  C_3
REMARK    3  A    between atoms: N_2  and  C_4
REMARK    4  A    between atoms: C_7  and  C_10
REMARK                            x       y       z     vdW  Elec       q    Type
REMARK                         _______ _______ _______ _____ _____    ______ ____
ROOT
ATOM      1  C   UNL     1      -0.655   5.343  -0.084  0.00  0.00    +0.008 A 
ATOM      2  C   UNL     1      -1.172   5.900  -1.270  0.00  0.00    +0.067 A 
ATOM      3  C   UNL     1      -1.666   7.223  -1.325  0.00  0.00    +0.131 A 
ATOM      4  N   UNL     1      -2.135   7.671  -2.483  0.00  0.00    -0.199 NA
ATOM      5  C   UNL     1      -2.142   6.900  -3.566  0.00  0.00    +0.221 A 
ATOM      6  N   UNL     1      -1.692   5.658  -3.565  0.00  0.00    -0.194 NA
ATOM      7  C   UNL     1      -1.200   5.111  -2.446  0.00  0.00    +0.167 A 
ATOM      8  N   UNL     1      -0.747   3.855  -2.428  0.00  0.00    -0.231 NA
ATOM      9  C   UNL     1      -0.259   3.294  -1.342  0.00  0.00    +0.055 A 
ATOM     10  C   UNL     1      -0.188   4.012  -0.139  0.00  0.00    +0.047 A 
ATOM     11  C   UNL     1       0.373   3.392   1.066  0.00  0.00    +0.165 C 
ATOM     12  O   UNL     1       0.634   4.053   2.050  0.00  0.00    -0.292 OA
ATOM     13  C   UNL     1       0.616   1.897   1.040  0.00  0.00    +0.080 C 
ATOM     14  C   UNL     1       1.229   1.557  -0.325  0.00  0.00    +0.014 C 
ATOM     15  C   UNL     1       0.219   1.867  -1.425  0.00  0.00    +0.056 C 
ATOM     16  N   UNL     1      -2.642   7.420  -4.743  0.00  0.00    -0.300 N 
ATOM     17  C   UNL     1      -1.651   7.326  -5.822  0.00  0.00    +0.108 C 
ATOM     18  C   UNL     1      -2.285   7.776  -7.140  0.00  0.00    +0.019 C 
ATOM     19  C   UNL     1      -2.777   9.219  -6.998  0.00  0.00    +0.003 C 
ATOM     20  C   UNL     1      -3.772   9.299  -5.837  0.00  0.00    +0.019 C 
ATOM     21  C   UNL     1      -3.094   8.805  -4.556  0.00  0.00    +0.108 C 
ATOM     22  N   UNL     1      -1.661   8.027  -0.207  0.00  0.00    -0.342 N 
ATOM     23  H   UNL     1      -2.049   9.054  -0.266  0.00  0.00    +0.144 HD
ATOM     24  H   UNL     1      -1.268   7.641   0.746  0.00  0.00    +0.144 HD
ENDROOT
BRANCH   1  28
ATOM     25  C   UNL     1      -0.504   7.585   3.520  0.00  0.00    +0.029 A 
ATOM     26  C   UNL     1       0.398   7.856   2.495  0.00  0.00    +0.024 A 
ATOM     27  C   UNL     1       0.351   7.131   1.326  0.00  0.00    +0.010 A 
ATOM     28  C   UNL     1      -0.603   6.122   1.168  0.00  0.00    -0.016 A 
ATOM     29  C   UNL     1      -1.511   5.856   2.197  0.00  0.00    +0.010 A 
ATOM     30  C   UNL     1      -1.456   6.580   3.366  0.00  0.00    +0.024 A 
BRANCH  25  32
ATOM     31  C   UNL     1       0.545   9.377   4.864  0.00  0.00    +0.129 C 
ATOM     32  N   UNL     1      -0.455   8.319   4.701  0.00  0.00    -0.336 N 
ATOM     33  C   UNL     1      -1.404   8.035   5.781  0.00  0.00    +0.129 C 
ENDBRANCH  25  32
ENDBRANCH   1  28
TORSDOF 2
