REMARK  Name = ZINC08591610
REMARK  7 active torsions:
REMARK  status: ('A' for Active; 'I' for Inactive)
REMARK    1  A    between atoms: C_1  and  C_2
REMARK    2  A    between atoms: C_3  and  C_27
REMARK    3  A    between atoms: C_4  and  C_21
REMARK    4  A    between atoms: C_9  and  S_11
REMARK    5  A    between atoms: S_11  and  C_12
REMARK    6  A    between atoms: C_12  and  C_13
REMARK    7  A    between atoms: N_29  and  C_30
REMARK                            x       y       z     vdW  Elec       q    Type
REMARK                         _______ _______ _______ _____ _____    ______ ____
ROOT
ATOM      1  C   UNL     1      -0.018   1.503   0.008  0.00  0.00    +0.061 C 
ATOM      2  C   UNL     1       0.002  -0.004  -0.005  0.00  0.00    +0.018 C 
ATOM      3  C   UNL     1      -1.163  -0.668  -0.003  0.00  0.00    +0.060 C 
ATOM      4  C   UNL     1      -1.252  -2.171  -0.003  0.00  0.00    +0.177 C 
ATOM      5  N   UNL     1       0.061  -2.736  -0.299  0.00  0.00    -0.220 N 
ATOM      6  C   UNL     1       1.207  -2.011  -0.298  0.00  0.00    +0.219 A 
ATOM      7  N   UNL     1       2.195  -2.813  -0.593  0.00  0.00    -0.187 NA
ATOM      8  C   UNL     1       1.721  -4.052  -0.793  0.00  0.00    +0.211 A 
ATOM      9  N   UNL     1       0.416  -4.044  -0.623  0.00  0.00    -0.141 NA
ATOM     10  N   UNL     1       1.213  -0.651  -0.026  0.00  0.00    -0.287 N 
ATOM     11  H   UNL     1       2.041  -0.176   0.147  0.00  0.00    +0.155 HD
ENDROOT
BRANCH   4  12
ATOM     12  C   UNL     1      -1.710  -2.647   1.352  0.00  0.00    -0.018 A 
ATOM     13  C   UNL     1      -0.963  -2.352   2.477  0.00  0.00    +0.006 A 
ATOM     14  C   UNL     1      -1.383  -2.789   3.719  0.00  0.00    +0.000 A 
ATOM     15  C   UNL     1      -2.551  -3.520   3.837  0.00  0.00    +0.000 A 
ATOM     16  C   UNL     1      -3.298  -3.814   2.711  0.00  0.00    +0.000 A 
ATOM     17  C   UNL     1      -2.880  -3.374   1.470  0.00  0.00    +0.006 A 
ENDBRANCH   4  12
BRANCH   3  18
ATOM     18  C   UNL     1      -2.365   0.079   0.001  0.00  0.00    +0.248 C 
ATOM     19  O   UNL     1      -2.325   1.296   0.002  0.00  0.00    -0.270 OA
ATOM     20  N   UNL     1      -3.553  -0.557   0.004  0.00  0.00    -0.280 N 
ATOM     21  H   UNL     1      -3.586  -1.524  -0.066  0.00  0.00    +0.155 HD
BRANCH  20  22
ATOM     22  C   UNL     1      -4.739   0.178   0.108  0.00  0.00    +0.052 A 
ATOM     23  C   UNL     1      -4.848   1.431  -0.489  0.00  0.00    +0.026 A 
ATOM     24  C   UNL     1      -6.043   2.120  -0.359  0.00  0.00    +0.021 A 
ATOM     25  C   UNL     1      -7.079   1.546   0.355  0.00  0.00    +0.111 A 
ATOM     26  N   UNL     1      -6.944   0.357   0.909  0.00  0.00    -0.261 NA
ATOM     27  C   UNL     1      -5.826  -0.334   0.804  0.00  0.00    +0.134 A 
ENDBRANCH  20  22
ENDBRANCH   3  18
BRANCH   8  28
ATOM     28  S   UNL     1       2.690  -5.461  -1.217  0.00  0.00    -0.080 S 
BRANCH  28  29
ATOM     29  C   UNL     1       4.385  -4.820  -1.300  0.00  0.00    +0.115 C 
BRANCH  29  30
ATOM     30  C   UNL     1       5.328  -5.939  -1.659  0.00  0.00    -0.002 A 
ATOM     31  C   UNL     1       5.907  -6.701  -0.663  0.00  0.00    +0.007 A 
ATOM     32  C   UNL     1       6.772  -7.728  -0.992  0.00  0.00    +0.000 A 
ATOM     33  C   UNL     1       7.060  -7.993  -2.318  0.00  0.00    +0.003 A 
ATOM     34  C   UNL     1       6.482  -7.231  -3.316  0.00  0.00    +0.038 A 
ATOM     35  C   UNL     1       5.611  -6.206  -2.988  0.00  0.00    +0.127 A 
ATOM     36  F   UNL     1       5.042  -5.465  -3.963  0.00  0.00    -0.205 F 
ENDBRANCH  29  30
ENDBRANCH  28  29
ENDBRANCH   8  28
TORSDOF 6
