REMARK  Name = ZINC08686706
REMARK  13 active torsions:
REMARK  status: ('A' for Active; 'I' for Inactive)
REMARK    1  A    between atoms: C_1  and  C_2
REMARK    2  A    between atoms: C_5  and  N_8
REMARK    3  A    between atoms: C_9  and  S_29
REMARK    4  A    between atoms: N_10  and  C_11
REMARK    5  A    between atoms: N_10  and  C_15
REMARK    6  A    between atoms: C_11  and  C_12
REMARK    7  A    between atoms: C_12  and  N_60
REMARK    8  A    between atoms: C_13  and  N_60
REMARK    9  A    between atoms: C_14  and  N_60
REMARK   10  A    between atoms: C_15  and  C_16
REMARK   11  A    between atoms: C_20  and  C_28
REMARK   12  A    between atoms: C_22  and  C_27
REMARK   13  A    between atoms: C_25  and  O_26
REMARK                            x       y       z     vdW  Elec       q    Type
REMARK                         _______ _______ _______ _____ _____    ______ ____
ROOT
ATOM      1  N   UNL     1       0.017   1.350  -0.944  0.00  0.00    -0.226 NA
ATOM      2  C   UNL     1       1.180   1.883  -0.647  0.00  0.00    +0.154 C 
ATOM      3  N   UNL     1       1.247   3.181  -0.204  0.00  0.00    -0.307 N 
ENDROOT
BRANCH   1   8
ATOM      4  C   UNL     1      -0.260  -3.987  -2.767  0.00  0.00    +0.044 C 
ATOM      5  C   UNL     1      -0.186  -2.562  -2.280  0.00  0.00    -0.050 A 
ATOM      6  C   UNL     1      -1.077  -2.115  -1.321  0.00  0.00    +0.005 A 
ATOM      7  C   UNL     1      -1.015  -0.813  -0.871  0.00  0.00    +0.028 A 
ATOM      8  C   UNL     1      -0.050   0.055  -1.386  0.00  0.00    +0.067 A 
ATOM      9  C   UNL     1       0.842  -0.401  -2.358  0.00  0.00    +0.028 A 
ATOM     10  C   UNL     1       0.772  -1.707  -2.795  0.00  0.00    +0.005 A 
ENDBRANCH   1   8
BRANCH   2  11
ATOM     11  S   UNL     1       2.654   0.933  -0.817  0.00  0.00    -0.108 S 
ATOM     12  H   UNL     1       3.563   1.765  -0.132  0.00  0.00    +0.110 HD
ENDBRANCH   2  11
BRANCH   3  13
ATOM     13  C   UNL     1       0.041   3.850   0.289  0.00  0.00    +0.089 C 
BRANCH  13  14
ATOM     14  C   UNL     1      -0.094   3.613   1.795  0.00  0.00    -0.060 C 
BRANCH  14  17
ATOM     15  C   UNL     1      -1.598   3.887   3.673  0.00  0.00    -0.097 C 
ATOM     16  C   UNL     1      -1.181   5.743   2.175  0.00  0.00    -0.097 C 
ATOM     17  N   UNL     1      -1.326   4.276   2.273  0.00  0.00    +0.377 N 
ATOM     18  H   UNL     1      -2.114   3.978   1.685  0.00  0.00    -0.083 HD
ENDBRANCH  14  17
ENDBRANCH  13  14
ENDBRANCH   3  13
BRANCH   3  19
ATOM     19  C   UNL     1       2.525   3.897  -0.224  0.00  0.00    +0.147 C 
BRANCH  19  20
ATOM     20  C   UNL     1       2.609   4.740  -1.470  0.00  0.00    +0.032 A 
ATOM     21  C   UNL     1       2.468   6.094  -1.390  0.00  0.00    +0.020 A 
ATOM     22  C   UNL     1       2.553   6.845  -2.579  0.00  0.00    +0.001 A 
ATOM     23  C   UNL     1       2.416   8.242  -2.569  0.00  0.00    +0.013 A 
ATOM     24  C   UNL     1       2.504   8.936  -3.738  0.00  0.00    -0.050 A 
ATOM     25  C   UNL     1       2.728   8.276  -4.945  0.00  0.00    +0.008 A 
ATOM     26  C   UNL     1       2.864   6.923  -4.990  0.00  0.00    -0.024 A 
ATOM     27  C   UNL     1       2.780   6.173  -3.804  0.00  0.00    +0.078 A 
ATOM     28  N   UNL     1       2.909   4.841  -3.820  0.00  0.00    -0.212 NA
ATOM     29  C   UNL     1       2.837   4.135  -2.712  0.00  0.00    +0.218 A 
ATOM     30  C   UNL     1       3.105   6.231  -6.307  0.00  0.00    +0.046 C 
ATOM     31  C   UNL     1       2.357  10.435  -3.726  0.00  0.00    +0.044 C 
BRANCH  29  32
ATOM     32  O   UNL     1       2.982   2.789  -2.776  0.00  0.00    -0.492 OA
ATOM     33  H   UNL     1       2.166   2.316  -2.991  0.00  0.00    +0.294 HD
ENDBRANCH  29  32
ENDBRANCH  19  20
ENDBRANCH   3  19
TORSDOF 8
