REMARK  Name = ZINC63429651
REMARK  11 active torsions:
REMARK  status: ('A' for Active; 'I' for Inactive)
REMARK    1  A    between atoms: C_1  and  C_2
REMARK    2  A    between atoms: C_2  and  N_3
REMARK    3  A    between atoms: C_4  and  C_20
REMARK    4  A    between atoms: C_7  and  S_8
REMARK    5  A    between atoms: S_8  and  C_9
REMARK    6  A    between atoms: C_9  and  C_10
REMARK    7  A    between atoms: C_12  and  C_15
REMARK    8  A    between atoms: C_15  and  C_16
REMARK    9  A    between atoms: C_16  and  C_17
REMARK   10  A    between atoms: C_17  and  C_18
REMARK   11  A    between atoms: C_17  and  C_19
REMARK                            x       y       z     vdW  Elec       q    Type
REMARK                         _______ _______ _______ _____ _____    ______ ____
ROOT
ATOM      1  S   UNL     1      -1.707  -0.609  -2.764  0.00  0.00    -0.076 S 
ENDROOT
BRANCH   1   6
ATOM      2  N   UNL     1      -1.372  -0.511   0.012  0.00  0.00    -0.306 N 
ATOM      3  C   UNL     1      -2.139  -0.798   1.108  0.00  0.00    +0.137 A 
ATOM      4  N   UNL     1      -3.292  -1.221   0.675  0.00  0.00    -0.133 NA
ATOM      5  N   UNL     1      -3.308  -1.222  -0.610  0.00  0.00    -0.122 NA
ATOM      6  C   UNL     1      -2.156  -0.790  -1.070  0.00  0.00    +0.192 A 
BRANCH   3   7
ATOM      7  C   UNL     1      -1.725  -0.651   2.550  0.00  0.00    +0.057 C 
ATOM      8  C   UNL     1      -2.665  -1.218   3.616  0.00  0.00    +0.012 C 
ATOM      9  C   UNL     1      -2.546   0.295   3.428  0.00  0.00    +0.012 C 
ENDBRANCH   3   7
BRANCH   2  11
ATOM     10  C   UNL     1      -0.019   1.526   0.010  0.00  0.00    +0.027 C 
ATOM     11  C   UNL     1       0.002  -0.004   0.002  0.00  0.00    +0.122 C 
ENDBRANCH   2  11
ENDBRANCH   1   6
BRANCH   1  12
ATOM     12  C   UNL     1      -3.184  -1.145  -3.670  0.00  0.00    +0.176 C 
BRANCH  12  13
ATOM     13  C   UNL     1      -2.931  -1.038  -5.152  0.00  0.00    +0.238 A 
ATOM     14  N   UNL     1      -2.442  -1.977  -5.913  0.00  0.00    -0.195 NA
ATOM     15  C   UNL     1      -2.350  -1.544  -7.176  0.00  0.00    +0.172 A 
ATOM     16  N   UNL     1      -2.782  -0.317  -7.232  0.00  0.00    -0.061 NA
ATOM     17  O   UNL     1      -3.175   0.035  -5.914  0.00  0.00    -0.337 OA
BRANCH  15  18
ATOM     18  C   UNL     1      -1.830  -2.345  -8.341  0.00  0.00    +0.080 C 
BRANCH  18  19
ATOM     19  C   UNL     1      -2.988  -3.098  -8.999  0.00  0.00    +0.011 C 
BRANCH  19  20
ATOM     20  C   UNL     1      -2.461  -3.911 -10.183  0.00  0.00    -0.017 C 
ATOM     21  C   UNL     1      -1.510  -4.996  -9.673  0.00  0.00    +0.007 C 
ATOM     22  C   UNL     1      -3.635  -4.565 -10.916  0.00  0.00    +0.007 C 
ENDBRANCH  19  20
ENDBRANCH  18  19
ENDBRANCH  15  18
ENDBRANCH  12  13
ENDBRANCH   1  12
TORSDOF 8
