REMARK  Name = ZINC09256919
REMARK  9 active torsions:
REMARK  status: ('A' for Active; 'I' for Inactive)
REMARK    1  A    between atoms: C_1  and  N_64
REMARK    2  A    between atoms: C_2  and  N_64
REMARK    3  A    between atoms: C_3  and  C_5
REMARK    4  A    between atoms: C_3  and  C_29
REMARK    5  A    between atoms: C_3  and  N_64
REMARK    6  A    between atoms: C_5  and  N_6
REMARK    7  A    between atoms: C_7  and  C_9
REMARK    8  A    between atoms: N_12  and  S_15
REMARK    9  A    between atoms: S_15  and  C_18
REMARK                            x       y       z     vdW  Elec       q    Type
REMARK                         _______ _______ _______ _____ _____    ______ ____
ROOT
ATOM      1  C   UNL     1      -1.240   2.490   0.729  0.00  0.00    +0.077 C 
ATOM      2  C   UNL     1      -1.030   3.323   1.996  0.00  0.00    +0.030 C 
ATOM      3  C   UNL     1      -2.238   4.243   2.203  0.00  0.00    +0.110 C 
ATOM      4  N   UNL     1      -3.459   3.425   2.213  0.00  0.00    -0.177 NA
ATOM      5  C   UNL     1      -3.712   2.519   1.084  0.00  0.00    +0.110 C 
ATOM      6  C   UNL     1      -2.488   1.619   0.890  0.00  0.00    +0.030 C 
ENDROOT
BRANCH   1   8
ATOM      7  N   UNL     1       1.179   2.160   0.329  0.00  0.00    -0.316 N 
ATOM      8  C   UNL     1      -0.038   1.609   0.504  0.00  0.00    +0.216 C 
ATOM      9  O   UNL     1      -0.168   0.403   0.475  0.00  0.00    -0.276 OA
ATOM     10  H   UNL     1       1.282   3.124   0.353  0.00  0.00    +0.149 HD
BRANCH   7  11
ATOM     11  C   UNL     1       2.346   1.304   0.104  0.00  0.00    +0.096 C 
BRANCH  11  12
ATOM     12  C   UNL     1       3.575   2.176  -0.159  0.00  0.00    +0.016 C 
BRANCH  12  13
ATOM     13  C   UNL     1       3.911   2.959   1.083  0.00  0.00    +0.093 A 
ATOM     14  C   UNL     1       4.867   2.647   1.977  0.00  0.00    +0.043 A 
ATOM     15  C   UNL     1       4.838   3.647   2.975  0.00  0.00    +0.041 A 
ATOM     16  C   UNL     1       3.861   4.507   2.636  0.00  0.00    +0.195 A 
ATOM     17  O   UNL     1       3.303   4.086   1.490  0.00  0.00    -0.469 OA
ENDBRANCH  12  13
BRANCH  12  20
ATOM     18  C   UNL     1       4.423   4.009  -1.494  0.00  0.00    -0.096 C 
ATOM     19  C   UNL     1       2.940   2.374  -2.487  0.00  0.00    -0.096 C 
ATOM     20  N   UNL     1       3.268   3.120  -1.254  0.00  0.00    +0.384 N 
ATOM     21  H   UNL     1       2.458   3.691  -0.985  0.00  0.00    -0.082 HD
ENDBRANCH  12  20
ENDBRANCH  11  12
ENDBRANCH   7  11
ENDBRANCH   1   8
BRANCH   4  22
ATOM     22  S   UNL     1      -4.528   3.522   3.474  0.00  0.00    +0.061 S 
ATOM     23  O   UNL     1      -4.337   4.796   4.072  0.00  0.00    -0.153 OA
ATOM     24  O   UNL     1      -5.788   3.098   2.970  0.00  0.00    -0.153 OA
BRANCH  22  25
ATOM     25  C   UNL     1      -4.035   2.325   4.668  0.00  0.00    +0.109 A 
ATOM     26  C   UNL     1      -4.545   1.041   4.609  0.00  0.00    +0.032 A 
ATOM     27  C   UNL     1      -4.159   0.094   5.541  0.00  0.00    +0.051 A 
ATOM     28  C   UNL     1      -3.266   0.440   6.541  0.00  0.00    +0.162 A 
ATOM     29  C   UNL     1      -2.758   1.730   6.604  0.00  0.00    +0.164 A 
ATOM     30  C   UNL     1      -3.143   2.674   5.667  0.00  0.00    +0.078 A 
ATOM     31  O   UNL     1      -1.878   2.061   7.593  0.00  0.00    -0.488 OA
ATOM     32  C   UNL     1      -2.411   2.093   8.918  0.00  0.00    +0.232 C 
ATOM     33  C   UNL     1      -2.409   0.703   9.535  0.00  0.00    +0.082 C 
ATOM     34  C   UNL     1      -3.336  -0.255   8.804  0.00  0.00    +0.232 C 
ATOM     35  O   UNL     1      -2.880  -0.483   7.469  0.00  0.00    -0.488 OA
ENDBRANCH  22  25
ENDBRANCH   4  22
TORSDOF 7
