REMARK  Name = ZINC26554910
REMARK  6 active torsions:
REMARK  status: ('A' for Active; 'I' for Inactive)
REMARK    1  A    between atoms: C_1  and  O_2
REMARK    2  A    between atoms: O_2  and  C_3
REMARK    3  A    between atoms: C_3  and  C_5
REMARK    4  A    between atoms: C_7  and  S_10
REMARK    5  A    between atoms: S_10  and  N_13
REMARK    6  A    between atoms: C_19  and  C_21
REMARK                            x       y       z     vdW  Elec       q    Type
REMARK                         _______ _______ _______ _____ _____    ______ ____
ROOT
ATOM      1  N   UNL     1      -3.103   2.446  -2.194  0.00  0.00    -0.173 NA
ATOM      2  C   UNL     1      -3.094   1.067  -1.688  0.00  0.00    +0.128 C 
ATOM      3  C   UNL     1      -2.438   1.057  -0.302  0.00  0.00    +0.125 C 
ATOM      4  N   UNL     1      -1.167   1.792  -0.378  0.00  0.00    -0.295 N 
ATOM      5  C   UNL     1      -1.178   3.174  -0.879  0.00  0.00    +0.125 C 
ATOM      6  C   UNL     1      -1.833   3.182  -2.270  0.00  0.00    +0.128 C 
ATOM      7  C   UNL     1      -0.014   1.212   0.009  0.00  0.00    +0.247 C 
ATOM      8  O   UNL     1      -0.001   0.037   0.324  0.00  0.00    -0.270 OA
ENDROOT
BRANCH   7   9
ATOM      9  C   UNL     1       1.234   2.000   0.044  0.00  0.00    +0.038 A 
ATOM     10  C   UNL     1       2.427   1.443  -0.436  0.00  0.00    +0.015 A 
ATOM     11  C   UNL     1       3.586   2.161  -0.417  0.00  0.00    +0.027 A 
ATOM     12  C   UNL     1       3.601   3.457   0.094  0.00  0.00    +0.047 A 
ATOM     13  C   UNL     1       2.409   4.027   0.587  0.00  0.00    +0.004 A 
ATOM     14  C   UNL     1       1.225   3.292   0.559  0.00  0.00    +0.023 A 
ATOM     15  C   UNL     1       2.766   5.367   1.042  0.00  0.00    -0.019 A 
ATOM     16  C   UNL     1       4.082   5.531   0.811  0.00  0.00    +0.020 A 
ATOM     17  N   UNL     1       4.593   4.397   0.246  0.00  0.00    -0.358 N 
ATOM     18  H   UNL     1       5.620   4.169  -0.075  0.00  0.00    +0.166 HD
ATOM     19  C   UNL     1       4.839   6.797   1.144  0.00  0.00    +0.053 C 
ATOM     20  C   UNL     1       3.827   7.928   1.359  0.00  0.00    +0.006 C 
ATOM     21  C   UNL     1       2.744   7.466   2.339  0.00  0.00    +0.005 C 
ATOM     22  C   UNL     1       1.867   6.406   1.661  0.00  0.00    +0.037 C 
ENDBRANCH   7   9
BRANCH   1  23
ATOM     23  S   UNL     1      -4.520   3.160  -2.668  0.00  0.00    +0.067 S 
ATOM     24  O   UNL     1      -4.170   4.189  -3.584  0.00  0.00    -0.152 OA
ATOM     25  O   UNL     1      -5.411   2.107  -3.010  0.00  0.00    -0.152 OA
BRANCH  23  28
ATOM     26  C   UNL     1      -5.688   5.618   0.380  0.00  0.00    +0.068 A 
ATOM     27  C   UNL     1      -4.996   5.216  -0.819  0.00  0.00    +0.051 A 
ATOM     28  C   UNL     1      -5.202   3.957  -1.252  0.00  0.00    +0.143 A 
ATOM     29  S   UNL     1      -6.325   3.291  -0.041  0.00  0.00    -0.076 S 
ATOM     30  C   UNL     1      -6.494   4.675   0.985  0.00  0.00    +0.062 A 
BRANCH  26  31
ATOM     31  C   UNL     1      -5.538   6.971   0.936  0.00  0.00    +0.340 C 
ATOM     32  O   UNL     1      -4.821   7.780   0.380  0.00  0.00    -0.245 OA
BRANCH  31  34
ATOM     33  C   UNL     1      -6.000   8.666   2.553  0.00  0.00    +0.280 C 
ATOM     34  O   UNL     1      -6.195   7.314   2.062  0.00  0.00    -0.464 OA
ENDBRANCH  31  34
ENDBRANCH  26  31
ENDBRANCH  23  28
ENDBRANCH   1  23
TORSDOF 5
