REMARK  Name = ZINC39759466
REMARK  12 active torsions:
REMARK  status: ('A' for Active; 'I' for Inactive)
REMARK    1  A    between atoms: C_1  and  C_2
REMARK    2  A    between atoms: C_2  and  N_3
REMARK    3  A    between atoms: C_4  and  C_22
REMARK    4  A    between atoms: C_7  and  S_8
REMARK    5  A    between atoms: S_8  and  C_9
REMARK    6  A    between atoms: C_9  and  C_11
REMARK    7  A    between atoms: C_9  and  C_12
REMARK    8  A    between atoms: N_14  and  C_15
REMARK    9  A    between atoms: C_20  and  O_21
REMARK   10  A    between atoms: C_22  and  C_24
REMARK   11  A    between atoms: C_22  and  N_25
REMARK   12  A    between atoms: C_26  and  C_28
REMARK                            x       y       z     vdW  Elec       q    Type
REMARK                         _______ _______ _______ _____ _____    ______ ____
ROOT
ATOM      1  N   UNL     1       0.675  -0.516  -1.174  0.00  0.00    -0.305 N 
ATOM      2  C   UNL     1       0.109  -0.794  -2.387  0.00  0.00    +0.154 A 
ATOM      3  N   UNL     1       1.065  -1.184  -3.182  0.00  0.00    -0.132 NA
ATOM      4  N   UNL     1       2.189  -1.171  -2.558  0.00  0.00    -0.122 NA
ATOM      5  C   UNL     1       2.010  -0.765  -1.323  0.00  0.00    +0.192 A 
ENDROOT
BRANCH   1   7
ATOM      6  C   UNL     1      -0.036   1.485   0.038  0.00  0.00    +0.027 C 
ATOM      7  C   UNL     1      -0.007  -0.044   0.034  0.00  0.00    +0.122 C 
ENDBRANCH   1   7
BRANCH   2   8
ATOM      8  C   UNL     1      -1.351  -0.673  -2.739  0.00  0.00    +0.138 C 
ATOM      9  C   UNL     1      -1.977  -2.067  -2.807  0.00  0.00    +0.036 C 
BRANCH   8  10
ATOM     10  N   UNL     1      -1.487  -0.013  -4.040  0.00  0.00    -0.302 N 
ATOM     11  C   UNL     1      -2.619   0.651  -4.345  0.00  0.00    +0.245 C 
ATOM     12  O   UNL     1      -3.529   0.703  -3.539  0.00  0.00    -0.270 OA
ATOM     13  H   UNL     1      -0.761  -0.054  -4.683  0.00  0.00    +0.150 HD
BRANCH  11  14
ATOM     14  C   UNL     1      -2.756   1.317  -5.657  0.00  0.00    +0.037 A 
ATOM     15  C   UNL     1      -1.715   1.254  -6.586  0.00  0.00    +0.014 A 
ATOM     16  C   UNL     1      -1.848   1.877  -7.809  0.00  0.00    +0.021 A 
ATOM     17  C   UNL     1      -3.011   2.564  -8.117  0.00  0.00    +0.041 A 
ATOM     18  C   UNL     1      -4.047   2.629  -7.199  0.00  0.00    +0.021 A 
ATOM     19  C   UNL     1      -3.928   2.006  -5.975  0.00  0.00    +0.014 A 
ATOM     20 CL   UNL     1      -3.171   3.346  -9.658  0.00  0.00    -0.084 Cl
ENDBRANCH  11  14
ENDBRANCH   8  10
ENDBRANCH   2   8
BRANCH   5  21
ATOM     21  S   UNL     1       3.255  -0.578  -0.090  0.00  0.00    -0.074 S 
BRANCH  21  22
ATOM     22  C   UNL     1       4.784  -1.067  -0.934  0.00  0.00    +0.137 C 
ATOM     23  C   UNL     1       5.086  -0.075  -2.058  0.00  0.00    +0.029 C 
BRANCH  22  24
ATOM     24  C   UNL     1       5.923  -1.070   0.053  0.00  0.00    +0.230 C 
ATOM     25  O   UNL     1       5.830  -0.445   1.089  0.00  0.00    -0.274 OA
ATOM     26  N   UNL     1       7.045  -1.767  -0.214  0.00  0.00    -0.282 N 
ATOM     27  H   UNL     1       7.095  -2.318  -1.011  0.00  0.00    +0.155 HD
BRANCH  26  28
ATOM     28  C   UNL     1       8.139  -1.695   0.658  0.00  0.00    +0.075 A 
ATOM     29  C   UNL     1       7.933  -1.571   2.024  0.00  0.00    +0.027 A 
ATOM     30  C   UNL     1       9.014  -1.501   2.882  0.00  0.00    +0.002 A 
ATOM     31  C   UNL     1      10.302  -1.553   2.382  0.00  0.00    +0.004 A 
ATOM     32  C   UNL     1      10.516  -1.677   1.022  0.00  0.00    +0.047 A 
ATOM     33  C   UNL     1       9.438  -1.754   0.156  0.00  0.00    +0.138 A 
BRANCH  33  34
ATOM     34  O   UNL     1       9.646  -1.881  -1.182  0.00  0.00    -0.505 OA
ATOM     35  H   UNL     1       9.714  -1.039  -1.651  0.00  0.00    +0.292 HD
ENDBRANCH  33  34
ENDBRANCH  26  28
ENDBRANCH  22  24
ENDBRANCH  21  22
ENDBRANCH   5  21
TORSDOF 9
