REMARK  Name = ZINC50628271
REMARK  7 active torsions:
REMARK  status: ('A' for Active; 'I' for Inactive)
REMARK    1  A    between atoms: C_4  and  C_7
REMARK    2  A    between atoms: C_7  and  N_8
REMARK    3  A    between atoms: C_11  and  N_14
REMARK    4  A    between atoms: C_15  and  C_17
REMARK    5  A    between atoms: C_17  and  N_18
REMARK    6  A    between atoms: N_21  and  C_22
REMARK    7  A    between atoms: C_22  and  C_23
REMARK                            x       y       z     vdW  Elec       q    Type
REMARK                         _______ _______ _______ _____ _____    ______ ____
ROOT
ATOM      1  N   UNL     1       3.279  -6.047  -3.199  0.00  0.00    -0.311 N 
ATOM      2  C   UNL     1       3.645  -6.829  -4.234  0.00  0.00    +0.230 C 
ATOM      3  O   UNL     1       3.741  -6.357  -5.347  0.00  0.00    -0.274 OA
ATOM      4  H   UNL     1       3.201  -6.424  -2.309  0.00  0.00    +0.149 HD
ENDROOT
BRANCH   1   8
ATOM      5  N   UNL     1       3.102  -1.908  -2.422  0.00  0.00    +0.380 N 
ATOM      6  C   UNL     1       1.820  -2.616  -2.519  0.00  0.00    -0.077 C 
ATOM      7  C   UNL     1       2.047  -4.118  -2.330  0.00  0.00    +0.003 C 
ATOM      8  C   UNL     1       2.997  -4.626  -3.419  0.00  0.00    +0.069 C 
ATOM      9  C   UNL     1       4.303  -3.829  -3.356  0.00  0.00    +0.003 C 
ATOM     10  C   UNL     1       3.992  -2.338  -3.507  0.00  0.00    -0.077 C 
ATOM     11  H   UNL     1       3.532  -2.115  -1.533  0.00  0.00    -0.082 HD
BRANCH   5  12
ATOM     12  C   UNL     1       2.870  -0.461  -2.526  0.00  0.00    -0.075 C 
BRANCH  12  16
ATOM     13  C   UNL     1       1.752   1.793   0.994  0.00  0.00    +0.000 C 
ATOM     14  C   UNL     1       2.109   0.315   1.167  0.00  0.00    +0.000 C 
ATOM     15  C   UNL     1       2.909  -0.162  -0.046  0.00  0.00    +0.002 C 
ATOM     16  C   UNL     1       2.069   0.015  -1.313  0.00  0.00    -0.028 C 
ATOM     17  C   UNL     1       1.712   1.493  -1.486  0.00  0.00    +0.002 C 
ATOM     18  C   UNL     1       0.912   1.970  -0.272  0.00  0.00    +0.000 C 
ENDBRANCH  12  16
ENDBRANCH   5  12
ENDBRANCH   1   8
BRANCH   2  19
ATOM     19  C   UNL     1       3.935  -8.290  -4.008  0.00  0.00    +0.201 C 
BRANCH  19  20
ATOM     20  N   UNL     1       4.309  -8.916  -5.278  0.00  0.00    -0.291 N 
ATOM     21  C   UNL     1       4.614 -10.229  -5.319  0.00  0.00    +0.300 C 
ATOM     22  O   UNL     1       4.578 -10.893  -4.301  0.00  0.00    -0.253 OA
ATOM     23  N   UNL     1       4.958 -10.805  -6.488  0.00  0.00    -0.299 N 
ATOM     24  H   UNL     1       4.337  -8.386  -6.090  0.00  0.00    +0.151 HD
ATOM     25  H   UNL     1       4.986 -10.275  -7.300  0.00  0.00    +0.150 HD
BRANCH  23  26
ATOM     26  C   UNL     1       5.289 -12.231  -6.532  0.00  0.00    +0.109 C 
BRANCH  26  27
ATOM     27  C   UNL     1       5.642 -12.628  -7.967  0.00  0.00    +0.006 C 
ATOM     28  C   UNL     1       4.388 -12.543  -8.862  0.00  0.00    +0.005 C 
ATOM     29  C   UNL     1       4.532 -13.741  -9.833  0.00  0.00    +0.000 C 
ATOM     30  C   UNL     1       5.128 -14.846  -8.926  0.00  0.00    +0.000 C 
ATOM     31  C   UNL     1       6.112 -14.093  -8.008  0.00  0.00    +0.005 C 
ENDBRANCH  26  27
ENDBRANCH  23  26
ENDBRANCH  19  20
ENDBRANCH   2  19
TORSDOF 7
