REMARK  Name = ZINC00908487
REMARK  6 active torsions:
REMARK  status: ('A' for Active; 'I' for Inactive)
REMARK    1  A    between atoms: C_1  and  C_2
REMARK    2  A    between atoms: C_9  and  C_14
REMARK    3  A    between atoms: C_14  and  C_16
REMARK    4  A    between atoms: C_14  and  N_29
REMARK    5  A    between atoms: N_20  and  C_21
REMARK    6  A    between atoms: C_21  and  C_22
REMARK                            x       y       z     vdW  Elec       q    Type
REMARK                         _______ _______ _______ _____ _____    ______ ____
ROOT
ATOM      1  C   UNL     1      -1.190   1.624   0.776  0.00  0.00    +0.179 C 
ENDROOT
BRANCH   1  10
ATOM      2  C   UNL     1      -3.538   8.700   0.595  0.00  0.00    +0.044 C 
ATOM      3  C   UNL     1      -2.438   7.677   0.476  0.00  0.00    -0.050 A 
ATOM      4  C   UNL     1      -1.143   8.089   0.192  0.00  0.00    +0.005 A 
ATOM      5  C   UNL     1      -0.122   7.170   0.078  0.00  0.00    +0.026 A 
ATOM      6  C   UNL     1      -0.389   5.816   0.250  0.00  0.00    +0.049 A 
ATOM      7  C   UNL     1      -1.703   5.402   0.538  0.00  0.00    -0.001 A 
ATOM      8  C   UNL     1      -2.724   6.352   0.649  0.00  0.00    +0.013 A 
ATOM      9  C   UNL     1      -1.976   3.974   0.712  0.00  0.00    +0.021 A 
ATOM     10  C   UNL     1      -0.945   3.100   0.598  0.00  0.00    +0.045 A 
ATOM     11  C   UNL     1       0.355   3.567   0.309  0.00  0.00    +0.255 A 
ATOM     12  O   UNL     1       1.266   2.764   0.206  0.00  0.00    -0.268 OA
ATOM     13  N   UNL     1       0.613   4.876   0.142  0.00  0.00    -0.322 N 
ATOM     14  H   UNL     1       1.518   5.163  -0.057  0.00  0.00    +0.169 HD
ENDBRANCH   1  10
BRANCH   1  15
ATOM     15  N   UNL     1      -0.811   0.913  -0.452  0.00  0.00    -0.316 N 
ATOM     16  C   UNL     1      -1.420   1.537  -1.629  0.00  0.00    +0.106 C 
ATOM     17  C   UNL     1      -1.013   0.738  -2.873  0.00  0.00    +0.024 C 
ATOM     18  C   UNL     1      -1.696  -0.630  -2.799  0.00  0.00    +0.038 C 
ATOM     19  C   UNL     1      -1.505  -1.217  -1.423  0.00  0.00    -0.026 A 
ATOM     20  C   UNL     1      -1.091  -0.449  -0.348  0.00  0.00    +0.034 A 
ATOM     21  C   UNL     1      -0.939  -1.048   0.903  0.00  0.00    +0.023 A 
ATOM     22  C   UNL     1      -1.195  -2.392   1.070  0.00  0.00    +0.002 A 
ATOM     23  C   UNL     1      -1.604  -3.155  -0.008  0.00  0.00    +0.000 A 
ATOM     24  C   UNL     1      -1.758  -2.568  -1.248  0.00  0.00    +0.005 A 
ENDBRANCH   1  15
BRANCH   1  25
ATOM     25  C   UNL     1      -2.651   1.388   1.063  0.00  0.00    +0.177 A 
ATOM     26  N   UNL     1      -3.639   1.471   0.206  0.00  0.00    -0.111 NA
ATOM     27  N   UNL     1      -4.732   1.199   0.833  0.00  0.00    -0.023 NA
ATOM     28  N   UNL     1      -4.466   0.944   2.066  0.00  0.00    -0.044 NA
ATOM     29  N   UNL     1      -3.192   1.045   2.246  0.00  0.00    -0.223 N 
BRANCH  29  30
ATOM     30  C   UNL     1      -2.472   0.830   3.504  0.00  0.00    +0.182 C 
BRANCH  30  31
ATOM     31  C   UNL     1      -2.504   2.095   4.323  0.00  0.00    -0.026 A 
ATOM     32  C   UNL     1      -1.442   2.978   4.272  0.00  0.00    +0.008 A 
ATOM     33  C   UNL     1      -1.472   4.140   5.020  0.00  0.00    +0.038 A 
ATOM     34  C   UNL     1      -2.563   4.414   5.828  0.00  0.00    +0.123 A 
ATOM     35  C   UNL     1      -3.624   3.526   5.882  0.00  0.00    +0.038 A 
ATOM     36  C   UNL     1      -3.593   2.367   5.130  0.00  0.00    +0.008 A 
ATOM     37  F   UNL     1      -2.592   5.547   6.563  0.00  0.00    -0.205 F 
ENDBRANCH  30  31
ENDBRANCH  29  30
ENDBRANCH   1  25
TORSDOF 5
