REMARK  Name = ZINC12778475
REMARK  10 active torsions:
REMARK  status: ('A' for Active; 'I' for Inactive)
REMARK    1  A    between atoms: C_1  and  C_2
REMARK    2  A    between atoms: C_5  and  C_9
REMARK    3  A    between atoms: C_6  and  C_8
REMARK    4  A    between atoms: C_9  and  N_10
REMARK    5  A    between atoms: N_10  and  C_11
REMARK    6  A    between atoms: N_14  and  C_15
REMARK    7  A    between atoms: C_15  and  C_17
REMARK    8  A    between atoms: C_15  and  C_28
REMARK    9  A    between atoms: C_28  and  C_29
REMARK   10  A    between atoms: C_28  and  C_30
REMARK                            x       y       z     vdW  Elec       q    Type
REMARK                         _______ _______ _______ _____ _____    ______ ____
ROOT
ATOM      1  N   UNL     1       0.005   1.316  -0.065  0.00  0.00    -0.284 N 
ATOM      2  C   UNL     1       1.097   2.292  -0.105  0.00  0.00    +0.134 C 
ATOM      3  C   UNL     1       0.280  -0.003  -0.058  0.00  0.00    +0.303 C 
ATOM      4  O   UNL     1      -0.626  -0.813  -0.025  0.00  0.00    -0.253 OA
ATOM      5  N   UNL     1       1.560  -0.424  -0.087  0.00  0.00    -0.292 N 
ATOM      6  H   UNL     1       2.283   0.222  -0.113  0.00  0.00    +0.151 HD
ENDROOT
BRANCH   1   7
ATOM      7  C   UNL     1      -1.387   1.774  -0.040  0.00  0.00    +0.144 C 
BRANCH   7  12
ATOM      8  C   UNL     1      -2.960   2.852   5.415  0.00  0.00    +0.044 C 
ATOM      9  C   UNL     1      -2.550   2.571   3.993  0.00  0.00    -0.050 A 
ATOM     10  C   UNL     1      -1.243   2.222   3.706  0.00  0.00    +0.004 A 
ATOM     11  C   UNL     1      -0.867   1.964   2.402  0.00  0.00    +0.006 A 
ATOM     12  C   UNL     1      -1.797   2.055   1.383  0.00  0.00    -0.027 A 
ATOM     13  C   UNL     1      -3.102   2.409   1.669  0.00  0.00    -0.046 A 
ATOM     14  C   UNL     1      -3.480   2.662   2.974  0.00  0.00    +0.007 A 
ATOM     15  C   UNL     1      -4.115   2.514   0.557  0.00  0.00    +0.044 C 
ENDBRANCH   7  12
ENDBRANCH   1   7
BRANCH   5  16
ATOM     16  C   UNL     1       1.859  -1.859  -0.078  0.00  0.00    +0.107 C 
BRANCH  16  17
ATOM     17  C   UNL     1       3.206  -2.094  -0.712  0.00  0.00    -0.023 A 
ATOM     18  C   UNL     1       4.250  -1.225  -0.455  0.00  0.00    +0.009 A 
ATOM     19  C   UNL     1       5.489  -1.435  -1.033  0.00  0.00    +0.050 A 
ATOM     20  C   UNL     1       5.681  -2.520  -1.872  0.00  0.00    +0.162 A 
ATOM     21  C   UNL     1       4.633  -3.392  -2.130  0.00  0.00    +0.162 A 
ATOM     22  C   UNL     1       3.396  -3.183  -1.545  0.00  0.00    +0.055 A 
ATOM     23  O   UNL     1       4.831  -4.458  -2.958  0.00  0.00    -0.488 OA
ATOM     24  C   UNL     1       5.699  -5.480  -2.464  0.00  0.00    +0.232 C 
ATOM     25  C   UNL     1       7.154  -5.135  -2.744  0.00  0.00    +0.082 C 
ATOM     26  C   UNL     1       7.607  -3.891  -1.995  0.00  0.00    +0.232 C 
ATOM     27  O   UNL     1       6.897  -2.738  -2.450  0.00  0.00    -0.488 OA
ENDBRANCH  16  17
BRANCH  16  28
ATOM     28  C   UNL     1       1.879  -2.367   1.365  0.00  0.00    +0.008 C 
ATOM     29  C   UNL     1       2.864  -1.534   2.186  0.00  0.00    +0.009 C 
ATOM     30  C   UNL     1       0.478  -2.243   1.968  0.00  0.00    +0.009 C 
ENDBRANCH  16  28
ENDBRANCH   5  16
TORSDOF 5
