REMARK  Name = ZINC10217097
REMARK  6 active torsions:
REMARK  status: ('A' for Active; 'I' for Inactive)
REMARK    1  A    between atoms: C_1  and  C_2
REMARK    2  A    between atoms: C_14  and  C_29
REMARK    3  A    between atoms: C_17  and  C_18
REMARK    4  A    between atoms: C_17  and  N_61
REMARK    5  A    between atoms: N_20  and  C_21
REMARK    6  A    between atoms: C_21  and  C_28
REMARK                            x       y       z     vdW  Elec       q    Type
REMARK                         _______ _______ _______ _____ _____    ______ ____
ROOT
ATOM      1  C   UNL     1       4.584  -4.338   0.378  0.00  0.00    -0.007 C 
ATOM      2  C   UNL     1       3.122  -4.593   0.004  0.00  0.00    -0.023 C 
ATOM      3  C   UNL     1       2.749  -3.748  -1.191  0.00  0.00    +0.007 A 
ATOM      4  C   UNL     1       2.016  -2.615  -1.093  0.00  0.00    -0.015 A 
ATOM      5  C   UNL     1       1.862  -2.089  -2.431  0.00  0.00    +0.004 A 
ATOM      6  C   UNL     1       1.212  -0.960  -2.940  0.00  0.00    +0.010 A 
ATOM      7  C   UNL     1       1.276  -0.766  -4.297  0.00  0.00    +0.001 A 
ATOM      8  C   UNL     1       1.949  -1.639  -5.135  0.00  0.00    +0.002 A 
ATOM      9  C   UNL     1       2.600  -2.764  -4.660  0.00  0.00    +0.026 A 
ATOM     10  C   UNL     1       2.553  -2.988  -3.285  0.00  0.00    +0.047 A 
ATOM     11  N   UNL     1       3.074  -3.976  -2.501  0.00  0.00    -0.359 N 
ATOM     12  H   UNL     1       3.596  -4.728  -2.823  0.00  0.00    +0.166 HD
ATOM     13  C   UNL     1       1.494  -2.073   0.213  0.00  0.00    +0.036 C 
ATOM     14  C   UNL     1       2.255  -2.766   1.352  0.00  0.00    -0.064 C 
ATOM     15  N   UNL     1       2.222  -4.228   1.124  0.00  0.00    +0.391 N 
ATOM     16  H   UNL     1       1.263  -4.505   0.883  0.00  0.00    -0.080 HD
ENDROOT
BRANCH  13  17
ATOM     17  C   UNL     1       1.727  -0.585   0.277  0.00  0.00    -0.023 A 
ATOM     18  C   UNL     1       3.010  -0.081   0.171  0.00  0.00    +0.005 A 
ATOM     19  C   UNL     1       3.223   1.283   0.229  0.00  0.00    +0.000 A 
ATOM     20  C   UNL     1       2.154   2.145   0.393  0.00  0.00    +0.001 A 
ATOM     21  C   UNL     1       0.871   1.642   0.499  0.00  0.00    +0.020 A 
ATOM     22  C   UNL     1       0.657   0.276   0.441  0.00  0.00    +0.045 A 
ATOM     23 CL   UNL     1      -0.954  -0.356   0.574  0.00  0.00    -0.083 Cl
ENDBRANCH  13  17
BRANCH  15  24
ATOM     24  C   UNL     1       2.632  -4.939   2.352  0.00  0.00    +0.019 C 
BRANCH  24  25
ATOM     25  C   UNL     1       1.570  -4.743   3.403  0.00  0.00    +0.197 C 
ATOM     26  O   UNL     1       0.540  -4.166   3.124  0.00  0.00    -0.278 OA
ATOM     27  N   UNL     1       1.765  -5.207   4.653  0.00  0.00    -0.310 N 
ATOM     28  H   UNL     1       2.589  -5.668   4.876  0.00  0.00    +0.149 HD
BRANCH  27  29
ATOM     29  C   UNL     1       0.732  -5.017   5.675  0.00  0.00    +0.052 C 
ATOM     30  C   UNL     1       1.217  -5.636   6.977  0.00  0.00    +0.049 C 
ATOM     31  C   UNL     1       0.290  -6.743   7.526  0.00  0.00    +0.168 C 
ATOM     32  S   UNL     1      -0.604  -7.257   5.995  0.00  0.00    -0.029 S 
ATOM     33  O   UNL     1       0.204  -8.167   5.261  0.00  0.00    -0.174 OA
ATOM     34  O   UNL     1      -1.940  -7.609   6.326  0.00  0.00    -0.174 OA
ATOM     35  C   UNL     1      -0.594  -5.614   5.153  0.00  0.00    +0.191 C 
ATOM     36  C   UNL     1       0.535  -3.515   5.892  0.00  0.00    +0.033 C 
ENDBRANCH  27  29
ENDBRANCH  24  25
ENDBRANCH  15  24
TORSDOF 4
