REMARK  Name = ZINC43111740
REMARK  6 active torsions:
REMARK  status: ('A' for Active; 'I' for Inactive)
REMARK    1  A    between atoms: C_1  and  C_2
REMARK    2  A    between atoms: C_2  and  N_9
REMARK    3  A    between atoms: N_9  and  N_10
REMARK    4  A    between atoms: N_13  and  C_14
REMARK    5  A    between atoms: C_14  and  C_15
REMARK    6  A    between atoms: C_15  and  N_21
REMARK                            x       y       z     vdW  Elec       q    Type
REMARK                         _______ _______ _______ _____ _____    ______ ____
ROOT
ATOM      1  N   UNL     1      -0.627  -2.441  -6.936  0.00  0.00    -0.234 N 
ATOM      2  C   UNL     1       0.224  -1.714  -6.184  0.00  0.00    +0.313 C 
ATOM      3  O   UNL     1      -0.079  -0.589  -5.839  0.00  0.00    -0.252 OA
ATOM      4  N   UNL     1       1.410  -2.236  -5.814  0.00  0.00    -0.300 N 
ATOM      5  H   UNL     1      -1.481  -2.065  -7.202  0.00  0.00    +0.171 HD
ATOM      6  H   UNL     1       1.652  -3.134  -6.089  0.00  0.00    +0.150 HD
ENDROOT
BRANCH   1   7
ATOM      7  N   UNL     1      -0.286  -3.706  -7.323  0.00  0.00    -0.232 NA
ATOM      8  H   UNL     1      -0.065  -4.281  -6.524  0.00  0.00    +0.145 HD
BRANCH   7  10
ATOM      9  C   UNL     1      -2.634  -4.357  -7.297  0.00  0.00    +0.031 C 
ATOM     10  C   UNL     1      -1.352  -4.313  -8.131  0.00  0.00    +0.054 C 
ATOM     11  C   UNL     1      -1.595  -3.433  -9.357  0.00  0.00    +0.047 C 
ATOM     12  C   UNL     1      -0.686  -3.885 -10.534  0.00  0.00    +0.168 C 
ATOM     13  S   UNL     1      -0.791  -5.717 -10.318  0.00  0.00    -0.029 S 
ATOM     14  O   UNL     1      -2.001  -6.187 -10.897  0.00  0.00    -0.174 OA
ATOM     15  O   UNL     1       0.445  -6.304 -10.698  0.00  0.00    -0.174 OA
ATOM     16  C   UNL     1      -0.943  -5.757  -8.483  0.00  0.00    +0.189 C 
ENDBRANCH   7  10
ENDBRANCH   1   7
BRANCH   4  17
ATOM     17  C   UNL     1       2.335  -1.446  -4.997  0.00  0.00    +0.094 C 
BRANCH  17  18
ATOM     18  C   UNL     1       3.539  -2.309  -4.612  0.00  0.00    -0.050 C 
ATOM     19  C   UNL     1       4.438  -1.529  -3.651  0.00  0.00    -0.010 C 
ATOM     20  C   UNL     1       4.925  -0.249  -4.333  0.00  0.00    -0.001 C 
ATOM     21  C   UNL     1       5.716  -0.612  -5.592  0.00  0.00    -0.000 C 
ATOM     22  C   UNL     1       4.817  -1.391  -6.553  0.00  0.00    -0.001 C 
ATOM     23  C   UNL     1       4.330  -2.671  -5.870  0.00  0.00    -0.010 C 
BRANCH  18  24
ATOM     24  N   UNL     1       3.071  -3.538  -3.956  0.00  0.00    +0.384 N 
ATOM     25  C   UNL     1       2.276  -3.187  -2.773  0.00  0.00    -0.078 C 
ATOM     26  C   UNL     1       1.719  -4.460  -2.133  0.00  0.00    -0.019 C 
ATOM     27  C   UNL     1       2.881  -5.367  -1.718  0.00  0.00    -0.004 C 
ATOM     28  C   UNL     1       3.746  -5.666  -2.946  0.00  0.00    -0.019 C 
ATOM     29  C   UNL     1       4.228  -4.348  -3.557  0.00  0.00    -0.078 C 
ATOM     30  H   UNL     1       2.499  -4.064  -4.600  0.00  0.00    -0.081 HD
ENDBRANCH  18  24
ENDBRANCH  17  18
ENDBRANCH   4  17
TORSDOF 5
