REMARK  Name = ZINC42294529
REMARK  5 active torsions:
REMARK  status: ('A' for Active; 'I' for Inactive)
REMARK    1  A    between atoms: C_3  and  C_9
REMARK    2  A    between atoms: C_6  and  N_7
REMARK    3  A    between atoms: N_14  and  S_15
REMARK    4  A    between atoms: S_15  and  C_18
REMARK    5  A    between atoms: C_18  and  C_19
REMARK                            x       y       z     vdW  Elec       q    Type
REMARK                         _______ _______ _______ _____ _____    ______ ____
ROOT
ATOM      1  C   UNL     1       3.656   2.171  -0.022  0.00  0.00    +0.058 A 
ATOM      2  C   UNL     1       4.832   1.519   0.059  0.00  0.00    +0.075 A 
ATOM      3  S   UNL     1       6.010   2.860   0.009  0.00  0.00    -0.056 S 
ATOM      4  C   UNL     1       4.846   4.209  -0.117  0.00  0.00    +0.191 A 
ATOM      5  N   UNL     1       3.643   3.537  -0.118  0.00  0.00    -0.332 N 
ATOM      6  N   UNL     1       5.076   5.496  -0.194  0.00  0.00    -0.108 NA
ATOM      7  H   UNL     1       2.805   4.022  -0.181  0.00  0.00    +0.168 HD
ENDROOT
BRANCH   1  10
ATOM      8  C   UNL     1      -0.016   1.385   0.033  0.00  0.00    +0.023 A 
ATOM      9  C   UNL     1       1.167   2.093   0.025  0.00  0.00    +0.014 A 
ATOM     10  C   UNL     1       2.385   1.414  -0.013  0.00  0.00    +0.034 A 
ATOM     11  C   UNL     1       2.401   0.016  -0.044  0.00  0.00    +0.134 A 
ATOM     12  C   UNL     1       1.213  -0.686  -0.036  0.00  0.00    +0.061 A 
ATOM     13  C   UNL     1       0.002  -0.004   0.002  0.00  0.00    +0.027 A 
ATOM     14  F   UNL     1       3.578  -0.646  -0.082  0.00  0.00    -0.205 F 
BRANCH  13  15
ATOM     15  N   UNL     1      -1.199  -0.717   0.010  0.00  0.00    -0.358 N 
ATOM     16  H   UNL     1      -2.045  -0.243   0.037  0.00  0.00    +0.142 HD
ATOM     17  H   UNL     1      -1.188  -1.687  -0.011  0.00  0.00    +0.142 HD
ENDBRANCH  13  15
ENDBRANCH   1  10
BRANCH   6  18
ATOM     18  S   UNL     1       6.632   6.061  -0.181  0.00  0.00    +0.082 S 
ATOM     19  O   UNL     1       7.138   5.701   1.097  0.00  0.00    -0.151 OA
ATOM     20  O   UNL     1       7.218   5.539  -1.366  0.00  0.00    -0.151 OA
BRANCH  18  21
ATOM     21  C   UNL     1       6.474   7.864  -0.304  0.00  0.00    +0.317 C 
BRANCH  21  22
ATOM     22  C   UNL     1       7.845   8.490  -0.301  0.00  0.00    +0.379 C 
ATOM     23  O   UNL     1       8.836   7.785  -0.223  0.00  0.00    -0.244 OA
ATOM     24  O   UNL     1       7.962   9.701  -0.377  0.00  0.00    -0.244 OA
ENDBRANCH  21  22
ENDBRANCH  18  21
ENDBRANCH   6  18
TORSDOF 5
