REMARK  Name = ZINC35317487
REMARK  12 active torsions:
REMARK  status: ('A' for Active; 'I' for Inactive)
REMARK    1  A    between atoms: C_1  and  C_2
REMARK    2  A    between atoms: C_2  and  C_3
REMARK    3  A    between atoms: C_3  and  C_5
REMARK    4  A    between atoms: C_3  and  N_6
REMARK    5  A    between atoms: N_6  and  C_7
REMARK    6  A    between atoms: C_7  and  C_8
REMARK    7  A    between atoms: N_12  and  C_13
REMARK    8  A    between atoms: C_13  and  C_14
REMARK    9  A    between atoms: C_20  and  C_22
REMARK   10  A    between atoms: C_22  and  C_23
REMARK   11  A    between atoms: C_22  and  C_24
REMARK   12  A    between atoms: C_22  and  C_25
REMARK                            x       y       z     vdW  Elec       q    Type
REMARK                         _______ _______ _______ _____ _____    ______ ____
ROOT
ATOM      1  C   UNL     1       2.687   0.307  -1.360  0.00  0.00    +0.161 C 
ENDROOT
BRANCH   1   2
ATOM      2  C   UNL     1       2.280   1.758  -1.353  0.00  0.00    +0.036 A 
ATOM      3  C   UNL     1       2.048   2.509  -0.258  0.00  0.00    +0.024 A 
ATOM      4  C   UNL     1       1.696   3.800  -0.698  0.00  0.00    +0.019 A 
ATOM      5  C   UNL     1       1.727   3.789  -2.046  0.00  0.00    +0.086 A 
ATOM      6  N   UNL     1       2.091   2.540  -2.454  0.00  0.00    -0.345 N 
BRANCH   6   7
ATOM      7  C   UNL     1       2.248   2.109  -3.845  0.00  0.00    +0.156 C 
BRANCH   7   8
ATOM      8  C   UNL     1       0.960   1.495  -4.330  0.00  0.00    -0.028 A 
ATOM      9  C   UNL     1       0.788   0.124  -4.287  0.00  0.00    +0.005 A 
ATOM     10  C   UNL     1      -0.394  -0.439  -4.731  0.00  0.00    +0.000 A 
ATOM     11  C   UNL     1      -1.404   0.370  -5.218  0.00  0.00    +0.000 A 
ATOM     12  C   UNL     1      -1.233   1.741  -5.259  0.00  0.00    +0.000 A 
ATOM     13  C   UNL     1      -0.053   2.304  -4.811  0.00  0.00    +0.005 A 
ENDBRANCH   7   8
ENDBRANCH   6   7
ENDBRANCH   1   2
BRANCH   1  14
ATOM     14  N   UNL     1       2.286  -0.318  -0.097  0.00  0.00    -0.292 N 
ATOM     15  C   UNL     1       3.103  -0.257   0.974  0.00  0.00    +0.223 C 
ATOM     16  O   UNL     1       4.129   0.387   0.917  0.00  0.00    -0.275 OA
BRANCH  15  17
ATOM     17  C   UNL     1       2.739  -0.987   2.241  0.00  0.00    +0.055 C 
ATOM     18  C   UNL     1       1.415  -0.444   2.781  0.00  0.00    +0.022 C 
ATOM     19  C   UNL     1       2.595  -2.481   1.945  0.00  0.00    +0.022 C 
BRANCH  17  20
ATOM     20  C   UNL     1       3.839  -0.777   3.283  0.00  0.00    +0.124 C 
ATOM     21 CL   UNL     1       3.405  -1.651   4.800  0.00  0.00    -0.124 Cl
ENDBRANCH  17  20
ENDBRANCH  15  17
BRANCH  14  22
ATOM     22  C   UNL     1       0.999  -1.010   0.002  0.00  0.00    +0.073 C 
ATOM     23  C   UNL     1      -0.138   0.005  -0.134  0.00  0.00    +0.028 C 
BRANCH  22  25
ATOM     24  C   UNL     1       2.008  -3.084  -0.960  0.00  0.00    +0.005 C 
ATOM     25  C   UNL     1       0.891  -2.050  -1.116  0.00  0.00    +0.019 C 
ENDBRANCH  22  25
ENDBRANCH  14  22
ENDBRANCH   1  14
TORSDOF 8
