REMARK  Name = ZINC24107802
REMARK  7 active torsions:
REMARK  status: ('A' for Active; 'I' for Inactive)
REMARK    1  A    between atoms: C_1  and  C_2
REMARK    2  A    between atoms: C_11  and  N_31
REMARK    3  A    between atoms: C_13  and  S_15
REMARK    4  A    between atoms: S_15  and  C_16
REMARK    5  A    between atoms: C_16  and  C_17
REMARK    6  A    between atoms: N_19  and  C_20
REMARK    7  A    between atoms: N_19  and  C_28
REMARK                            x       y       z     vdW  Elec       q    Type
REMARK                         _______ _______ _______ _____ _____    ______ ____
ROOT
ATOM      1  C   UNL     1       2.134   1.816   2.664  0.00  0.00    +0.008 C 
ATOM      2  C   UNL     1       1.837   0.364   2.284  0.00  0.00    -0.009 C 
ATOM      3  C   UNL     1       0.322   0.153   2.206  0.00  0.00    +0.008 C 
ATOM      4  C   UNL     1       0.020  -1.214   1.592  0.00  0.00    +0.037 C 
ATOM      5  C   UNL     1       0.790  -2.284   2.362  0.00  0.00    -0.025 A 
ATOM      6  C   UNL     1       1.848  -1.947   3.133  0.00  0.00    -0.004 A 
ATOM      7  S   UNL     1       2.428  -3.475   3.826  0.00  0.00    -0.073 S 
ATOM      8  C   UNL     1       1.254  -4.563   3.083  0.00  0.00    +0.115 A 
ATOM      9  C   UNL     1       0.441  -3.695   2.312  0.00  0.00    +0.051 A 
ATOM     10  C   UNL     1      -0.624  -4.290   1.577  0.00  0.00    +0.129 A 
ATOM     11  N   UNL     1      -0.745  -5.611   1.692  0.00  0.00    -0.207 NA
ATOM     12  C   UNL     1       0.054  -6.364   2.434  0.00  0.00    +0.191 A 
ATOM     13  N   UNL     1       1.069  -5.867   3.145  0.00  0.00    -0.214 NA
ATOM     14  C   UNL     1       2.413  -0.576   3.353  0.00  0.00    +0.046 C 
ENDROOT
BRANCH  10  15
ATOM     15  N   UNL     1      -1.481  -3.541   0.791  0.00  0.00    -0.343 N 
ATOM     16  H   UNL     1      -1.195  -2.681   0.445  0.00  0.00    +0.144 HD
ATOM     17  H   UNL     1      -2.368  -3.876   0.587  0.00  0.00    +0.144 HD
ENDBRANCH  10  15
BRANCH  12  18
ATOM     18  S   UNL     1      -0.236  -8.101   2.483  0.00  0.00    -0.077 S 
BRANCH  18  19
ATOM     19  C   UNL     1      -1.673  -8.337   1.401  0.00  0.00    +0.173 C 
BRANCH  19  20
ATOM     20  C   UNL     1      -2.031  -9.800   1.354  0.00  0.00    +0.226 C 
ATOM     21  O   UNL     1      -1.440 -10.592   2.057  0.00  0.00    -0.275 OA
ATOM     22  N   UNL     1      -3.009 -10.228   0.531  0.00  0.00    -0.293 N 
BRANCH  22  23
ATOM     23  C   UNL     1      -3.438 -11.628   0.570  0.00  0.00    +0.099 C 
ATOM     24  C   UNL     1      -2.267 -12.533   0.155  0.00  0.00    +0.046 C 
ATOM     25  C   UNL     1      -2.643 -14.002   0.503  0.00  0.00    +0.168 C 
ATOM     26  S   UNL     1      -3.452 -13.764   2.141  0.00  0.00    -0.029 S 
ATOM     27  O   UNL     1      -4.644 -14.537   2.185  0.00  0.00    -0.174 OA
ATOM     28  O   UNL     1      -2.479 -13.920   3.165  0.00  0.00    -0.174 OA
ATOM     29  C   UNL     1      -3.897 -11.985   2.005  0.00  0.00    +0.188 C 
ENDBRANCH  22  23
BRANCH  22  30
ATOM     30  C   UNL     1      -3.642  -9.293  -0.403  0.00  0.00    +0.077 C 
ATOM     31  C   UNL     1      -4.955  -9.728  -1.056  0.00  0.00    +0.024 C 
ATOM     32  C   UNL     1      -3.668  -9.682  -1.882  0.00  0.00    +0.024 C 
ENDBRANCH  22  30
ENDBRANCH  19  20
ENDBRANCH  18  19
ENDBRANCH  12  18
TORSDOF 6
