REMARK  Name = ZINC36213832
REMARK  8 active torsions:
REMARK  status: ('A' for Active; 'I' for Inactive)
REMARK    1  A    between atoms: C_1  and  C_2
REMARK    2  A    between atoms: C_2  and  C_3
REMARK    3  A    between atoms: C_2  and  C_4
REMARK    4  A    between atoms: C_2  and  N_5
REMARK    5  A    between atoms: C_11  and  C_14
REMARK    6  A    between atoms: C_14  and  C_16
REMARK    7  A    between atoms: C_14  and  N_24
REMARK    8  A    between atoms: C_25  and  C_27
REMARK                            x       y       z     vdW  Elec       q    Type
REMARK                         _______ _______ _______ _____ _____    ______ ____
ROOT
ATOM      1  C   UNL     1       4.927  -3.852  -4.128  0.00  0.00    +0.162 C 
ENDROOT
BRANCH   1   8
ATOM      2  N   UNL     1       0.172  -0.455  -2.225  0.00  0.00    -0.294 N 
ATOM      3  C   UNL     1       1.466  -0.080  -2.256  0.00  0.00    +0.303 C 
ATOM      4  O   UNL     1       1.871   0.769  -1.485  0.00  0.00    -0.253 OA
ATOM      5  N   UNL     1       2.311  -0.645  -3.141  0.00  0.00    -0.286 N 
ATOM      6  C   UNL     1       1.814  -1.586  -4.154  0.00  0.00    +0.109 C 
ATOM      7  C   UNL     1       2.625  -2.882  -4.063  0.00  0.00    +0.025 C 
ATOM      8  C   UNL     1       4.116  -2.556  -4.184  0.00  0.00    +0.021 C 
ATOM      9  C   UNL     1       4.535  -1.642  -3.031  0.00  0.00    +0.025 C 
ATOM     10  C   UNL     1       3.745  -0.327  -3.114  0.00  0.00    +0.109 C 
ATOM     11  H   UNL     1      -0.168  -1.078  -2.887  0.00  0.00    +0.151 HD
BRANCH   2  13
ATOM     12  C   UNL     1      -0.781   1.602  -1.307  0.00  0.00    +0.031 C 
ATOM     13  C   UNL     1      -0.721   0.077  -1.193  0.00  0.00    +0.028 C 
ATOM     14  C   UNL     1      -0.191  -0.310   0.189  0.00  0.00    +0.031 C 
ATOM     15  C   UNL     1      -2.123  -0.504  -1.383  0.00  0.00    +0.031 C 
ENDBRANCH   2  13
ENDBRANCH   1   8
BRANCH   1  16
ATOM     16  C   UNL     1       6.384  -3.543  -4.355  0.00  0.00    +0.236 C 
ATOM     17  O   UNL     1       6.858  -3.635  -5.468  0.00  0.00    -0.274 OA
ATOM     18  N   UNL     1       7.162  -3.164  -3.322  0.00  0.00    -0.300 N 
ATOM     19  C   UNL     1       6.628  -3.140  -1.953  0.00  0.00    +0.108 C 
ATOM     20  C   UNL     1       7.549  -3.966  -1.050  0.00  0.00    +0.019 C 
ATOM     21  C   UNL     1       8.982  -3.443  -1.175  0.00  0.00    +0.003 C 
ATOM     22  C   UNL     1       9.459  -3.597  -2.621  0.00  0.00    +0.019 C 
ATOM     23  C   UNL     1       8.561  -2.773  -3.541  0.00  0.00    +0.108 C 
ENDBRANCH   1  16
BRANCH   1  24
ATOM     24  N   UNL     1       4.455  -4.769  -5.168  0.00  0.00    -0.299 N 
ATOM     25  C   UNL     1       4.512  -4.405  -6.465  0.00  0.00    +0.251 C 
ATOM     26  O   UNL     1       4.956  -3.314  -6.771  0.00  0.00    -0.270 OA
ATOM     27  H   UNL     1       4.101  -5.639  -4.924  0.00  0.00    +0.150 HD
BRANCH  25  28
ATOM     28  C   UNL     1       4.039  -5.323  -7.505  0.00  0.00    +0.074 A 
ATOM     29  C   UNL     1       4.016  -5.147  -8.881  0.00  0.00    +0.021 A 
ATOM     30  C   UNL     1       3.509  -6.197  -9.608  0.00  0.00    +0.008 A 
ATOM     31  C   UNL     1       3.077  -7.304  -8.955  0.00  0.00    +0.046 A 
ATOM     32  S   UNL     1       3.352  -6.959  -7.334  0.00  0.00    -0.092 S 
ENDBRANCH  25  28
ENDBRANCH   1  24
TORSDOF 5
