REMARK  Name = ZINC08820932
REMARK  4 active torsions:
REMARK  status: ('A' for Active; 'I' for Inactive)
REMARK    1  A    between atoms: C_5  and  C_7
REMARK    2  A    between atoms: C_10  and  C_12
REMARK    3  A    between atoms: N_18  and  C_19
REMARK    4  A    between atoms: C_23  and  C_25
REMARK                            x       y       z     vdW  Elec       q    Type
REMARK                         _______ _______ _______ _____ _____    ______ ____
ROOT
ATOM      1  C   UNL     1       2.321  -5.327  -1.256  0.00  0.00    +0.066 C 
ATOM      2  C   UNL     1       3.099  -5.125  -2.358  0.00  0.00    +0.081 C 
ATOM      3  C   UNL     1       3.559  -3.863  -2.957  0.00  0.00    +0.257 C 
ATOM      4  O   UNL     1       3.258  -2.785  -2.477  0.00  0.00    -0.269 OA
ATOM      5  N   UNL     1       4.314  -3.950  -4.039  0.00  0.00    -0.260 N 
ATOM      6  C   UNL     1       4.645  -5.179  -4.567  0.00  0.00    +0.166 C 
ATOM      7  N   UNL     1       5.378  -5.444  -5.625  0.00  0.00    -0.226 NA
ATOM      8  S   UNL     1       3.841  -6.323  -3.457  0.00  0.00    -0.049 S 
ATOM      9  H   UNL     1       4.638  -3.141  -4.465  0.00  0.00    +0.157 HD
ENDROOT
BRANCH   7  10
ATOM     10  C   UNL     1       5.598  -6.742  -5.998  0.00  0.00    +0.067 A 
ATOM     11  C   UNL     1       5.933  -7.701  -5.038  0.00  0.00    +0.029 A 
ATOM     12  C   UNL     1       6.152  -9.008  -5.420  0.00  0.00    +0.022 A 
ATOM     13  C   UNL     1       6.041  -9.371  -6.752  0.00  0.00    +0.053 A 
ATOM     14  C   UNL     1       5.710  -8.426  -7.708  0.00  0.00    +0.075 A 
ATOM     15  C   UNL     1       5.482  -7.116  -7.338  0.00  0.00    +0.041 A 
ATOM     16 CL   UNL     1       6.319 -11.018  -7.224  0.00  0.00    -0.083 Cl
BRANCH  14  17
ATOM     17  C   UNL     1       5.592  -8.830  -9.155  0.00  0.00    +0.419 C 
ATOM     18  F   UNL     1       5.251  -7.713  -9.925  0.00  0.00    -0.166 F 
ATOM     19  F   UNL     1       6.816  -9.345  -9.596  0.00  0.00    -0.166 F 
ATOM     20  F   UNL     1       4.600  -9.808  -9.287  0.00  0.00    -0.166 F 
ENDBRANCH  14  17
ENDBRANCH   7  10
BRANCH   1  24
ATOM     21  C   UNL     1       1.893  -2.212   0.424  0.00  0.00    +0.137 A 
ATOM     22  C   UNL     1       1.047  -2.984   1.170  0.00  0.00    +0.050 A 
ATOM     23  C   UNL     1       1.091  -4.275   0.637  0.00  0.00    +0.050 A 
ATOM     24  C   UNL     1       1.974  -4.238  -0.427  0.00  0.00    +0.130 A 
ATOM     25  O   UNL     1       2.441  -2.977  -0.538  0.00  0.00    -0.455 OA
BRANCH  21  30
ATOM     26  C   UNL     1       1.349   1.462   0.967  0.00  0.00    +0.001 A 
ATOM     27  C   UNL     1       2.653   1.921   1.030  0.00  0.00    +0.001 A 
ATOM     28  C   UNL     1       3.711   1.040   0.897  0.00  0.00    +0.021 A 
ATOM     29  C   UNL     1       3.472  -0.305   0.699  0.00  0.00    +0.052 A 
ATOM     30  C   UNL     1       2.157  -0.776   0.635  0.00  0.00    +0.036 A 
ATOM     31  C   UNL     1       1.094   0.121   0.771  0.00  0.00    +0.013 A 
ATOM     32 CL   UNL     1       4.801  -1.410   0.531  0.00  0.00    -0.083 Cl
ENDBRANCH  21  30
ENDBRANCH   1  24
TORSDOF 4
