REMARK  Name = ZINC13064594
REMARK  10 active torsions:
REMARK  status: ('A' for Active; 'I' for Inactive)
REMARK    1  A    between atoms: C_1  and  C_2
REMARK    2  A    between atoms: C_2  and  C_3
REMARK    3  A    between atoms: C_3  and  C_5
REMARK    4  A    between atoms: C_3  and  N_72
REMARK    5  A    between atoms: N_9  and  C_10
REMARK    6  A    between atoms: C_15  and  C_16
REMARK    7  A    between atoms: C_15  and  N_72
REMARK    8  A    between atoms: C_20  and  C_29
REMARK    9  A    between atoms: C_21  and  C_28
REMARK   10  A    between atoms: C_30  and  N_72
REMARK                            x       y       z     vdW  Elec       q    Type
REMARK                         _______ _______ _______ _____ _____    ______ ____
ROOT
ATOM      1  N   UNL     1      -5.374   4.218  -1.288  0.00  0.00    +0.391 N 
ATOM      2  H   UNL     1      -5.266   3.360  -1.842  0.00  0.00    -0.080 HD
ENDROOT
BRANCH   1   3
ATOM      3  C   UNL     1      -4.511   5.271  -1.863  0.00  0.00    -0.067 C 
ATOM      4  C   UNL     1      -4.789   6.618  -1.191  0.00  0.00    -0.015 C 
ATOM      5  C   UNL     1      -3.887   7.690  -1.806  0.00  0.00    -0.002 C 
ATOM      6  C   UNL     1      -4.175   7.800  -3.305  0.00  0.00    -0.000 C 
ATOM      7  C   UNL     1      -3.897   6.454  -3.977  0.00  0.00    -0.002 C 
ATOM      8  C   UNL     1      -4.799   5.381  -3.362  0.00  0.00    -0.015 C 
ENDBRANCH   1   3
BRANCH   1   9
ATOM      9  C   UNL     1      -6.789   4.643  -1.334  0.00  0.00    +0.003 C 
BRANCH   9  10
ATOM     10  C   UNL     1      -7.083   5.617  -0.222  0.00  0.00    +0.138 A 
ATOM     11  N   UNL     1      -6.749   5.489   1.039  0.00  0.00    -0.115 NA
ATOM     12  N   UNL     1      -7.177   6.526   1.672  0.00  0.00    -0.023 NA
ATOM     13  N   UNL     1      -7.776   7.313   0.847  0.00  0.00    -0.044 NA
ATOM     14  N   UNL     1      -7.734   6.789  -0.332  0.00  0.00    -0.228 N 
BRANCH  14  15
ATOM     15  C   UNL     1      -8.294   7.362  -1.558  0.00  0.00    +0.111 C 
ATOM     16  C   UNL     1      -7.677   8.751  -1.822  0.00  0.00    +0.027 C 
ATOM     17  C   UNL     1      -8.851   9.584  -2.397  0.00  0.00    +0.002 C 
ATOM     18  C   UNL     1     -10.061   9.089  -1.567  0.00  0.00    +0.002 C 
ATOM     19  C   UNL     1      -9.809   7.576  -1.397  0.00  0.00    +0.027 C 
ENDBRANCH  14  15
ENDBRANCH   9  10
BRANCH   9  21
ATOM     20  C   UNL     1      -7.481   2.482  -2.380  0.00  0.00    +0.002 C 
ATOM     21  C   UNL     1      -7.677   3.407  -1.177  0.00  0.00    -0.011 C 
ENDBRANCH   9  21
ENDBRANCH   1   9
BRANCH   1  22
ATOM     22  C   UNL     1      -4.973   3.943   0.107  0.00  0.00    -0.036 C 
BRANCH  22  23
ATOM     23  C   UNL     1      -3.686   3.160   0.096  0.00  0.00    +0.001 A 
ATOM     24  C   UNL     1      -2.524   3.766   0.447  0.00  0.00    +0.017 A 
ATOM     25  C   UNL     1      -1.291   2.977   0.426  0.00  0.00    -0.001 A 
ATOM     26  C   UNL     1      -0.062   3.546   0.778  0.00  0.00    +0.013 A 
ATOM     27  C   UNL     1       1.071   2.784   0.748  0.00  0.00    -0.047 A 
ATOM     28  C   UNL     1       1.014   1.449   0.371  0.00  0.00    -0.046 A 
ATOM     29  C   UNL     1      -0.185   0.867   0.021  0.00  0.00    +0.030 A 
ATOM     30  C   UNL     1      -1.351   1.626   0.038  0.00  0.00    +0.049 A 
ATOM     31  N   UNL     1      -2.565   1.068  -0.302  0.00  0.00    -0.322 N 
ATOM     32  H   UNL     1      -2.606   0.135  -0.565  0.00  0.00    +0.169 HD
ATOM     33  C   UNL     1      -3.693   1.800  -0.280  0.00  0.00    +0.251 A 
ATOM     34  O   UNL     1      -4.748   1.276  -0.592  0.00  0.00    -0.268 OA
ATOM     35  C   UNL     1       2.277   0.627   0.346  0.00  0.00    +0.044 C 
ATOM     36  C   UNL     1       2.394   3.397   1.126  0.00  0.00    +0.044 C 
ENDBRANCH  22  23
ENDBRANCH   1  22
TORSDOF 7
