REMARK  Name = ZINC14475923
REMARK  3 active torsions:
REMARK  status: ('A' for Active; 'I' for Inactive)
REMARK    1  A    between atoms: C_9  and  C_18
REMARK    2  A    between atoms: C_20  and  N_25
REMARK    3  A    between atoms: C_23  and  O_24
REMARK                            x       y       z     vdW  Elec       q    Type
REMARK                         _______ _______ _______ _____ _____    ______ ____
ROOT
ATOM      1  C   UNL     1      -0.017   1.379   0.010  0.00  0.00    +0.003 A 
ATOM      2  C   UNL     1       1.171   2.086   0.002  0.00  0.00    +0.006 A 
ATOM      3  C   UNL     1       2.378   1.420  -0.009  0.00  0.00    -0.017 A 
ATOM      4  C   UNL     1       2.407   0.022  -0.003  0.00  0.00    +0.067 A 
ATOM      5  C   UNL     1       1.206  -0.681  -0.004  0.00  0.00    +0.144 A 
ATOM      6  C   UNL     1       0.002  -0.004   0.002  0.00  0.00    +0.040 A 
ATOM      7  F   UNL     1       1.218  -2.032  -0.013  0.00  0.00    -0.204 F 
ATOM      8  N   UNL     1       3.616  -0.686   0.029  0.00  0.00    -0.334 N 
ATOM      9  C   UNL     1       4.917   0.019   0.019  0.00  0.00    +0.109 C 
ATOM     10  C   UNL     1       4.693   1.301   0.801  0.00  0.00    +0.029 C 
ATOM     11  C   UNL     1       3.676   2.129  -0.040  0.00  0.00    +0.049 C 
ATOM     12  C   UNL     1       3.832   3.506   0.497  0.00  0.00    -0.023 C 
ATOM     13  C   UNL     1       5.067   3.641   0.965  0.00  0.00    -0.030 C 
ATOM     14  C   UNL     1       5.845   2.315   0.826  0.00  0.00    +0.033 C 
ATOM     15  H   UNL     1       3.600  -1.655   0.057  0.00  0.00    +0.147 HD
ENDROOT
BRANCH   9  16
ATOM     16  C   UNL     1       5.328   0.334  -1.396  0.00  0.00    +0.017 A 
ATOM     17  C   UNL     1       4.369   0.461  -2.382  0.00  0.00    +0.041 A 
ATOM     18  C   UNL     1       4.745   0.750  -3.681  0.00  0.00    +0.127 A 
ATOM     19  C   UNL     1       6.082   0.913  -3.996  0.00  0.00    +0.036 A 
ATOM     20  C   UNL     1       7.045   0.787  -3.013  0.00  0.00    +0.048 A 
ATOM     21  C   UNL     1       6.669   0.503  -1.708  0.00  0.00    +0.122 A 
BRANCH  18  22
ATOM     22  N   UNL     1       3.716   0.885  -4.736  0.00  0.00    +0.056 N 
ATOM     23  O   UNL     1       2.547   0.742  -4.462  0.00  0.00    -0.126 OA
ATOM     24  O   UNL     1       4.044   1.138  -5.872  0.00  0.00    -0.126 OA
ENDBRANCH  18  22
BRANCH  21  25
ATOM     25  O   UNL     1       7.614   0.384  -0.738  0.00  0.00    -0.506 OA
ATOM     26  H   UNL     1       7.955  -0.515  -0.630  0.00  0.00    +0.292 HD
ENDBRANCH  21  25
ENDBRANCH   9  16
TORSDOF 3
