REMARK  Name = ZINC60319023
REMARK  9 active torsions:
REMARK  status: ('A' for Active; 'I' for Inactive)
REMARK    1  A    between atoms: C_1  and  C_2
REMARK    2  A    between atoms: C_2  and  C_3
REMARK    3  A    between atoms: C_3  and  C_4
REMARK    4  A    between atoms: C_4  and  C_5
REMARK    5  A    between atoms: C_5  and  C_7
REMARK    6  A    between atoms: C_5  and  N_24
REMARK    7  A    between atoms: N_9  and  C_10
REMARK    8  A    between atoms: C_13  and  S_16
REMARK    9  A    between atoms: S_16  and  C_17
REMARK                            x       y       z     vdW  Elec       q    Type
REMARK                         _______ _______ _______ _____ _____    ______ ____
ROOT
ATOM      1  C   UNL     1       1.277  -3.920  -3.294  0.00  0.00    +0.238 C 
ATOM      2  O   UNL     1       2.313  -4.518  -3.499  0.00  0.00    -0.273 OA
ATOM      3  N   UNL     1       0.131  -4.604  -3.106  0.00  0.00    -0.284 N 
ATOM      4  H   UNL     1      -0.682  -4.132  -2.866  0.00  0.00    +0.155 HD
ENDROOT
BRANCH   3   5
ATOM      5  C   UNL     1       0.113  -5.997  -3.256  0.00  0.00    +0.034 A 
ATOM      6  C   UNL     1      -1.000  -6.622  -3.804  0.00  0.00    +0.024 A 
ATOM      7  C   UNL     1      -1.018  -7.994  -3.953  0.00  0.00    +0.017 A 
ATOM      8  C   UNL     1       0.078  -8.750  -3.554  0.00  0.00    +0.013 A 
ATOM      9  C   UNL     1       1.192  -8.124  -3.007  0.00  0.00    +0.017 A 
ATOM     10  C   UNL     1       1.211  -6.752  -2.863  0.00  0.00    +0.024 A 
BRANCH   8  11
ATOM     11  S   UNL     1       0.056 -10.502  -3.743  0.00  0.00    -0.088 S 
BRANCH  11  12
ATOM     12  C   UNL     1       0.873 -10.775  -5.280  0.00  0.00    +0.031 A 
ATOM     13  C   UNL     1       1.282  -9.696  -6.053  0.00  0.00    +0.016 A 
ATOM     14  C   UNL     1       1.923  -9.914  -7.257  0.00  0.00    +0.001 A 
ATOM     15  C   UNL     1       2.158 -11.205  -7.694  0.00  0.00    +0.001 A 
ATOM     16  C   UNL     1       1.752 -12.283  -6.928  0.00  0.00    +0.021 A 
ATOM     17  C   UNL     1       1.115 -12.072  -5.719  0.00  0.00    +0.055 A 
ATOM     18 CL   UNL     1       0.613 -13.425  -4.754  0.00  0.00    -0.082 Cl
ENDBRANCH  11  12
ENDBRANCH   8  11
ENDBRANCH   3   5
BRANCH   1  19
ATOM     19  C   UNL     1       1.272  -2.414  -3.251  0.00  0.00    +0.161 C 
BRANCH  19  20
ATOM     20  N   UNL     1       2.463  -1.902  -3.933  0.00  0.00    -0.288 N 
ATOM     21  C   UNL     1       3.690  -2.236  -3.487  0.00  0.00    +0.298 C 
ATOM     22  O   UNL     1       3.809  -2.962  -2.519  0.00  0.00    -0.253 OA
ATOM     23  N   UNL     1       4.786  -1.764  -4.114  0.00  0.00    -0.313 N 
ATOM     24  H   UNL     1       2.369  -1.322  -4.705  0.00  0.00    +0.151 HD
ATOM     25  H   UNL     1       4.692  -1.185  -4.886  0.00  0.00    +0.146 HD
ATOM     26  H   UNL     1       5.670  -2.005  -3.794  0.00  0.00    +0.146 HD
ENDBRANCH  19  20
BRANCH  19  27
ATOM     27  C   UNL     1       1.276  -1.945  -1.795  0.00  0.00    +0.032 C 
BRANCH  27  28
ATOM     28  C   UNL     1       1.145  -0.422  -1.749  0.00  0.00    +0.002 C 
BRANCH  28  30
ATOM     29  C   UNL     1       1.019   1.570  -0.246  0.00  0.00    +0.004 C 
ATOM     30  C   UNL     1       1.150   0.047  -0.292  0.00  0.00    -0.003 C 
ENDBRANCH  28  30
ENDBRANCH  27  28
ENDBRANCH  19  27
ENDBRANCH   1  19
TORSDOF 8
