REMARK  Name = ZINC57608488
REMARK  13 active torsions:
REMARK  status: ('A' for Active; 'I' for Inactive)
REMARK    1  A    between atoms: C_1  and  C_2
REMARK    2  A    between atoms: C_4  and  C_39
REMARK    3  A    between atoms: C_9  and  C_14
REMARK    4  A    between atoms: C_14  and  C_16
REMARK    5  A    between atoms: C_14  and  N_25
REMARK    6  A    between atoms: N_20  and  C_21
REMARK    7  A    between atoms: C_21  and  C_22
REMARK    8  A    between atoms: C_22  and  O_23
REMARK    9  A    between atoms: O_23  and  C_24
REMARK   10  A    between atoms: N_25  and  C_26
REMARK   11  A    between atoms: N_25  and  C_33
REMARK   12  A    between atoms: C_26  and  C_27
REMARK   13  A    between atoms: C_33  and  C_34
REMARK                            x       y       z     vdW  Elec       q    Type
REMARK                         _______ _______ _______ _____ _____    ______ ____
ROOT
ATOM      1  C   UNL     1      -0.093  -5.606   3.087  0.00  0.00    +0.163 C 
ENDROOT
BRANCH   1  10
ATOM      2  C   UNL     1       0.070   0.241  -1.539  0.00  0.00    +0.044 C 
ATOM      3  C   UNL     1       0.065  -1.247  -1.302  0.00  0.00    -0.050 A 
ATOM      4  C   UNL     1       0.108  -2.116  -2.383  0.00  0.00    +0.008 A 
ATOM      5  C   UNL     1       0.104  -3.481  -2.189  0.00  0.00    -0.026 A 
ATOM      6  C   UNL     1       0.056  -3.994  -0.897  0.00  0.00    +0.052 A 
ATOM      7  C   UNL     1       0.012  -3.110   0.197  0.00  0.00    -0.001 A 
ATOM      8  C   UNL     1       0.022  -1.728  -0.024  0.00  0.00    +0.013 A 
ATOM      9  C   UNL     1      -0.039  -3.659   1.552  0.00  0.00    +0.021 A 
ATOM     10  C   UNL     1      -0.041  -5.007   1.705  0.00  0.00    +0.042 A 
ATOM     11  C   UNL     1       0.004  -5.851   0.575  0.00  0.00    +0.254 A 
ATOM     12  O   UNL     1       0.001  -7.059   0.735  0.00  0.00    -0.268 OA
ATOM     13  N   UNL     1       0.051  -5.355  -0.674  0.00  0.00    -0.322 N 
ATOM     14  H   UNL     1       0.081  -5.963  -1.429  0.00  0.00    +0.169 HD
ATOM     15  C   UNL     1       0.151  -4.413  -3.373  0.00  0.00    +0.046 C 
ENDBRANCH   1  10
BRANCH   1  16
ATOM     16  C   UNL     1       1.177  -6.373   3.350  0.00  0.00    +0.173 A 
ATOM     17  N   UNL     1       1.601  -7.430   2.701  0.00  0.00    -0.111 NA
ATOM     18  N   UNL     1       2.723  -7.793   3.222  0.00  0.00    -0.023 NA
ATOM     19  N   UNL     1       3.025  -6.995   4.185  0.00  0.00    -0.044 NA
ATOM     20  N   UNL     1       2.099  -6.102   4.292  0.00  0.00    -0.225 N 
BRANCH  20  21
ATOM     21  C   UNL     1       2.058  -5.003   5.260  0.00  0.00    +0.175 C 
BRANCH  21  22
ATOM     22  C   UNL     1       1.495  -5.513   6.588  0.00  0.00    +0.183 C 
BRANCH  22  23
ATOM     23  O   UNL     1       1.380  -4.425   7.506  0.00  0.00    -0.381 OA
ATOM     24  C   UNL     1       0.968  -4.812   8.818  0.00  0.00    +0.194 C 
ENDBRANCH  22  23
ENDBRANCH  21  22
ENDBRANCH  20  21
ENDBRANCH   1  16
BRANCH   1  25
ATOM     25  N   UNL     1      -1.243  -6.514   3.185  0.00  0.00    -0.277 NA
BRANCH  25  26
ATOM     26  C   UNL     1      -2.502  -5.799   2.934  0.00  0.00    +0.122 C 
BRANCH  26  27
ATOM     27  C   UNL     1      -2.696  -5.631   1.449  0.00  0.00    -0.015 A 
ATOM     28  C   UNL     1      -2.726  -4.365   0.883  0.00  0.00    +0.008 A 
ATOM     29  C   UNL     1      -2.908  -4.259  -0.487  0.00  0.00    +0.020 A 
ATOM     30  C   UNL     1      -3.052  -5.410  -1.238  0.00  0.00    +0.111 A 
ATOM     31  N   UNL     1      -3.019  -6.598  -0.667  0.00  0.00    -0.263 NA
ATOM     32  C   UNL     1      -2.842  -6.737   0.633  0.00  0.00    +0.115 A 
ENDBRANCH  26  27
ENDBRANCH  25  26
BRANCH  25  33
ATOM     33  C   UNL     1      -1.272  -7.189   4.489  0.00  0.00    +0.160 C 
BRANCH  33  34
ATOM     34  C   UNL     1      -0.460  -8.457   4.417  0.00  0.00    +0.119 A 
ATOM     35  C   UNL     1       0.806  -8.605   4.846  0.00  0.00    +0.046 A 
ATOM     36  C   UNL     1       1.172  -9.946   4.586  0.00  0.00    +0.041 A 
ATOM     37  C   UNL     1       0.108 -10.536   4.014  0.00  0.00    +0.195 A 
ATOM     38  O   UNL     1      -0.880  -9.631   3.920  0.00  0.00    -0.467 OA
ENDBRANCH  33  34
ENDBRANCH  25  33
ENDBRANCH   1  25
TORSDOF 10
