REMARK  Name = ZINC12492875
REMARK  10 active torsions:
REMARK  status: ('A' for Active; 'I' for Inactive)
REMARK    1  A    between atoms: C_1  and  C_2
REMARK    2  A    between atoms: C_4  and  O_12
REMARK    3  A    between atoms: C_5  and  C_9
REMARK    4  A    between atoms: C_9  and  C_10
REMARK    5  A    between atoms: C_9  and  C_11
REMARK    6  A    between atoms: O_12  and  C_13
REMARK    7  A    between atoms: C_13  and  C_14
REMARK    8  A    between atoms: N_16  and  N_17
REMARK    9  A    between atoms: C_18  and  C_20
REMARK   10  A    between atoms: C_24  and  N_26
REMARK                            x       y       z     vdW  Elec       q    Type
REMARK                         _______ _______ _______ _____ _____    ______ ____
ROOT
ATOM      1  C   UNL     1       0.018  -2.879  -4.780  0.00  0.00    +0.267 C 
ATOM      2  O   UNL     1       0.035  -4.082  -4.626  0.00  0.00    -0.271 OA
ATOM      3  N   UNL     1       0.004  -2.358  -6.023  0.00  0.00    -0.231 N 
ATOM      4  H   UNL     1      -0.010  -1.396  -6.146  0.00  0.00    +0.173 HD
ENDROOT
BRANCH   3   5
ATOM      5  N   UNL     1       0.010  -3.207  -7.138  0.00  0.00    -0.230 N 
ATOM      6  C   UNL     1      -0.004  -2.687  -8.381  0.00  0.00    +0.260 C 
ATOM      7  O   UNL     1      -0.021  -1.481  -8.535  0.00  0.00    -0.269 OA
ATOM      8  H   UNL     1       0.024  -4.169  -7.015  0.00  0.00    +0.173 HD
BRANCH   6   9
ATOM      9  C   UNL     1       0.002  -3.582  -9.557  0.00  0.00    +0.040 A 
ATOM     10  C   UNL     1       0.017  -4.967  -9.383  0.00  0.00    +0.014 A 
ATOM     11  C   UNL     1       0.022  -5.797 -10.484  0.00  0.00    +0.023 A 
ATOM     12  C   UNL     1       0.013  -5.260 -11.760  0.00  0.00    +0.071 A 
ATOM     13  C   UNL     1      -0.001  -3.886 -11.939  0.00  0.00    +0.145 A 
ATOM     14  C   UNL     1      -0.012  -3.046 -10.845  0.00  0.00    +0.047 A 
ATOM     15 CL   UNL     1       0.021  -6.311 -13.142  0.00  0.00    -0.081 Cl
BRANCH  13  16
ATOM     16  N   UNL     1      -0.010  -3.320 -13.306  0.00  0.00    +0.058 N 
ATOM     17  O   UNL     1      -0.022  -2.121 -13.464  0.00  0.00    -0.126 OA
ATOM     18  O   UNL     1      -0.005  -4.055 -14.266  0.00  0.00    -0.126 OA
ENDBRANCH  13  16
ENDBRANCH   6   9
ENDBRANCH   3   5
BRANCH   1  19
ATOM     19  C   UNL     1       0.011  -1.966  -3.581  0.00  0.00    +0.326 C 
BRANCH  19  20
ATOM     20  O   UNL     1       0.028  -2.749  -2.386  0.00  0.00    -0.482 OA
BRANCH  20  24
ATOM     21  C   UNL     1      -0.018   1.503   0.010  0.00  0.00    +0.045 C 
ATOM     22  C   UNL     1       0.002  -0.004   0.002  0.00  0.00    -0.033 A 
ATOM     23  C   UNL     1       0.006  -0.688  -1.199  0.00  0.00    +0.050 A 
ATOM     24  C   UNL     1       0.025  -2.075  -1.206  0.00  0.00    +0.125 A 
ATOM     25  C   UNL     1       0.041  -2.772  -0.006  0.00  0.00    -0.002 A 
ATOM     26  C   UNL     1       0.037  -2.085   1.192  0.00  0.00    +0.023 A 
ATOM     27  C   UNL     1       0.023  -0.702   1.196  0.00  0.00    +0.021 A 
ATOM     28 BR   UNL     1       0.025   0.237   2.838  0.00  0.00    -0.050 Br
BRANCH  25  29
ATOM     29  C   UNL     1       0.061  -4.279  -0.011  0.00  0.00    +0.016 C 
ATOM     30  C   UNL     1       1.321  -4.774   0.702  0.00  0.00    +0.012 C 
ATOM     31  C   UNL     1      -1.177  -4.809   0.715  0.00  0.00    +0.012 C 
ENDBRANCH  25  29
ENDBRANCH  20  24
ENDBRANCH  19  20
ENDBRANCH   1  19
TORSDOF 7
