REMARK  Name = ZINC39666175
REMARK  11 active torsions:
REMARK  status: ('A' for Active; 'I' for Inactive)
REMARK    1  A    between atoms: C_1  and  C_2
REMARK    2  A    between atoms: C_5  and  O_8
REMARK    3  A    between atoms: O_8  and  C_9
REMARK    4  A    between atoms: C_9  and  C_11
REMARK    5  A    between atoms: C_9  and  C_12
REMARK    6  A    between atoms: C_12  and  N_13
REMARK    7  A    between atoms: C_14  and  C_16
REMARK    8  A    between atoms: C_27  and  C_29
REMARK    9  A    between atoms: C_32  and  O_39
REMARK   10  A    between atoms: C_33  and  C_35
REMARK   11  A    between atoms: O_39  and  C_40
REMARK                            x       y       z     vdW  Elec       q    Type
REMARK                         _______ _______ _______ _____ _____    ______ ____
ROOT
ATOM      1  C   UNL     1      -5.871  -5.191  -2.635  0.00  0.00    +0.100 C 
ATOM      2  C   UNL     1      -4.854  -5.545  -3.743  0.00  0.00    +0.121 C 
ATOM      3  N   UNL     1      -4.387  -6.909  -3.400  0.00  0.00    -0.296 N 
ATOM      4  C   UNL     1      -5.606  -7.607  -2.926  0.00  0.00    +0.115 C 
ATOM      5  C   UNL     1      -6.365  -6.546  -2.104  0.00  0.00    -0.004 C 
ATOM      6  C   UNL     1      -6.029  -6.688  -0.623  0.00  0.00    -0.010 C 
ATOM      7  C   UNL     1      -6.580  -8.019  -0.104  0.00  0.00    -0.082 C 
ATOM      8  N   UNL     1      -8.034  -8.059  -0.302  0.00  0.00    +0.379 N 
ATOM      9  C   UNL     1      -8.345  -8.016  -1.736  0.00  0.00    -0.082 C 
ATOM     10  C   UNL     1      -7.869  -6.685  -2.324  0.00  0.00    -0.010 C 
ATOM     11  C   UNL     1      -3.137  -7.404  -3.497  0.00  0.00    +0.247 C 
ATOM     12  O   UNL     1      -2.920  -8.567  -3.220  0.00  0.00    -0.270 OA
ATOM     13  H   UNL     1      -8.402  -8.910   0.095  0.00  0.00    -0.086 HD
ATOM     14  H   UNL     1      -8.456  -7.266   0.157  0.00  0.00    -0.086 HD
ENDROOT
BRANCH  11  15
ATOM     15  C   UNL     1      -2.031  -6.532  -3.940  0.00  0.00    +0.038 A 
ATOM     16  C   UNL     1      -1.547  -5.530  -3.095  0.00  0.00    +0.016 A 
ATOM     17  C   UNL     1      -0.515  -4.720  -3.512  0.00  0.00    +0.047 A 
ATOM     18  C   UNL     1       0.045  -4.897  -4.772  0.00  0.00    +0.132 A 
ATOM     19  C   UNL     1      -0.434  -5.893  -5.616  0.00  0.00    +0.097 A 
ATOM     20  C   UNL     1      -1.462  -6.711  -5.204  0.00  0.00    +0.029 A 
BRANCH  19  21
ATOM     21  C   UNL     1       0.177  -6.080  -6.981  0.00  0.00    +0.421 C 
ATOM     22  F   UNL     1      -0.467  -7.134  -7.638  0.00  0.00    -0.166 F 
ATOM     23  F   UNL     1       0.026  -4.905  -7.724  0.00  0.00    -0.166 F 
ATOM     24  F   UNL     1       1.537  -6.376  -6.846  0.00  0.00    -0.166 F 
ENDBRANCH  19  21
BRANCH  18  25
ATOM     25  O   UNL     1       1.062  -4.096  -5.180  0.00  0.00    -0.495 OA
ATOM     26  C   UNL     1       1.579  -3.167  -4.225  0.00  0.00    +0.277 C 
ENDBRANCH  18  25
ENDBRANCH  11  15
BRANCH   1  28
ATOM     27  N   UNL     1      -5.924  -3.583  -0.756  0.00  0.00    -0.312 N 
ATOM     28  C   UNL     1      -5.199  -4.409  -1.536  0.00  0.00    +0.218 C 
ATOM     29  O   UNL     1      -4.006  -4.524  -1.352  0.00  0.00    -0.275 OA
ATOM     30  H   UNL     1      -6.889  -3.554  -0.846  0.00  0.00    +0.149 HD
BRANCH  27  31
ATOM     31  C   UNL     1      -5.254  -2.729   0.228  0.00  0.00    +0.148 C 
BRANCH  31  32
ATOM     32  C   UNL     1      -6.281  -1.804   0.884  0.00  0.00    +0.187 C 
ATOM     33  C   UNL     1      -5.746  -1.324   2.235  0.00  0.00    +0.053 C 
BRANCH  32  34
ATOM     34  O   UNL     1      -6.518  -0.677   0.038  0.00  0.00    -0.488 OA
BRANCH  34  39
ATOM     35  C   UNL     1     -11.247   2.247   0.936  0.00  0.00    +0.044 C 
ATOM     36  C   UNL     1      -9.981   1.465   0.696  0.00  0.00    -0.050 A 
ATOM     37  C   UNL     1      -9.122   1.838  -0.321  0.00  0.00    +0.007 A 
ATOM     38  C   UNL     1      -7.961   1.122  -0.543  0.00  0.00    +0.046 A 
ATOM     39  C   UNL     1      -7.659   0.029   0.255  0.00  0.00    +0.121 A 
ATOM     40  C   UNL     1      -8.523  -0.343   1.275  0.00  0.00    +0.046 A 
ATOM     41  C   UNL     1      -9.679   0.379   1.496  0.00  0.00    +0.007 A 
ENDBRANCH  34  39
ENDBRANCH  32  34
ENDBRANCH  31  32
ENDBRANCH  27  31
ENDBRANCH   1  28
TORSDOF 8
