REMARK  Name = ZINC03340259
REMARK  4 active torsions:
REMARK  status: ('A' for Active; 'I' for Inactive)
REMARK    1  A    between atoms: C_1  and  N_2
REMARK    2  A    between atoms: N_4  and  N_14
REMARK    3  A    between atoms: C_5  and  C_8
REMARK    4  A    between atoms: C_15  and  C_16
REMARK                            x       y       z     vdW  Elec       q    Type
REMARK                         _______ _______ _______ _____ _____    ______ ____
ROOT
ATOM      1  C   UNL     1       0.181   8.664  -0.539  0.00  0.00    +0.173 C 
ATOM      2  N   UNL     1      -0.035   7.217  -0.463  0.00  0.00    -0.263 NA
ATOM      3  C   UNL     1      -1.249   6.742  -0.338  0.00  0.00    +0.189 A 
ATOM      4  N   UNL     1      -1.667   5.430  -0.249  0.00  0.00    -0.208 N 
ATOM      5  C   UNL     1      -3.006   5.178  -0.117  0.00  0.00    +0.082 A 
ATOM      6  C   UNL     1      -3.879   6.206  -0.081  0.00  0.00    +0.077 A 
ATOM      7  S   UNL     1      -2.800   7.621  -0.239  0.00  0.00    -0.056 S 
ENDROOT
BRANCH   5   8
ATOM      8  C   UNL     1      -3.494   3.786  -0.013  0.00  0.00    +0.001 A 
ATOM      9  C   UNL     1      -2.794   2.750  -0.634  0.00  0.00    +0.010 A 
ATOM     10  C   UNL     1      -3.251   1.453  -0.529  0.00  0.00    +0.001 A 
ATOM     11  C   UNL     1      -4.407   1.179   0.180  0.00  0.00    +0.000 A 
ATOM     12  C   UNL     1      -5.109   2.201   0.792  0.00  0.00    +0.001 A 
ATOM     13  C   UNL     1      -4.660   3.502   0.700  0.00  0.00    +0.010 A 
ENDBRANCH   5   8
BRANCH   4  14
ATOM     14  N   UNL     1      -0.741   4.379  -0.288  0.00  0.00    -0.172 NA
ATOM     15  C   UNL     1       0.392   4.534  -0.906  0.00  0.00    +0.143 C 
BRANCH  15  16
ATOM     16  C   UNL     1       1.419   3.482  -0.834  0.00  0.00    +0.020 A 
ATOM     17  C   UNL     1       2.605   3.457  -1.500  0.00  0.00    +0.093 A 
ATOM     18  N   UNL     1       3.289   2.323  -1.177  0.00  0.00    -0.360 N 
ATOM     19  H   UNL     1       4.162   2.083  -1.527  0.00  0.00    +0.165 HD
ATOM     20  C   UNL     1       2.563   1.566  -0.282  0.00  0.00    +0.047 A 
ATOM     21  C   UNL     1       1.364   2.251  -0.026  0.00  0.00    +0.008 A 
ATOM     22  C   UNL     1       0.427   1.713   0.853  0.00  0.00    +0.010 A 
ATOM     23  C   UNL     1       0.682   0.506   1.466  0.00  0.00    +0.001 A 
ATOM     24  C   UNL     1       1.865  -0.172   1.214  0.00  0.00    +0.002 A 
ATOM     25  C   UNL     1       2.802   0.348   0.347  0.00  0.00    +0.026 A 
ENDBRANCH  15  16
ENDBRANCH   4  14
TORSDOF 3
