REMARK  Name = ZINC20150739
REMARK  13 active torsions:
REMARK  status: ('A' for Active; 'I' for Inactive)
REMARK    1  A    between atoms: C_1  and  C_2
REMARK    2  A    between atoms: C_2  and  C_3
REMARK    3  A    between atoms: C_3  and  C_4
REMARK    4  A    between atoms: C_4  and  C_37
REMARK    5  A    between atoms: C_9  and  C_12
REMARK    6  A    between atoms: C_15  and  O_20
REMARK    7  A    between atoms: C_17  and  O_18
REMARK    8  A    between atoms: O_18  and  C_19
REMARK    9  A    between atoms: O_20  and  C_21
REMARK   10  A    between atoms: N_24  and  C_27
REMARK   11  A    between atoms: C_37  and  O_39
REMARK   12  A    between atoms: O_39  and  C_40
REMARK   13  A    between atoms: C_40  and  C_41
REMARK                            x       y       z     vdW  Elec       q    Type
REMARK                         _______ _______ _______ _____ _____    ______ ____
ROOT
ATOM      1  C   UNL     1       0.771  -2.019  -1.344  0.00  0.00    +0.044 C 
ATOM      2  C   UNL     1       1.629  -2.529  -2.497  0.00  0.00    +0.086 C 
ATOM      3  C   UNL     1       3.032  -2.204  -1.856  0.00  0.00    +0.077 C 
ATOM      4  C   UNL     1       2.924  -2.757  -0.500  0.00  0.00    -0.023 C 
ATOM      5  N   UNL     1       1.474  -2.558  -0.134  0.00  0.00    +0.395 N 
ATOM      6  C   UNL     1       3.904  -2.252  -3.004  0.00  0.00    +0.229 C 
ATOM      7  O   UNL     1       5.059  -2.620  -3.039  0.00  0.00    -0.275 OA
ATOM      8  N   UNL     1       3.142  -1.791  -4.048  0.00  0.00    -0.210 N 
ATOM      9  C   UNL     1       1.797  -1.726  -3.749  0.00  0.00    +0.229 C 
ATOM     10  O   UNL     1       0.929  -1.142  -4.361  0.00  0.00    -0.275 OA
ATOM     11  H   UNL     1       1.393  -1.902   0.629  0.00  0.00    -0.083 HD
ATOM     12  H   UNL     1       1.071  -3.444   0.130  0.00  0.00    -0.083 HD
ENDROOT
BRANCH   8  13
ATOM     13  C   UNL     1       3.671  -1.432  -5.297  0.00  0.00    +0.048 A 
ATOM     14  C   UNL     1       2.831  -0.968  -6.300  0.00  0.00    +0.028 A 
ATOM     15  C   UNL     1       3.352  -0.616  -7.530  0.00  0.00    +0.051 A 
ATOM     16  C   UNL     1       4.714  -0.724  -7.768  0.00  0.00    +0.162 A 
ATOM     17  C   UNL     1       5.558  -1.186  -6.764  0.00  0.00    +0.164 A 
ATOM     18  C   UNL     1       5.035  -1.536  -5.529  0.00  0.00    +0.073 A 
ATOM     19  O   UNL     1       6.899  -1.292  -6.976  0.00  0.00    -0.485 OA
ATOM     20  C   UNL     1       7.338  -1.283  -8.338  0.00  0.00    +0.270 C 
ATOM     21  C   UNL     1       6.618  -0.141  -9.068  0.00  0.00    +0.270 C 
ATOM     22  O   UNL     1       5.208  -0.376  -8.988  0.00  0.00    -0.485 OA
ENDBRANCH   8  13
BRANCH   4  23
ATOM     23  C   UNL     1       3.297  -4.217  -0.496  0.00  0.00    -0.019 A 
ATOM     24  C   UNL     1       2.318  -5.180  -0.655  0.00  0.00    +0.009 A 
ATOM     25  C   UNL     1       2.657  -6.519  -0.652  0.00  0.00    +0.046 A 
ATOM     26  C   UNL     1       3.982  -6.901  -0.488  0.00  0.00    +0.124 A 
ATOM     27  C   UNL     1       4.965  -5.937  -0.328  0.00  0.00    +0.091 A 
ATOM     28  C   UNL     1       4.623  -4.593  -0.337  0.00  0.00    +0.125 A 
BRANCH  28  29
ATOM     29  O   UNL     1       5.585  -3.646  -0.186  0.00  0.00    -0.495 OA
ATOM     30  C   UNL     1       6.929  -4.105  -0.029  0.00  0.00    +0.277 C 
ENDBRANCH  28  29
BRANCH  26  31
ATOM     31  O   UNL     1       4.314  -8.218  -0.485  0.00  0.00    -0.495 OA
ATOM     32  C   UNL     1       3.250  -9.157  -0.655  0.00  0.00    +0.277 C 
ENDBRANCH  26  31
ENDBRANCH   4  23
BRANCH   1  33
ATOM     33  C   UNL     1      -0.630  -2.568  -1.435  0.00  0.00    +0.297 C 
ATOM     34  O   UNL     1      -1.092  -2.869  -2.510  0.00  0.00    -0.252 OA
BRANCH  33  35
ATOM     35  O   UNL     1      -1.363  -2.724  -0.321  0.00  0.00    -0.466 OA
BRANCH  35  36
ATOM     36  C   UNL     1      -2.682  -3.250  -0.481  0.00  0.00    +0.228 C 
ATOM     37  C   UNL     1      -3.359  -3.354   0.887  0.00  0.00    +0.048 C 
ENDBRANCH  35  36
ENDBRANCH  33  35
ENDBRANCH   1  33
BRANCH   1  38
ATOM     38  C   UNL     1       0.749  -0.490  -1.321  0.00  0.00    -0.001 C 
BRANCH  38  40
ATOM     39  C   UNL     1      -0.070   1.520  -0.084  0.00  0.00    +0.004 C 
ATOM     40  C   UNL     1      -0.049  -0.009  -0.107  0.00  0.00    -0.004 C 
ENDBRANCH  38  40
ENDBRANCH   1  38
TORSDOF 9
