REMARK  Name = ZINC37257002
REMARK  3 active torsions:
REMARK  status: ('A' for Active; 'I' for Inactive)
REMARK    1  A    between atoms: C_1  and  C_2
REMARK    2  A    between atoms: C_7  and  N_10
REMARK    3  A    between atoms: C_13  and  C_21
REMARK                            x       y       z     vdW  Elec       q    Type
REMARK                         _______ _______ _______ _____ _____    ______ ____
ROOT
ATOM      1  N   UNL     1       1.417  -2.529   0.015  0.00  0.00    -0.328 N 
ATOM      2  C   UNL     1       2.035  -3.771   0.011  0.00  0.00    +0.098 A 
ATOM      3  C   UNL     1       1.967  -4.564   1.166  0.00  0.00    +0.057 A 
ATOM      4  C   UNL     1       2.582  -5.808   1.175  0.00  0.00    +0.075 A 
ATOM      5  C   UNL     1       3.276  -6.223  -0.046  0.00  0.00    +0.013 A 
ATOM      6  C   UNL     1       3.925  -7.459  -0.134  0.00  0.00    +0.011 A 
ATOM      7  C   UNL     1       4.559  -7.806  -1.290  0.00  0.00    +0.001 A 
ATOM      8  C   UNL     1       4.570  -6.944  -2.384  0.00  0.00    +0.002 A 
ATOM      9  C   UNL     1       3.948  -5.734  -2.331  0.00  0.00    +0.026 A 
ATOM     10  C   UNL     1       3.283  -5.343  -1.155  0.00  0.00    +0.049 A 
ATOM     11  N   UNL     1       2.659  -4.164  -1.076  0.00  0.00    -0.343 N 
ATOM     12  H   UNL     1       1.450  -1.968  -0.775  0.00  0.00    +0.148 HD
ATOM     13  H   UNL     1       2.671  -3.575  -1.847  0.00  0.00    +0.167 HD
ENDROOT
BRANCH   1  19
ATOM     14  C   UNL     1      -0.103   1.491  -0.018  0.00  0.00    +0.007 C 
ATOM     15  C   UNL     1      -0.062  -0.039  -0.026  0.00  0.00    -0.012 C 
ATOM     16  C   UNL     1      -1.490  -0.587  -0.028  0.00  0.00    +0.003 C 
ATOM     17  C   UNL     1      -1.450  -2.116  -0.035  0.00  0.00    +0.002 C 
ATOM     18  C   UNL     1      -0.715  -2.613   1.211  0.00  0.00    +0.022 C 
ATOM     19  C   UNL     1       0.714  -2.065   1.214  0.00  0.00    +0.072 C 
ATOM     20  C   UNL     1       0.673  -0.535   1.221  0.00  0.00    +0.025 C 
ENDBRANCH   1  19
BRANCH   4  21
ATOM     21  C   UNL     1       2.537  -6.679   2.367  0.00  0.00    +0.387 C 
ATOM     22  O   UNL     1       2.046  -6.266   3.407  0.00  0.00    -0.241 OA
ATOM     23  O   UNL     1       2.992  -7.812   2.313  0.00  0.00    -0.241 OA
ENDBRANCH   4  21
TORSDOF 2
