REMARK  Name = ZINC27557871
REMARK  16 active torsions:
REMARK  status: ('A' for Active; 'I' for Inactive)
REMARK    1  A    between atoms: C_1  and  C_2
REMARK    2  A    between atoms: C_2  and  C_3
REMARK    3  A    between atoms: C_3  and  C_4
REMARK    4  A    between atoms: C_4  and  N_5
REMARK    5  A    between atoms: N_5  and  C_6
REMARK    6  A    between atoms: C_7  and  N_19
REMARK    7  A    between atoms: N_8  and  C_15
REMARK    8  A    between atoms: C_15  and  C_16
REMARK    9  A    between atoms: C_16  and  C_17
REMARK   10  A    between atoms: C_16  and  C_18
REMARK   11  A    between atoms: C_20  and  C_22
REMARK   12  A    between atoms: C_22  and  N_23
REMARK   13  A    between atoms: N_23  and  C_24
REMARK   14  A    between atoms: N_23  and  C_25
REMARK   15  A    between atoms: C_25  and  C_27
REMARK   16  A    between atoms: C_25  and  C_28
REMARK                            x       y       z     vdW  Elec       q    Type
REMARK                         _______ _______ _______ _____ _____    ______ ____
ROOT
ATOM      1  N   UNL     1      -1.365  -0.513   0.014  0.00  0.00    -0.266 N 
ATOM      2  C   UNL     1      -1.864  -0.845   1.223  0.00  0.00    +0.203 C 
ATOM      3  O   UNL     1      -2.957  -1.366   1.306  0.00  0.00    -0.277 OA
ENDROOT
BRANCH   1   4
ATOM      4  C   UNL     1      -2.157  -0.668  -1.143  0.00  0.00    +0.140 A 
ATOM      5  C   UNL     1      -1.809  -1.585  -2.114  0.00  0.00    +0.127 A 
ATOM      6  N   UNL     1      -2.602  -1.714  -3.231  0.00  0.00    -0.280 N 
ATOM      7  C   UNL     1      -3.703  -0.956  -3.375  0.00  0.00    +0.331 A 
ATOM      8  O   UNL     1      -4.391  -1.085  -4.370  0.00  0.00    -0.246 OA
ATOM      9  N   UNL     1      -4.058  -0.057  -2.440  0.00  0.00    -0.273 N 
ATOM     10  H   UNL     1      -4.960   0.557  -2.580  0.00  0.00    +0.173 HD
ATOM     11  C   UNL     1      -3.319   0.105  -1.325  0.00  0.00    +0.277 A 
ATOM     12  O   UNL     1      -3.652   0.919  -0.480  0.00  0.00    -0.266 OA
BRANCH   5  13
ATOM     13  N   UNL     1      -0.683  -2.360  -1.967  0.00  0.00    -0.343 N 
ATOM     14  H   UNL     1      -0.412  -3.089  -2.745  0.00  0.00    +0.144 HD
ATOM     15  H   UNL     1      -0.054  -2.251  -1.071  0.00  0.00    +0.144 HD
ENDBRANCH   5  13
BRANCH   6  16
ATOM     16  C   UNL     1      -2.244  -2.683  -4.269  0.00  0.00    +0.131 C 
BRANCH  16  17
ATOM     17  C   UNL     1      -2.902  -4.029  -3.959  0.00  0.00    +0.003 C 
ATOM     18  C   UNL     1      -4.423  -3.885  -4.046  0.00  0.00    +0.009 C 
ATOM     19  C   UNL     1      -2.430  -5.074  -4.973  0.00  0.00    +0.009 C 
ENDBRANCH  16  17
ENDBRANCH   6  16
ENDBRANCH   1   4
BRANCH   1  20
ATOM     20  C   UNL     1      -0.000   0.009  -0.097  0.00  0.00    +0.114 C 
BRANCH  20  21
ATOM     21  C   UNL     1      -0.037   1.538  -0.091  0.00  0.00    +0.019 C 
BRANCH  21  23
ATOM     22  C   UNL     1       1.351   3.612  -0.202  0.00  0.00    +0.004 C 
ATOM     23  C   UNL     1       1.388   2.083  -0.207  0.00  0.00    -0.002 C 
ENDBRANCH  21  23
ENDBRANCH  20  21
ENDBRANCH   1  20
BRANCH   2  24
ATOM     24  C   UNL     1      -1.065  -0.567   2.470  0.00  0.00    +0.020 C 
BRANCH  24  25
ATOM     25  N   UNL     1      -1.821  -1.018   3.646  0.00  0.00    +0.388 N 
ATOM     26  C   UNL     1      -1.974  -2.479   3.647  0.00  0.00    -0.095 C 
ATOM     27  H   UNL     1      -2.826  -0.573   3.593  0.00  0.00    -0.081 HD
BRANCH  25  28
ATOM     28  C   UNL     1      -1.188  -0.554   4.888  0.00  0.00    -0.041 C 
ATOM     29  C   UNL     1      -1.136   0.975   4.894  0.00  0.00    -0.008 C 
BRANCH  28  30
ATOM     30  C   UNL     1      -1.990  -1.034   6.070  0.00  0.00    -0.061 A 
ATOM     31  C   UNL     1      -3.371  -1.016   6.021  0.00  0.00    +0.005 A 
ATOM     32  C   UNL     1      -4.108  -1.461   7.103  0.00  0.00    +0.038 A 
ATOM     33  C   UNL     1      -3.461  -1.915   8.240  0.00  0.00    +0.123 A 
ATOM     34  C   UNL     1      -2.078  -1.927   8.290  0.00  0.00    +0.038 A 
ATOM     35  C   UNL     1      -1.343  -1.487   7.205  0.00  0.00    +0.005 A 
ATOM     36  F   UNL     1      -4.180  -2.344   9.300  0.00  0.00    -0.205 F 
ENDBRANCH  28  30
ENDBRANCH  25  28
ENDBRANCH  24  25
ENDBRANCH   2  24
TORSDOF 11
