REMARK  Name = ZINC16792316
REMARK  8 active torsions:
REMARK  status: ('A' for Active; 'I' for Inactive)
REMARK    1  A    between atoms: C_1  and  C_2
REMARK    2  A    between atoms: C_2  and  C_4
REMARK    3  A    between atoms: C_2  and  S_13
REMARK    4  A    between atoms: S_13  and  C_14
REMARK    5  A    between atoms: C_17  and  C_20
REMARK    6  A    between atoms: N_18  and  N_19
REMARK    7  A    between atoms: C_23  and  O_26
REMARK    8  A    between atoms: O_26  and  C_27
REMARK                            x       y       z     vdW  Elec       q    Type
REMARK                         _______ _______ _______ _____ _____    ______ ____
ROOT
ATOM      1  C   UNL     1      -2.649  -3.068  -0.617  0.00  0.00    +0.209 A 
ATOM      2  N   UNL     1      -3.731  -2.403  -0.281  0.00  0.00    -0.121 NA
ATOM      3  N   UNL     1      -4.769  -3.147  -0.422  0.00  0.00    -0.127 NA
ATOM      4  C   UNL     1      -4.413  -4.334  -0.857  0.00  0.00    +0.182 A 
ATOM      5  N   UNL     1      -3.045  -4.318  -1.000  0.00  0.00    -0.224 N 
ENDROOT
BRANCH   4   6
ATOM      6  C   UNL     1      -5.313  -5.471  -1.145  0.00  0.00    +0.021 A 
ATOM      7  C   UNL     1      -4.790  -6.755  -1.305  0.00  0.00    +0.015 A 
ATOM      8  C   UNL     1      -5.633  -7.813  -1.569  0.00  0.00    +0.046 A 
ATOM      9  C   UNL     1      -7.001  -7.601  -1.685  0.00  0.00    +0.127 A 
ATOM     10  C   UNL     1      -7.525  -6.324  -1.532  0.00  0.00    +0.046 A 
ATOM     11  C   UNL     1      -6.689  -5.261  -1.263  0.00  0.00    +0.015 A 
BRANCH   9  12
ATOM     12  O   UNL     1      -7.828  -8.645  -1.951  0.00  0.00    -0.434 OA
BRANCH  12  13
ATOM     13  C   UNL     1      -7.223  -9.931  -2.097  0.00  0.00    +0.541 C 
ATOM     14  F   UNL     1      -6.308  -9.899  -3.154  0.00  0.00    -0.166 F 
ATOM     15  F   UNL     1      -6.557 -10.271  -0.914  0.00  0.00    -0.166 F 
ENDBRANCH  12  13
ENDBRANCH   9  12
ENDBRANCH   4   6
BRANCH   5  16
ATOM     16  N   UNL     1      -2.248  -5.340  -1.433  0.00  0.00    -0.295 N 
ATOM     17  H   UNL     1      -1.943  -5.912  -0.660  0.00  0.00    +0.163 HD
ATOM     18  H   UNL     1      -2.720  -5.895  -2.131  0.00  0.00    +0.163 HD
ENDBRANCH   5  16
BRANCH   1  19
ATOM     19  S   UNL     1      -0.996  -2.458  -0.585  0.00  0.00    -0.072 S 
BRANCH  19  21
ATOM     20  C   UNL     1      -1.845  -0.829   1.436  0.00  0.00    +0.029 C 
ATOM     21  C   UNL     1      -1.293  -0.775   0.010  0.00  0.00    +0.137 C 
BRANCH  21  22
ATOM     22  C   UNL     1       0.002  -0.004   0.002  0.00  0.00    +0.229 C 
ATOM     23  O   UNL     1       1.060  -0.596  -0.011  0.00  0.00    -0.274 OA
ATOM     24  N   UNL     1      -0.016   1.344   0.009  0.00  0.00    -0.301 N 
ATOM     25  C   UNL     1      -1.294   2.019   0.019  0.00  0.00    +0.108 C 
ATOM     26  C   UNL     1      -1.776   2.254  -1.428  0.00  0.00    +0.019 C 
ATOM     27  C   UNL     1      -0.958   3.290  -2.076  0.00  0.00    +0.002 C 
ATOM     28  C   UNL     1       0.517   2.927  -2.221  0.00  0.00    +0.002 C 
ATOM     29  C   UNL     1       1.246   3.280  -0.949  0.00  0.00    +0.019 C 
ATOM     30  C   UNL     1       1.269   2.069   0.001  0.00  0.00    +0.108 C 
ENDBRANCH  21  22
ENDBRANCH  19  21
ENDBRANCH   1  19
TORSDOF 7
