REMARK  Name = ZINC14018975
REMARK  9 active torsions:
REMARK  status: ('A' for Active; 'I' for Inactive)
REMARK    1  A    between atoms: C_1  and  C_2
REMARK    2  A    between atoms: C_2  and  C_3
REMARK    3  A    between atoms: C_2  and  C_4
REMARK    4  A    between atoms: C_7  and  C_10
REMARK    5  A    between atoms: C_11  and  C_21
REMARK    6  A    between atoms: N_13  and  C_15
REMARK    7  A    between atoms: N_23  and  C_24
REMARK    8  A    between atoms: N_23  and  C_25
REMARK    9  A    between atoms: C_25  and  C_26
REMARK                            x       y       z     vdW  Elec       q    Type
REMARK                         _______ _______ _______ _____ _____    ______ ____
ROOT
ATOM      1  C   UNL     1      -1.249   4.307  -3.625  0.00  0.00    +0.105 A 
ATOM      2  C   UNL     1      -1.353   3.098  -2.803  0.00  0.00    +0.083 A 
ATOM      3  C   UNL     1      -2.402   2.365  -3.318  0.00  0.00    +0.128 A 
ATOM      4  N   UNL     1      -2.913   3.050  -4.356  0.00  0.00    -0.239 N 
ATOM      5  N   UNL     1      -2.195   4.236  -4.535  0.00  0.00    -0.166 NA
ENDROOT
BRANCH   1   9
ATOM      6  C   UNL     1       1.578   7.448  -3.159  0.00  0.00    -0.045 A 
ATOM      7  C   UNL     1       1.155   7.084  -4.425  0.00  0.00    +0.004 A 
ATOM      8  C   UNL     1       0.238   6.065  -4.582  0.00  0.00    +0.010 A 
ATOM      9  C   UNL     1      -0.263   5.403  -3.463  0.00  0.00    +0.003 A 
ATOM     10  C   UNL     1       0.162   5.778  -2.189  0.00  0.00    +0.010 A 
ATOM     11  C   UNL     1       1.084   6.794  -2.044  0.00  0.00    +0.004 A 
BRANCH   6  13
ATOM     12  C   UNL     1       1.965   9.679  -2.148  0.00  0.00    +0.012 C 
ATOM     13  C   UNL     1       2.580   8.562  -2.993  0.00  0.00    +0.013 C 
ATOM     14  C   UNL     1       3.830   8.023  -2.295  0.00  0.00    +0.012 C 
ENDBRANCH   6  13
ENDBRANCH   1   9
BRANCH   4  15
ATOM     15  C   UNL     1      -3.995   2.635  -5.143  0.00  0.00    +0.065 A 
ATOM     16  C   UNL     1      -4.629   1.430  -4.873  0.00  0.00    +0.028 A 
ATOM     17  C   UNL     1      -5.700   1.027  -5.647  0.00  0.00    +0.002 A 
ATOM     18  C   UNL     1      -6.133   1.816  -6.696  0.00  0.00    +0.000 A 
ATOM     19  C   UNL     1      -5.500   3.015  -6.971  0.00  0.00    +0.002 A 
ATOM     20  C   UNL     1      -4.433   3.426  -6.197  0.00  0.00    +0.028 A 
ENDBRANCH   4  15
BRANCH   2  21
ATOM     21  C   UNL     1      -0.502   2.735  -1.656  0.00  0.00    +0.250 C 
ATOM     22  O   UNL     1       0.708   2.793  -1.755  0.00  0.00    -0.270 OA
ATOM     23  N   UNL     1      -1.066   2.339  -0.498  0.00  0.00    -0.293 N 
ATOM     24  C   UNL     1      -2.522   2.377  -0.341  0.00  0.00    +0.133 C 
BRANCH  23  25
ATOM     25  C   UNL     1      -0.222   1.871   0.604  0.00  0.00    +0.181 C 
BRANCH  25  26
ATOM     26  C   UNL     1       0.155   3.038   1.480  0.00  0.00    +0.128 A 
ATOM     27  N   UNL     1       0.942   2.805   2.563  0.00  0.00    -0.309 N 
ATOM     28  H   UNL     1       1.248   1.907   2.762  0.00  0.00    +0.170 HD
ATOM     29  C   UNL     1       1.293   3.841   3.363  0.00  0.00    +0.266 A 
ATOM     30  O   UNL     1       1.997   3.665   4.343  0.00  0.00    -0.267 OA
ATOM     31  C   UNL     1       0.827   5.114   3.034  0.00  0.00    +0.102 A 
ATOM     32  C   UNL     1       0.014   5.327   1.907  0.00  0.00    +0.085 A 
ATOM     33  N   UNL     1      -0.281   4.214   1.159  0.00  0.00    -0.232 NA
ATOM     34  C   UNL     1      -0.384   6.654   1.692  0.00  0.00    +0.036 A 
ATOM     35  C   UNL     1       0.013   7.628   2.540  0.00  0.00    +0.048 A 
ATOM     36  S   UNL     1       0.998   6.735   3.732  0.00  0.00    -0.090 S 
ENDBRANCH  25  26
ENDBRANCH  23  25
ENDBRANCH   2  21
TORSDOF 6
