REMARK  Name = ZINC43415052
REMARK  6 active torsions:
REMARK  status: ('A' for Active; 'I' for Inactive)
REMARK    1  A    between atoms: C_3  and  O_9
REMARK    2  A    between atoms: C_6  and  C_7
REMARK    3  A    between atoms: C_7  and  N_8
REMARK    4  A    between atoms: O_9  and  C_10
REMARK    5  A    between atoms: C_11  and  N_19
REMARK    6  A    between atoms: C_13  and  C_17
REMARK                            x       y       z     vdW  Elec       q    Type
REMARK                         _______ _______ _______ _____ _____    ______ ____
ROOT
ATOM      1  O   UNL     1       3.548   2.103  -0.021  0.00  0.00    -0.453 OA
ENDROOT
BRANCH   1   2
ATOM      2  C   UNL     1       4.708   1.399  -0.036  0.00  0.00    +0.172 A 
ATOM      3  C   UNL     1       5.309   1.028   1.161  0.00  0.00    +0.170 A 
ATOM      4  C   UNL     1       6.486   0.313   1.151  0.00  0.00    +0.055 A 
ATOM      5  C   UNL     1       7.077  -0.040  -0.066  0.00  0.00    +0.055 A 
ATOM      6  C   UNL     1       6.470   0.334  -1.268  0.00  0.00    +0.037 A 
ATOM      7  C   UNL     1       5.289   1.045  -1.248  0.00  0.00    +0.059 A 
ATOM      8  I   UNL     1       4.372   1.599  -3.049  0.00  0.00    -0.040 I 
BRANCH   3   9
ATOM      9  N   UNL     1       4.684   1.402   2.449  0.00  0.00    +0.060 N 
ATOM     10  O   UNL     1       5.206   1.080   3.491  0.00  0.00    -0.126 OA
ATOM     11  O   UNL     1       3.651   2.030   2.460  0.00  0.00    -0.126 OA
ENDBRANCH   3   9
BRANCH   5  12
ATOM     12  C   UNL     1       8.301  -0.783  -0.081  0.00  0.00    +0.099 C 
ATOM     13  N   UNL     1       9.272  -1.373  -0.093  0.00  0.00    -0.191 NA
ENDBRANCH   5  12
ENDBRANCH   1   2
BRANCH   1  16
ATOM     14  C   UNL     1      -0.017   1.379   0.010  0.00  0.00    +0.005 A 
ATOM     15  C   UNL     1       1.169   2.087   0.002  0.00  0.00    +0.046 A 
ATOM     16  C   UNL     1       2.380   1.409  -0.013  0.00  0.00    +0.129 A 
ATOM     17  C   UNL     1       2.396   0.022  -0.021  0.00  0.00    +0.046 A 
ATOM     18  C   UNL     1       1.207  -0.681  -0.013  0.00  0.00    +0.005 A 
ATOM     19  C   UNL     1       0.002  -0.004   0.002  0.00  0.00    -0.065 A 
BRANCH  19  20
ATOM     20  C   UNL     1      -1.293  -0.774   0.010  0.00  0.00    -0.051 C 
BRANCH  20  21
ATOM     21  N   UNL     1      -1.728  -1.017  -1.372  0.00  0.00    +0.381 N 
ATOM     22  H   UNL     1      -2.595  -1.532  -1.366  0.00  0.00    -0.090 HD
ATOM     23  H   UNL     1      -1.864  -0.134  -1.842  0.00  0.00    -0.090 HD
ATOM     24  H   UNL     1      -1.022  -1.550  -1.857  0.00  0.00    -0.090 HD
ENDBRANCH  20  21
ENDBRANCH  19  20
ENDBRANCH   1  16
TORSDOF 6
