REMARK  Name = ZINC01868626
REMARK  4 active torsions:
REMARK  status: ('A' for Active; 'I' for Inactive)
REMARK    1  A    between atoms: C_1  and  C_2
REMARK    2  A    between atoms: P_7  and  O_10
REMARK    3  A    between atoms: O_10  and  C_11
REMARK    4  A    between atoms: C_11  and  C_12
REMARK                            x       y       z     vdW  Elec       q    Type
REMARK                         _______ _______ _______ _____ _____    ______ ____
ROOT
ATOM      1  C   UNL     1       3.906   1.832   0.463  0.00  0.00    +0.038 C 
ATOM      2  C   UNL     1       2.494   1.334   0.773  0.00  0.00    +0.129 C 
ATOM      3  C   UNL     1       2.381  -0.147   0.408  0.00  0.00    +0.060 C 
ATOM      4  C   UNL     1       1.001  -0.693   0.777  0.00  0.00    +0.175 C 
ATOM      5  O   UNL     1       0.002  -0.004   0.002  0.00  0.00    -0.286 OA
ATOM      6  P   UNL     1      -0.020   1.621   0.011  0.00  0.00    +0.478 P 
ATOM      7  O   UNL     1      -0.713   2.129  -1.194  0.00  0.00    -0.227 OA
ATOM      8  O   UNL     1       1.538   2.082  -0.001  0.00  0.00    -0.283 OA
ENDROOT
BRANCH   6   9
ATOM      9  O   UNL     1      -0.748   2.159   1.342  0.00  0.00    -0.282 OA
BRANCH   9  10
ATOM     10  C   UNL     1      -2.132   1.932   1.618  0.00  0.00    +0.227 C 
BRANCH  10  11
ATOM     11  C   UNL     1      -2.497   2.576   2.957  0.00  0.00    +0.214 C 
ATOM     12 CL   UNL     1      -2.183   4.349   2.878  0.00  0.00    -0.081 Cl
ATOM     13 CL   UNL     1      -4.243   2.289   3.306  0.00  0.00    -0.081 Cl
ATOM     14 CL   UNL     1      -1.495   1.846   4.267  0.00  0.00    -0.081 Cl
ENDBRANCH  10  11
ENDBRANCH   9  10
ENDBRANCH   6   9
TORSDOF 3
