REMARK  Name = ZINC21389422
REMARK  8 active torsions:
REMARK  status: ('A' for Active; 'I' for Inactive)
REMARK    1  A    between atoms: C_1  and  O_2
REMARK    2  A    between atoms: O_2  and  C_3
REMARK    3  A    between atoms: C_6  and  C_9
REMARK    4  A    between atoms: C_9  and  N_10
REMARK    5  A    between atoms: C_20  and  S_21
REMARK    6  A    between atoms: S_21  and  C_22
REMARK    7  A    between atoms: C_22  and  C_23
REMARK    8  A    between atoms: C_23  and  C_25
REMARK                            x       y       z     vdW  Elec       q    Type
REMARK                         _______ _______ _______ _____ _____    ______ ____
ROOT
ATOM      1  N   UNL     1       3.858  12.017  -0.767  0.00  0.00    -0.283 N 
ATOM      2  C   UNL     1       5.041  12.534  -1.174  0.00  0.00    +0.263 A 
ATOM      3  O   UNL     1       5.224  13.736  -1.216  0.00  0.00    -0.267 OA
ATOM      4  C   UNL     1       6.097  11.588  -1.563  0.00  0.00    +0.065 A 
ATOM      5  C   UNL     1       7.349  12.020  -1.996  0.00  0.00    +0.015 A 
ATOM      6  C   UNL     1       8.296  11.098  -2.346  0.00  0.00    +0.001 A 
ATOM      7  C   UNL     1       8.023   9.738  -2.275  0.00  0.00    +0.002 A 
ATOM      8  C   UNL     1       6.803   9.287  -1.854  0.00  0.00    +0.028 A 
ATOM      9  C   UNL     1       5.814  10.205  -1.489  0.00  0.00    +0.079 A 
ATOM     10  N   UNL     1       4.600   9.804  -1.064  0.00  0.00    -0.223 NA
ATOM     11  C   UNL     1       3.671  10.665  -0.726  0.00  0.00    +0.173 A 
ENDROOT
BRANCH   1  12
ATOM     12  C   UNL     1       2.771  12.914  -0.368  0.00  0.00    +0.162 C 
BRANCH  12  16
ATOM     13  C   UNL     1       3.051  13.716   3.820  0.00  0.00    +0.120 A 
ATOM     14  C   UNL     1       3.705  14.535   2.911  0.00  0.00    +0.046 A 
ATOM     15  C   UNL     1       3.613  14.274   1.557  0.00  0.00    +0.009 A 
ATOM     16  C   UNL     1       2.870  13.197   1.109  0.00  0.00    -0.027 A 
ATOM     17  C   UNL     1       2.213  12.383   2.013  0.00  0.00    +0.009 A 
ATOM     18  C   UNL     1       2.306  12.637   3.368  0.00  0.00    +0.046 A 
BRANCH  13  20
ATOM     19  C   UNL     1       2.441  13.087   6.030  0.00  0.00    +0.277 C 
ATOM     20  O   UNL     1       3.140  13.972   5.152  0.00  0.00    -0.495 OA
ENDBRANCH  13  20
ENDBRANCH  12  16
ENDBRANCH   1  12
BRANCH  11  21
ATOM     21  S   UNL     1       2.111  10.049  -0.187  0.00  0.00    -0.080 S 
BRANCH  21  22
ATOM     22  C   UNL     1       2.411   8.269  -0.326  0.00  0.00    +0.157 C 
BRANCH  22  23
ATOM     23  C   UNL     1       1.175   7.517   0.096  0.00  0.00    +0.173 C 
ATOM     24  O   UNL     1       0.188   8.125   0.455  0.00  0.00    -0.291 OA
BRANCH  23  25
ATOM     25  C   UNL     1       1.165   6.049   0.072  0.00  0.00    +0.019 A 
ATOM     26  C   UNL     1       2.302   5.345  -0.342  0.00  0.00    +0.013 A 
ATOM     27  C   UNL     1       2.291   3.980  -0.364  0.00  0.00    +0.024 A 
ATOM     28  C   UNL     1       1.152   3.281   0.025  0.00  0.00    +0.037 A 
ATOM     29  C   UNL     1       0.016   3.972   0.439  0.00  0.00    -0.025 A 
ATOM     30  C   UNL     1       0.017   5.347   0.464  0.00  0.00    +0.016 A 
ATOM     31  C   UNL     1      -1.214   3.210   0.859  0.00  0.00    +0.046 C 
ATOM     32  C   UNL     1      -1.333   1.934   0.019  0.00  0.00    +0.101 C 
ATOM     33  C   UNL     1      -0.014   1.209   0.009  0.00  0.00    +0.218 C 
ATOM     34  O   UNL     1       0.002  -0.004   0.002  0.00  0.00    -0.275 OA
ATOM     35  N   UNL     1       1.146   1.889   0.001  0.00  0.00    -0.285 N 
ATOM     36  H   UNL     1       2.097   1.335  -0.024  0.00  0.00    +0.155 HD
ENDBRANCH  23  25
ENDBRANCH  22  23
ENDBRANCH  21  22
ENDBRANCH  11  21
TORSDOF 7
