REMARK  Name = ZINC20683419
REMARK  16 active torsions:
REMARK  status: ('A' for Active; 'I' for Inactive)
REMARK    1  A    between atoms: C_1  and  C_2
REMARK    2  A    between atoms: N_7  and  S_9
REMARK    3  A    between atoms: S_9  and  C_12
REMARK    4  A    between atoms: C_18  and  C_24
REMARK    5  A    between atoms: N_26  and  C_27
REMARK    6  A    between atoms: C_27  and  C_28
REMARK    7  A    between atoms: C_28  and  C_29
REMARK    8  A    between atoms: C_29  and  N_30
REMARK    9  A    between atoms: N_30  and  C_31
REMARK   10  A    between atoms: N_30  and  C_35
REMARK   11  A    between atoms: C_31  and  C_32
REMARK   12  A    between atoms: C_32  and  C_33
REMARK   13  A    between atoms: C_32  and  C_34
REMARK   14  A    between atoms: C_35  and  C_36
REMARK   15  A    between atoms: C_36  and  C_37
REMARK   16  A    between atoms: C_36  and  C_38
REMARK                            x       y       z     vdW  Elec       q    Type
REMARK                         _______ _______ _______ _____ _____    ______ ____
ROOT
ATOM      1  C   UNL     1      -5.456  -1.656   8.217  0.00  0.00    +0.106 A 
ATOM      2  C   UNL     1      -4.389  -1.732   9.102  0.00  0.00    +0.030 A 
ATOM      3  C   UNL     1      -3.096  -1.553   8.661  0.00  0.00    +0.028 A 
ATOM      4  C   UNL     1      -2.855  -1.280   7.316  0.00  0.00    +0.050 A 
ATOM      5  C   UNL     1      -3.939  -1.198   6.425  0.00  0.00    +0.012 A 
ATOM      6  C   UNL     1      -5.242  -1.390   6.894  0.00  0.00    +0.039 A 
ATOM      7  C   UNL     1      -3.688  -0.910   5.005  0.00  0.00    +0.051 A 
ATOM      8  C   UNL     1      -2.398  -0.728   4.595  0.00  0.00    +0.083 A 
ATOM      9  C   UNL     1      -1.314  -0.826   5.569  0.00  0.00    +0.250 A 
ATOM     10  O   UNL     1      -0.163  -0.665   5.204  0.00  0.00    -0.268 OA
ATOM     11  N   UNL     1      -1.567  -1.091   6.862  0.00  0.00    -0.322 N 
ATOM     12  H   UNL     1      -0.722  -1.157   7.563  0.00  0.00    +0.169 HD
ENDROOT
BRANCH   7  13
ATOM     13  C   UNL     1      -4.810  -0.817   4.040  0.00  0.00    +0.245 C 
ATOM     14  O   UNL     1      -5.940  -1.089   4.394  0.00  0.00    -0.270 OA
ATOM     15  N   UNL     1      -4.577  -0.431   2.769  0.00  0.00    -0.311 N 
ATOM     16  H   UNL     1      -3.545  -0.265   2.426  0.00  0.00    +0.149 HD
BRANCH  15  17
ATOM     17  C   UNL     1      -5.697  -0.234   1.846  0.00  0.00    +0.102 C 
BRANCH  17  18
ATOM     18  C   UNL     1      -5.162   0.200   0.480  0.00  0.00    +0.000 C 
BRANCH  18  19
ATOM     19  C   UNL     1      -6.332   0.406  -0.484  0.00  0.00    -0.077 C 
BRANCH  19  20
ATOM     20  N   UNL     1      -5.832   0.959  -1.750  0.00  0.00    +0.380 N 
ATOM     21  H   UNL     1      -5.061   1.707  -1.511  0.00  0.00    -0.082 HD
BRANCH  20  22
ATOM     22  C   UNL     1      -5.207  -0.087  -2.571  0.00  0.00    -0.076 C 
BRANCH  22  23
ATOM     23  C   UNL     1      -3.723  -0.196  -2.215  0.00  0.00    -0.034 C 
ATOM     24  C   UNL     1      -3.066  -1.267  -3.088  0.00  0.00    +0.005 C 
ATOM     25  C   UNL     1      -3.039   1.151  -2.460  0.00  0.00    +0.005 C 
ENDBRANCH  22  23
ENDBRANCH  20  22
BRANCH  20  26
ATOM     26  C   UNL     1      -6.905   1.637  -2.489  0.00  0.00    -0.076 C 
BRANCH  26  27
ATOM     27  C   UNL     1      -7.195   2.991  -1.837  0.00  0.00    -0.034 C 
ATOM     28  C   UNL     1      -5.935   3.858  -1.879  0.00  0.00    +0.005 C 
ATOM     29  C   UNL     1      -8.322   3.692  -2.600  0.00  0.00    +0.005 C 
ENDBRANCH  26  27
ENDBRANCH  20  26
ENDBRANCH  19  20
ENDBRANCH  18  19
ENDBRANCH  17  18
ENDBRANCH  15  17
ENDBRANCH   7  13
BRANCH   1  30
ATOM     30  S   UNL     1      -7.099  -1.897   8.806  0.00  0.00    +0.061 S 
ATOM     31  O   UNL     1      -7.960  -1.231   7.892  0.00  0.00    -0.153 OA
ATOM     32  O   UNL     1      -7.081  -1.595  10.194  0.00  0.00    -0.153 OA
BRANCH  30  38
ATOM     33  C   UNL     1      -6.071  -6.615  10.371  0.00  0.00    +0.009 C 
ATOM     34  C   UNL     1      -6.276  -5.582   9.261  0.00  0.00    +0.002 C 
ATOM     35  C   UNL     1      -6.982  -6.241   8.074  0.00  0.00    +0.006 C 
ATOM     36  C   UNL     1      -7.158  -5.216   6.951  0.00  0.00    +0.017 C 
ATOM     37  C   UNL     1      -8.035  -4.059   7.453  0.00  0.00    +0.109 C 
ATOM     38  N   UNL     1      -7.433  -3.514   8.677  0.00  0.00    -0.176 NA
ATOM     39  C   UNL     1      -7.137  -4.430   9.788  0.00  0.00    +0.112 C 
ENDBRANCH  30  38
ENDBRANCH   1  30
TORSDOF 11
