REMARK  Name = ZINC64662282
REMARK  6 active torsions:
REMARK  status: ('A' for Active; 'I' for Inactive)
REMARK    1  A    between atoms: C_1  and  C_2
REMARK    2  A    between atoms: C_7  and  C_8
REMARK    3  A    between atoms: C_8  and  N_9
REMARK    4  A    between atoms: C_21  and  C_22
REMARK    5  A    between atoms: C_21  and  C_23
REMARK    6  A    between atoms: N_25  and  C_26
REMARK                            x       y       z     vdW  Elec       q    Type
REMARK                         _______ _______ _______ _____ _____    ______ ____
ROOT
ATOM      1  N   UNL     1      -1.043   0.619   3.128  0.00  0.00    -0.276 N 
ATOM      2  C   UNL     1      -1.620   1.779   2.736  0.00  0.00    +0.264 C 
ATOM      3  O   UNL     1      -1.122   2.484   1.878  0.00  0.00    -0.268 OA
ATOM      4  C   UNL     1      -2.879   2.141   3.401  0.00  0.00    +0.106 A 
ATOM      5  C   UNL     1      -3.768   3.114   3.117  0.00  0.00    +0.041 A 
ATOM      6  C   UNL     1      -4.835   3.026   4.063  0.00  0.00    +0.008 A 
ATOM      7  C   UNL     1      -6.091   3.695   4.377  0.00  0.00    +0.017 A 
ATOM      8  C   UNL     1      -6.822   3.258   5.411  0.00  0.00    +0.048 A 
ATOM      9  S   UNL     1      -5.861   1.898   6.048  0.00  0.00    -0.079 S 
ATOM     10  C   UNL     1      -4.503   1.957   4.905  0.00  0.00    +0.088 A 
ATOM     11  N   UNL     1      -3.327   1.430   4.516  0.00  0.00    -0.328 N 
ATOM     12  C   UNL     1      -2.547   0.324   5.082  0.00  0.00    +0.158 C 
ATOM     13  C   UNL     1      -1.744  -0.347   3.965  0.00  0.00    +0.129 C 
ATOM     14  C   UNL     1      -2.695  -1.164   3.087  0.00  0.00    +0.043 C 
ENDROOT
BRANCH  13  15
ATOM     15  C   UNL     1      -0.735  -1.280   4.583  0.00  0.00    +0.238 C 
ATOM     16  O   UNL     1      -0.927  -2.478   4.569  0.00  0.00    -0.273 OA
ATOM     17  N   UNL     1       0.382  -0.784   5.151  0.00  0.00    -0.311 N 
ATOM     18  H   UNL     1       0.504   0.176   5.224  0.00  0.00    +0.149 HD
BRANCH  17  19
ATOM     19  C   UNL     1       1.413  -1.693   5.658  0.00  0.00    +0.073 C 
ATOM     20  C   UNL     1       1.056  -2.124   7.082  0.00  0.00    +0.022 C 
ATOM     21  C   UNL     1       2.132  -3.074   7.612  0.00  0.00    +0.002 C 
ATOM     22  C   UNL     1       3.485  -2.359   7.619  0.00  0.00    +0.000 C 
ATOM     23  C   UNL     1       3.841  -1.928   6.195  0.00  0.00    +0.002 C 
ATOM     24  C   UNL     1       2.765  -0.978   5.665  0.00  0.00    +0.022 C 
ENDBRANCH  17  19
ENDBRANCH  13  15
BRANCH   1  25
ATOM     25  C   UNL     1       0.325   0.323   2.693  0.00  0.00    +0.144 C 
BRANCH  25  32
ATOM     26  C   UNL     1      -0.459   0.560  -0.077  0.00  0.00    +0.044 C 
ATOM     27  C   UNL     1      -0.058  -0.781   0.480  0.00  0.00    -0.046 A 
ATOM     28  C   UNL     1      -0.059  -1.897  -0.336  0.00  0.00    +0.003 A 
ATOM     29  C   UNL     1       0.309  -3.127   0.175  0.00  0.00    +0.000 A 
ATOM     30  C   UNL     1       0.679  -3.242   1.502  0.00  0.00    +0.000 A 
ATOM     31  C   UNL     1       0.681  -2.126   2.318  0.00  0.00    +0.005 A 
ATOM     32  C   UNL     1       0.317  -0.895   1.805  0.00  0.00    -0.027 A 
ENDBRANCH  25  32
ENDBRANCH   1  25
TORSDOF 4
