REMARK  Name = ZINC06016911
REMARK  10 active torsions:
REMARK  status: ('A' for Active; 'I' for Inactive)
REMARK    1  A    between atoms: C_1  and  C_2
REMARK    2  A    between atoms: C_4  and  O_23
REMARK    3  A    between atoms: C_6  and  O_22
REMARK    4  A    between atoms: C_7  and  C_8
REMARK    5  A    between atoms: C_9  and  O_15
REMARK    6  A    between atoms: C_10  and  C_14
REMARK    7  A    between atoms: O_15  and  C_16
REMARK    8  A    between atoms: O_23  and  C_24
REMARK    9  A    between atoms: C_24  and  C_25
REMARK   10  A    between atoms: N_28  and  C_30
REMARK                            x       y       z     vdW  Elec       q    Type
REMARK                         _______ _______ _______ _____ _____    ______ ____
ROOT
ATOM      1  C   UNL     1      -0.210   0.113  -0.566  0.00  0.00    +0.044 C 
ATOM      2  C   UNL     1      -0.090   1.605  -0.393  0.00  0.00    -0.034 A 
ATOM      3  C   UNL     1       1.147   2.211  -0.469  0.00  0.00    +0.050 A 
ATOM      4  C   UNL     1       1.262   3.585  -0.310  0.00  0.00    +0.125 A 
ATOM      5  C   UNL     1       0.134   4.357  -0.074  0.00  0.00    +0.091 A 
ATOM      6  C   UNL     1      -1.111   3.757   0.003  0.00  0.00    +0.130 A 
ATOM      7  C   UNL     1      -1.228   2.373  -0.163  0.00  0.00    +0.050 A 
ENDROOT
BRANCH   7   8
ATOM      8  C   UNL     1      -2.560   1.725  -0.087  0.00  0.00    +0.139 A 
ATOM      9  C   UNL     1      -3.712   2.113  -0.804  0.00  0.00    +0.176 A 
ATOM     10  C   UNL     1      -4.717   1.272  -0.461  0.00  0.00    +0.076 A 
ATOM     11  N   UNL     1      -4.226   0.387   0.447  0.00  0.00    -0.278 N 
ATOM     12  H   UNL     1      -4.739  -0.352   0.884  0.00  0.00    +0.189 HD
ATOM     13  N   UNL     1      -2.876   0.691   0.664  0.00  0.00    -0.170 NA
ATOM     14  C   UNL     1      -6.128   1.313  -0.987  0.00  0.00    +0.069 C 
BRANCH   9  15
ATOM     15  O   UNL     1      -3.798   3.147  -1.687  0.00  0.00    -0.452 OA
BRANCH  15  16
ATOM     16  C   UNL     1      -3.436   2.917  -2.975  0.00  0.00    +0.129 A 
ATOM     17  C   UNL     1      -3.099   1.634  -3.385  0.00  0.00    +0.046 A 
ATOM     18  C   UNL     1      -2.736   1.402  -4.697  0.00  0.00    +0.004 A 
ATOM     19  C   UNL     1      -2.697   2.448  -5.600  0.00  0.00    +0.000 A 
ATOM     20  C   UNL     1      -3.027   3.728  -5.194  0.00  0.00    +0.004 A 
ATOM     21  C   UNL     1      -3.396   3.965  -3.884  0.00  0.00    +0.046 A 
ENDBRANCH  15  16
ENDBRANCH   9  15
ENDBRANCH   7   8
BRANCH   6  22
ATOM     22  O   UNL     1      -2.217   4.511   0.234  0.00  0.00    -0.506 OA
ATOM     23  H   UNL     1      -2.677   4.792  -0.569  0.00  0.00    +0.292 HD
ENDBRANCH   6  22
BRANCH   4  24
ATOM     24  O   UNL     1       2.483   4.176  -0.386  0.00  0.00    -0.487 OA
BRANCH  24  25
ATOM     25  C   UNL     1       2.530   5.594  -0.213  0.00  0.00    +0.267 C 
BRANCH  25  26
ATOM     26  C   UNL     1       3.956   6.068  -0.329  0.00  0.00    +0.027 A 
ATOM     27  C   UNL     1       4.869   6.192   0.723  0.00  0.00    +0.141 A 
ATOM     28  N   UNL     1       6.002   6.628   0.233  0.00  0.00    -0.174 NA
ATOM     29  N   UNL     1       5.843   6.804  -1.148  0.00  0.00    -0.239 N 
ATOM     30  C   UNL     1       4.577   6.454  -1.468  0.00  0.00    +0.121 A 
BRANCH  29  31
ATOM     31  C   UNL     1       6.822   7.264  -2.039  0.00  0.00    +0.065 A 
ATOM     32  C   UNL     1       6.529   7.388  -3.391  0.00  0.00    +0.028 A 
ATOM     33  C   UNL     1       7.494   7.846  -4.266  0.00  0.00    +0.002 A 
ATOM     34  C   UNL     1       8.755   8.171  -3.799  0.00  0.00    +0.000 A 
ATOM     35  C   UNL     1       9.051   8.044  -2.454  0.00  0.00    +0.002 A 
ATOM     36  C   UNL     1       8.088   7.591  -1.573  0.00  0.00    +0.028 A 
ENDBRANCH  29  31
ENDBRANCH  25  26
ENDBRANCH  24  25
ENDBRANCH   4  24
TORSDOF 8
