REMARK  Name = ZINC09747536
REMARK  9 active torsions:
REMARK  status: ('A' for Active; 'I' for Inactive)
REMARK    1  A    between atoms: C_6  and  C_7
REMARK    2  A    between atoms: C_7  and  C_8
REMARK    3  A    between atoms: C_8  and  N_9
REMARK    4  A    between atoms: C_10  and  C_12
REMARK    5  A    between atoms: N_14  and  C_15
REMARK    6  A    between atoms: C_15  and  C_16
REMARK    7  A    between atoms: C_16  and  C_17
REMARK    8  A    between atoms: N_23  and  S_24
REMARK    9  A    between atoms: S_24  and  C_27
REMARK                            x       y       z     vdW  Elec       q    Type
REMARK                         _______ _______ _______ _____ _____    ______ ____
ROOT
ATOM      1  C   UNL     1      -0.449   2.388  -0.946  0.00  0.00    +0.106 C 
ENDROOT
BRANCH   1   4
ATOM      2  C   UNL     1       0.084   2.945  -3.258  0.00  0.00    +0.299 C 
ATOM      3  O   UNL     1      -0.899   3.656  -3.282  0.00  0.00    -0.265 OA
ATOM      4  N   UNL     1       0.397   2.266  -2.136  0.00  0.00    -0.308 N 
ATOM      5  H   UNL     1       1.183   1.698  -2.116  0.00  0.00    +0.149 HD
BRANCH   2   7
ATOM      6  N   UNL     1       0.634   3.499  -5.593  0.00  0.00    -0.307 N 
ATOM      7  C   UNL     1       0.947   2.821  -4.471  0.00  0.00    +0.299 C 
ATOM      8  O   UNL     1       1.930   2.109  -4.447  0.00  0.00    -0.265 OA
ATOM      9  H   UNL     1      -0.152   4.067  -5.613  0.00  0.00    +0.149 HD
BRANCH   6  10
ATOM     10  C   UNL     1       1.480   3.377  -6.783  0.00  0.00    +0.109 C 
BRANCH  10  11
ATOM     11  C   UNL     1       0.907   4.242  -7.907  0.00  0.00    +0.054 C 
BRANCH  11  17
ATOM     12  C   UNL     1       2.833   4.990  -9.320  0.00  0.00    +0.006 A 
ATOM     13  C   UNL     1       3.635   4.873 -10.439  0.00  0.00    +0.038 A 
ATOM     14  C   UNL     1       3.374   3.889 -11.377  0.00  0.00    +0.123 A 
ATOM     15  C   UNL     1       2.313   3.019 -11.190  0.00  0.00    +0.038 A 
ATOM     16  C   UNL     1       1.515   3.135 -10.067  0.00  0.00    +0.006 A 
ATOM     17  C   UNL     1       1.777   4.117  -9.131  0.00  0.00    -0.046 A 
ATOM     18  F   UNL     1       4.154   3.777 -12.475  0.00  0.00    -0.205 F 
ENDBRANCH  11  17
ENDBRANCH  10  11
ENDBRANCH   6  10
ENDBRANCH   2   7
ENDBRANCH   1   4
BRANCH   1  19
ATOM     19  C   UNL     1       0.125   1.523   0.178  0.00  0.00    +0.039 C 
BRANCH  19  20
ATOM     20  C   UNL     1      -0.701   1.726   1.450  0.00  0.00    +0.081 C 
ATOM     21  C   UNL     1      -0.767   3.218   1.787  0.00  0.00    +0.021 C 
ATOM     22  C   UNL     1      -1.474   3.403   3.132  0.00  0.00    +0.003 C 
ATOM     23  C   UNL     1      -0.679   2.693   4.230  0.00  0.00    +0.017 C 
ATOM     24  C   UNL     1      -0.613   1.195   3.920  0.00  0.00    +0.110 C 
ATOM     25  N   UNL     1      -0.067   1.015   2.568  0.00  0.00    -0.173 NA
BRANCH  25  26
ATOM     26  S   UNL     1       1.239   0.030   2.309  0.00  0.00    +0.061 S 
ATOM     27  O   UNL     1       1.385  -0.767   3.477  0.00  0.00    -0.153 OA
ATOM     28  O   UNL     1       1.072  -0.536   1.017  0.00  0.00    -0.153 OA
BRANCH  26  29
ATOM     29  C   UNL     1       2.663   1.064   2.225  0.00  0.00    +0.106 A 
ATOM     30  C   UNL     1       3.171   1.443   0.997  0.00  0.00    +0.030 A 
ATOM     31  C   UNL     1       4.285   2.259   0.930  0.00  0.00    +0.022 A 
ATOM     32  C   UNL     1       4.898   2.687   2.094  0.00  0.00    +0.041 A 
ATOM     33  C   UNL     1       4.393   2.304   3.323  0.00  0.00    +0.022 A 
ATOM     34  C   UNL     1       3.276   1.492   3.388  0.00  0.00    +0.030 A 
ATOM     35 CL   UNL     1       6.301   3.707   2.011  0.00  0.00    -0.084 Cl
ENDBRANCH  26  29
ENDBRANCH  25  26
ENDBRANCH  19  20
ENDBRANCH   1  19
TORSDOF 9
