REMARK  Name = ZINC09946419
REMARK  9 active torsions:
REMARK  status: ('A' for Active; 'I' for Inactive)
REMARK    1  A    between atoms: C_4  and  N_11
REMARK    2  A    between atoms: C_5  and  C_7
REMARK    3  A    between atoms: C_12  and  C_28
REMARK    4  A    between atoms: C_15  and  S_16
REMARK    5  A    between atoms: S_16  and  C_17
REMARK    6  A    between atoms: C_17  and  C_18
REMARK    7  A    between atoms: N_20  and  C_21
REMARK    8  A    between atoms: C_21  and  C_26
REMARK    9  A    between atoms: C_28  and  N_61
REMARK                            x       y       z     vdW  Elec       q    Type
REMARK                         _______ _______ _______ _____ _____    ______ ____
ROOT
ATOM      1  N   UNL     1      -0.695   2.726  -1.801  0.00  0.00    -0.275 N 
ATOM      2  C   UNL     1      -0.650   1.446  -1.317  0.00  0.00    +0.122 A 
ATOM      3  N   UNL     1      -1.603   0.777  -1.902  0.00  0.00    -0.135 NA
ATOM      4  N   UNL     1      -2.249   1.541  -2.709  0.00  0.00    -0.122 NA
ATOM      5  C   UNL     1      -1.734   2.748  -2.691  0.00  0.00    +0.197 A 
ENDROOT
BRANCH   1   9
ATOM      6  C   UNL     1       1.810   5.896  -0.772  0.00  0.00    +0.001 A 
ATOM      7  C   UNL     1       0.586   5.752  -0.144  0.00  0.00    +0.002 A 
ATOM      8  C   UNL     1      -0.245   4.703  -0.482  0.00  0.00    +0.027 A 
ATOM      9  C   UNL     1       0.147   3.793  -1.455  0.00  0.00    +0.062 A 
ATOM     10  C   UNL     1       1.378   3.938  -2.080  0.00  0.00    +0.079 A 
ATOM     11  C   UNL     1       2.204   4.992  -1.741  0.00  0.00    +0.014 A 
BRANCH  10  12
ATOM     12  C   UNL     1       1.811   2.950  -3.132  0.00  0.00    +0.419 C 
ATOM     13  F   UNL     1       3.022   3.367  -3.694  0.00  0.00    -0.166 F 
ATOM     14  F   UNL     1       1.977   1.689  -2.548  0.00  0.00    -0.166 F 
ATOM     15  F   UNL     1       0.835   2.875  -4.132  0.00  0.00    -0.166 F 
ENDBRANCH  10  12
ENDBRANCH   1   9
BRANCH   5  16
ATOM     16  S   UNL     1      -2.277   4.134  -3.633  0.00  0.00    -0.076 S 
BRANCH  16  17
ATOM     17  C   UNL     1      -3.651   3.380  -4.539  0.00  0.00    +0.173 C 
BRANCH  17  18
ATOM     18  C   UNL     1      -4.287   4.409  -5.436  0.00  0.00    +0.224 C 
ATOM     19  O   UNL     1      -3.854   5.542  -5.462  0.00  0.00    -0.275 OA
ATOM     20  N   UNL     1      -5.337   4.072  -6.211  0.00  0.00    -0.297 N 
ATOM     21  H   UNL     1      -5.683   3.166  -6.191  0.00  0.00    +0.150 HD
BRANCH  20  22
ATOM     22  C   UNL     1      -5.955   5.073  -7.084  0.00  0.00    +0.121 C 
ATOM     23  C   UNL     1      -6.535   6.225  -6.238  0.00  0.00    +0.041 C 
ATOM     24  C   UNL     1      -7.843   6.613  -6.973  0.00  0.00    +0.003 C 
ATOM     25  C   UNL     1      -8.394   5.243  -7.439  0.00  0.00    +0.003 C 
ATOM     26  C   UNL     1      -7.136   4.449  -7.848  0.00  0.00    +0.041 C 
BRANCH  22  27
ATOM     27  C   UNL     1      -4.960   5.596  -8.034  0.00  0.00    +0.088 C 
ATOM     28  N   UNL     1      -4.193   6.000  -8.768  0.00  0.00    -0.194 NA
ENDBRANCH  22  27
ENDBRANCH  20  22
ENDBRANCH  17  18
ENDBRANCH  16  17
ENDBRANCH   5  16
BRANCH   2  29
ATOM     29  C   UNL     1       0.325   0.908  -0.302  0.00  0.00    -0.001 C 
BRANCH  29  35
ATOM     30  C   UNL     1      -0.606   2.295   1.450  0.00  0.00    -0.078 C 
ATOM     31  C   UNL     1      -1.381   2.263   2.770  0.00  0.00    -0.019 C 
ATOM     32  C   UNL     1      -0.534   1.562   3.835  0.00  0.00    -0.004 C 
ATOM     33  C   UNL     1      -0.184   0.151   3.352  0.00  0.00    -0.019 C 
ATOM     34  C   UNL     1       0.556   0.245   2.015  0.00  0.00    -0.078 C 
ATOM     35  N   UNL     1      -0.322   0.907   1.027  0.00  0.00    +0.384 N 
ATOM     36  H   UNL     1      -1.206   0.390   0.967  0.00  0.00    -0.081 HD
ENDBRANCH  29  35
ENDBRANCH   2  29
TORSDOF 9
