REMARK  Name = ZINC08773190
REMARK  19 active torsions:
REMARK  status: ('A' for Active; 'I' for Inactive)
REMARK    1  A    between atoms: C_1  and  O_2
REMARK    2  A    between atoms: O_2  and  C_3
REMARK    3  A    between atoms: C_6  and  C_11
REMARK    4  A    between atoms: C_8  and  O_9
REMARK    5  A    between atoms: O_9  and  C_10
REMARK    6  A    between atoms: C_13  and  C_32
REMARK    7  A    between atoms: C_15  and  C_28
REMARK    8  A    between atoms: C_17  and  C_18
REMARK    9  A    between atoms: C_17  and  C_24
REMARK   10  A    between atoms: C_18  and  C_19
REMARK   11  A    between atoms: C_19  and  C_20
REMARK   12  A    between atoms: C_20  and  O_22
REMARK   13  A    between atoms: O_22  and  C_23
REMARK   14  A    between atoms: C_24  and  O_26
REMARK   15  A    between atoms: O_26  and  C_27
REMARK   16  A    between atoms: C_28  and  O_30
REMARK   17  A    between atoms: O_30  and  C_31
REMARK   18  A    between atoms: C_32  and  O_34
REMARK   19  A    between atoms: O_34  and  C_35
REMARK                            x       y       z     vdW  Elec       q    Type
REMARK                         _______ _______ _______ _____ _____    ______ ____
ROOT
ATOM      1  C   UNL     1       5.577   1.543  -2.300  0.00  0.00    -0.025 C 
ATOM      2  C   UNL     1       6.056   0.904  -0.973  0.00  0.00    +0.101 C 
ATOM      3  C   UNL     1       4.757   0.826  -0.138  0.00  0.00    +0.110 C 
ATOM      4  C   UNL     1       3.818   1.879  -0.756  0.00  0.00    +0.046 C 
ATOM      5  N   UNL     1       4.565   2.508  -1.846  0.00  0.00    +0.395 N 
ATOM      6  H   UNL     1       3.930   2.741  -2.618  0.00  0.00    -0.083 HD
ATOM      7  H   UNL     1       5.023   3.364  -1.509  0.00  0.00    -0.083 HD
ENDROOT
BRANCH   1  11
ATOM      8  C   UNL     1       8.817   3.504  -4.287  0.00  0.00    +0.161 A 
ATOM      9  C   UNL     1       8.229   4.085  -3.175  0.00  0.00    +0.049 A 
ATOM     10  C   UNL     1       7.181   3.449  -2.535  0.00  0.00    +0.006 A 
ATOM     11  C   UNL     1       6.719   2.232  -3.002  0.00  0.00    -0.057 A 
ATOM     12  C   UNL     1       7.305   1.644  -4.107  0.00  0.00    +0.051 A 
ATOM     13  C   UNL     1       8.351   2.280  -4.756  0.00  0.00    +0.162 A 
BRANCH   8  15
ATOM     14  C   UNL     1      10.272   5.383  -4.380  0.00  0.00    +0.277 C 
ATOM     15  O   UNL     1       9.847   4.129  -4.917  0.00  0.00    -0.491 OA
ENDBRANCH   8  15
BRANCH  13  16
ATOM     16  O   UNL     1       8.925   1.705  -5.847  0.00  0.00    -0.491 OA
ATOM     17  C   UNL     1       8.396   0.448  -6.273  0.00  0.00    +0.277 C 
ENDBRANCH  13  16
ENDBRANCH   1  11
BRANCH   4  18
ATOM     18  C   UNL     1       3.433   2.901   0.282  0.00  0.00    +0.297 C 
ATOM     19  O   UNL     1       3.447   2.608   1.454  0.00  0.00    -0.252 OA
BRANCH  18  20
ATOM     20  O   UNL     1       3.074   4.139  -0.096  0.00  0.00    -0.469 OA
ATOM     21  C   UNL     1       2.716   5.072   0.957  0.00  0.00    +0.280 C 
ENDBRANCH  18  20
ENDBRANCH   4  18
BRANCH   3  22
ATOM     22  C   UNL     1       4.147  -0.547  -0.247  0.00  0.00    +0.310 C 
ATOM     23  O   UNL     1       4.060  -1.086  -1.325  0.00  0.00    -0.251 OA
BRANCH  22  24
ATOM     24  O   UNL     1       3.700  -1.173   0.853  0.00  0.00    -0.468 OA
ATOM     25  C   UNL     1       3.125  -2.494   0.673  0.00  0.00    +0.280 C 
ENDBRANCH  22  24
ENDBRANCH   3  22
BRANCH   2  26
ATOM     26  C   UNL     1       6.622  -0.471  -1.216  0.00  0.00    +0.309 C 
ATOM     27  O   UNL     1       6.626  -0.934  -2.332  0.00  0.00    -0.251 OA
BRANCH  26  28
ATOM     28  O   UNL     1       7.120  -1.182  -0.193  0.00  0.00    -0.468 OA
ATOM     29  C   UNL     1       7.648  -2.499  -0.501  0.00  0.00    +0.280 C 
ENDBRANCH  26  28
ENDBRANCH   2  26
BRANCH   4  30
ATOM     30  C   UNL     1       2.563   1.198  -1.308  0.00  0.00    +0.011 C 
BRANCH  30  31
ATOM     31  C   UNL     1       1.623   2.256  -1.888  0.00  0.00    +0.120 C 
BRANCH  31  32
ATOM     32  C   UNL     1       0.387   1.586  -2.432  0.00  0.00    +0.307 C 
ATOM     33  O   UNL     1       0.271   0.385  -2.361  0.00  0.00    -0.251 OA
BRANCH  32  34
ATOM     34  O   UNL     1      -0.581   2.322  -2.998  0.00  0.00    -0.468 OA
ATOM     35  C   UNL     1      -1.740   1.609  -3.505  0.00  0.00    +0.280 C 
ENDBRANCH  32  34
ENDBRANCH  31  32
ENDBRANCH  30  31
ENDBRANCH   4  30
TORSDOF 13
