REMARK  Name = ZINC09542095
REMARK  12 active torsions:
REMARK  status: ('A' for Active; 'I' for Inactive)
REMARK    1  A    between atoms: C_1  and  C_2
REMARK    2  A    between atoms: C_2  and  C_3
REMARK    3  A    between atoms: C_3  and  C_4
REMARK    4  A    between atoms: C_4  and  C_5
REMARK    5  A    between atoms: C_5  and  C_6
REMARK    6  A    between atoms: C_6  and  C_7
REMARK    7  A    between atoms: C_7  and  C_29
REMARK    8  A    between atoms: C_8  and  C_21
REMARK    9  A    between atoms: C_11  and  C_13
REMARK   10  A    between atoms: C_16  and  C_19
REMARK   11  A    between atoms: C_19  and  C_20
REMARK   12  A    between atoms: C_26  and  O_27
REMARK                            x       y       z     vdW  Elec       q    Type
REMARK                         _______ _______ _______ _____ _____    ______ ____
ROOT
ATOM      1  C   UNL     1      -2.447   4.138  -0.686  0.00  0.00    +0.026 C 
ATOM      2  C   UNL     1      -1.332   2.119   0.020  0.00  0.00    -0.028 C 
ATOM      3  C   UNL     1      -1.837   2.254   1.460  0.00  0.00    +0.044 C 
ATOM      4  C   UNL     1      -2.965   3.247   1.504  0.00  0.00    +0.040 C 
ATOM      5  N   UNL     1      -3.212   4.068   0.553  0.00  0.00    -0.300 NA
ATOM      6  C   UNL     1      -2.221   5.605  -1.056  0.00  0.00    +0.014 C 
ATOM      7  N   UNL     1      -1.143   3.474  -0.533  0.00  0.00    +0.400 N 
ATOM      8  H   UNL     1      -0.555   4.024   0.104  0.00  0.00    -0.081 HD
ATOM      9  H   UNL     1      -0.686   3.408  -1.450  0.00  0.00    -0.081 HD
ENDROOT
BRANCH   2  10
ATOM     10  C   UNL     1      -0.017   1.383   0.010  0.00  0.00    -0.018 A 
ATOM     11  C   UNL     1       1.171   2.089   0.002  0.00  0.00    +0.020 A 
ATOM     12  C   UNL     1       2.378   1.414  -0.013  0.00  0.00    +0.018 A 
ATOM     13  C   UNL     1       2.399   0.030  -0.021  0.00  0.00    +0.019 A 
ATOM     14  C   UNL     1       1.214  -0.679  -0.013  0.00  0.00    +0.047 A 
ATOM     15  C   UNL     1       0.002  -0.004   0.002  0.00  0.00    +0.119 A 
ATOM     16 BR   UNL     1       4.002   2.383  -0.024  0.00  0.00    -0.050 Br
BRANCH  15  17
ATOM     17  O   UNL     1      -1.165  -0.701   0.009  0.00  0.00    -0.507 OA
ATOM     18  H   UNL     1      -1.511  -0.897  -0.872  0.00  0.00    +0.292 HD
ENDBRANCH  15  17
ENDBRANCH   2  10
BRANCH   4  19
ATOM     19  C   UNL     1      -3.829   3.278   2.701  0.00  0.00    -0.004 A 
ATOM     20  C   UNL     1      -3.595   2.394   3.756  0.00  0.00    +0.010 A 
ATOM     21  C   UNL     1      -4.403   2.432   4.874  0.00  0.00    +0.004 A 
ATOM     22  C   UNL     1      -5.449   3.334   4.946  0.00  0.00    -0.048 A 
ATOM     23  C   UNL     1      -5.689   4.209   3.901  0.00  0.00    +0.004 A 
ATOM     24  C   UNL     1      -4.886   4.186   2.779  0.00  0.00    +0.010 A 
BRANCH  22  25
ATOM     25  C   UNL     1      -6.332   3.365   6.167  0.00  0.00    +0.032 C 
ATOM     26  C   UNL     1      -7.508   2.406   5.970  0.00  0.00    +0.009 C 
ENDBRANCH  22  25
ENDBRANCH   4  19
BRANCH   1  27
ATOM     27  C   UNL     1      -3.235   3.451  -1.804  0.00  0.00    +0.010 C 
BRANCH  27  28
ATOM     28  C   UNL     1      -4.522   4.232  -2.074  0.00  0.00    +0.000 C 
BRANCH  28  29
ATOM     29  C   UNL     1      -5.310   3.545  -3.192  0.00  0.00    -0.000 C 
BRANCH  29  30
ATOM     30  C   UNL     1      -6.597   4.326  -3.463  0.00  0.00    -0.000 C 
BRANCH  30  32
ATOM     31  C   UNL     1      -8.672   4.421  -4.851  0.00  0.00    +0.004 C 
ATOM     32  C   UNL     1      -7.385   3.640  -4.580  0.00  0.00    -0.003 C 
ENDBRANCH  30  32
ENDBRANCH  29  30
ENDBRANCH  28  29
ENDBRANCH  27  28
ENDBRANCH   1  27
TORSDOF 9
