REMARK  Name = ZINC06661923
REMARK  6 active torsions:
REMARK  status: ('A' for Active; 'I' for Inactive)
REMARK    1  A    between atoms: C_10  and  N_24
REMARK    2  A    between atoms: C_12  and  O_16
REMARK    3  A    between atoms: O_16  and  C_17
REMARK    4  A    between atoms: N_24  and  C_25
REMARK    5  A    between atoms: C_25  and  C_26
REMARK    6  A    between atoms: C_26  and  O_27
REMARK                            x       y       z     vdW  Elec       q    Type
REMARK                         _______ _______ _______ _____ _____    ______ ____
ROOT
ATOM      1  C   UNL     1      -3.710   3.493   0.943  0.00  0.00    +0.001 A 
ATOM      2  C   UNL     1      -3.659   2.169   1.357  0.00  0.00    +0.001 A 
ATOM      3  C   UNL     1      -2.455   1.515   1.472  0.00  0.00    +0.012 A 
ATOM      4  C   UNL     1      -1.261   2.178   1.164  0.00  0.00    +0.033 A 
ATOM      5  C   UNL     1      -1.316   3.531   0.748  0.00  0.00    +0.031 A 
ATOM      6  C   UNL     1      -2.553   4.173   0.640  0.00  0.00    +0.012 A 
ATOM      7  C   UNL     1      -0.076   4.238   0.427  0.00  0.00    +0.176 A 
ATOM      8  C   UNL     1       1.075   3.506   0.567  0.00  0.00    +0.065 A 
ATOM      9  C   UNL     1       1.214   2.139   0.988  0.00  0.00    +0.056 A 
ATOM     10  C   UNL     1       2.518   1.626   1.044  0.00  0.00    +0.042 A 
ATOM     11  C   UNL     1       3.603   2.443   0.695  0.00  0.00    +0.072 A 
ATOM     12  C   UNL     1       3.508   3.746   0.290  0.00  0.00    +0.159 A 
ATOM     13  C   UNL     1       2.187   4.376   0.200  0.00  0.00    +0.157 A 
ATOM     14  N   UNL     1       1.587   5.493  -0.104  0.00  0.00    -0.074 NA
ATOM     15  O   UNL     1       0.364   5.432   0.015  0.00  0.00    -0.353 OA
ATOM     16  C   UNL     1       0.019   1.449   1.303  0.00  0.00    +0.196 C 
ATOM     17  O   UNL     1       0.043   0.286   1.672  0.00  0.00    -0.287 OA
ENDROOT
BRANCH  10  18
ATOM     18  N   UNL     1       2.732   0.323   1.441  0.00  0.00    -0.341 N 
ATOM     19  H   UNL     1       1.980  -0.240   1.682  0.00  0.00    +0.146 HD
BRANCH  18  20
ATOM     20  C   UNL     1       4.095  -0.210   1.498  0.00  0.00    +0.129 C 
BRANCH  20  21
ATOM     21  C   UNL     1       4.053  -1.667   1.965  0.00  0.00    +0.174 C 
BRANCH  21  22
ATOM     22  O   UNL     1       3.378  -2.461   0.988  0.00  0.00    -0.393 OA
ATOM     23  H   UNL     1       3.314  -3.398   1.218  0.00  0.00    +0.209 HD
ENDBRANCH  21  22
ENDBRANCH  20  21
ENDBRANCH  18  20
ENDBRANCH  10  18
BRANCH  12  24
ATOM     24  O   UNL     1       4.622   4.447  -0.024  0.00  0.00    -0.454 OA
BRANCH  24  25
ATOM     25  C   UNL     1       5.821   3.811   0.060  0.00  0.00    +0.129 A 
ATOM     26  C   UNL     1       6.541   3.840   1.245  0.00  0.00    +0.049 A 
ATOM     27  C   UNL     1       7.756   3.189   1.331  0.00  0.00    +0.042 A 
ATOM     28  C   UNL     1       8.261   2.517   0.230  0.00  0.00    +0.124 A 
ATOM     29  C   UNL     1       7.546   2.492  -0.956  0.00  0.00    +0.042 A 
ATOM     30  C   UNL     1       6.328   3.138  -1.042  0.00  0.00    +0.049 A 
ATOM     31  F   UNL     1       9.452   1.885   0.313  0.00  0.00    -0.205 F 
ENDBRANCH  24  25
ENDBRANCH  12  24
TORSDOF 6
