REMARK  Name = ZINC39775226
REMARK  6 active torsions:
REMARK  status: ('A' for Active; 'I' for Inactive)
REMARK    1  A    between atoms: C_1  and  C_2
REMARK    2  A    between atoms: N_4  and  C_5
REMARK    3  A    between atoms: C_9  and  C_12
REMARK    4  A    between atoms: C_12  and  C_13
REMARK    5  A    between atoms: N_15  and  N_16
REMARK    6  A    between atoms: C_17  and  C_18
REMARK                            x       y       z     vdW  Elec       q    Type
REMARK                         _______ _______ _______ _____ _____    ______ ____
ROOT
ATOM      1  C   UNL     1      -1.913  -4.928   3.899  0.00  0.00    +0.235 C 
ATOM      2  O   UNL     1      -0.704  -4.959   3.810  0.00  0.00    -0.274 OA
ATOM      3  N   UNL     1      -2.508  -5.171   5.084  0.00  0.00    -0.207 N 
ATOM      4  H   UNL     1      -3.475  -5.146   5.155  0.00  0.00    +0.177 HD
ENDROOT
BRANCH   3   5
ATOM      5  N   UNL     1      -1.729  -5.459   6.213  0.00  0.00    -0.188 NA
ATOM      6  C   UNL     1      -2.307  -5.694   7.364  0.00  0.00    +0.136 C 
BRANCH   6   7
ATOM      7  C   UNL     1      -1.528  -5.983   8.493  0.00  0.00    +0.000 C 
ATOM      8  C   UNL     1      -1.982  -6.260   9.781  0.00  0.00    +0.004 A 
ATOM      9  C   UNL     1      -3.277  -6.339  10.340  0.00  0.00    +0.010 A 
ATOM     10  C   UNL     1      -3.424  -6.634  11.656  0.00  0.00    +0.001 A 
ATOM     11  C   UNL     1      -2.321  -6.865  12.483  0.00  0.00    +0.002 A 
ATOM     12  C   UNL     1      -1.051  -6.807  12.016  0.00  0.00    +0.026 A 
ATOM     13  C   UNL     1      -0.816  -6.503  10.648  0.00  0.00    +0.043 A 
ATOM     14  N   UNL     1       0.301  -6.388   9.961  0.00  0.00    -0.380 N 
ATOM     15  C   UNL     1      -0.019  -6.064   8.568  0.00  0.00    +0.150 C 
ATOM     16  H   UNL     1       1.195  -6.504  10.319  0.00  0.00    +0.160 HD
ENDBRANCH   6   7
ENDBRANCH   3   5
BRANCH   1  17
ATOM     17  C   UNL     1      -2.750  -4.618   2.685  0.00  0.00    +0.128 C 
BRANCH  17  21
ATOM     18  C   UNL     1      -1.136  -2.159   0.001  0.00  0.00    +0.216 C 
ATOM     19  N   UNL     1      -2.499  -2.725  -0.238  0.00  0.00    -0.227 NA
ATOM     20  N   UNL     1      -2.628  -4.077   0.266  0.00  0.00    -0.241 NA
ATOM     21  C   UNL     1      -1.836  -4.385   1.481  0.00  0.00    +0.138 C 
ATOM     22  S   UNL     1      -0.843  -2.844   1.694  0.00  0.00    -0.101 S 
ATOM     23  H   UNL     1      -3.213  -2.126   0.147  0.00  0.00    +0.143 HD
ATOM     24  H   UNL     1      -3.598  -4.324   0.395  0.00  0.00    +0.142 HD
BRANCH  18  28
ATOM     25  C   UNL     1      -0.018   1.503   0.010  0.00  0.00    +0.109 C 
ATOM     26  C   UNL     1       0.002  -0.004   0.002  0.00  0.00    +0.212 C 
ATOM     27  O   UNL     1       1.060  -0.596  -0.011  0.00  0.00    -0.276 OA
ATOM     28  N   UNL     1      -1.156  -0.694   0.009  0.00  0.00    -0.290 N 
ATOM     29  H   UNL     1      -2.002  -0.220   0.020  0.00  0.00    +0.151 HD
ENDBRANCH  18  28
ENDBRANCH  17  21
ENDBRANCH   1  17
TORSDOF 5
