REMARK  Name = ZINC13065301
REMARK  16 active torsions:
REMARK  status: ('A' for Active; 'I' for Inactive)
REMARK    1  A    between atoms: C_1  and  C_2
REMARK    2  A    between atoms: C_2  and  C_3
REMARK    3  A    between atoms: C_3  and  C_5
REMARK    4  A    between atoms: C_3  and  N_71
REMARK    5  A    between atoms: N_9  and  C_10
REMARK    6  A    between atoms: C_10  and  C_11
REMARK    7  A    between atoms: C_11  and  O_13
REMARK    8  A    between atoms: O_13  and  C_14
REMARK    9  A    between atoms: C_14  and  C_15
REMARK   10  A    between atoms: C_16  and  C_17
REMARK   11  A    between atoms: C_16  and  N_71
REMARK   12  A    between atoms: C_20  and  C_23
REMARK   13  A    between atoms: C_24  and  C_25
REMARK   14  A    between atoms: C_24  and  N_71
REMARK   15  A    between atoms: C_28  and  C_38
REMARK   16  A    between atoms: C_31  and  C_37
REMARK                            x       y       z     vdW  Elec       q    Type
REMARK                         _______ _______ _______ _____ _____    ______ ____
ROOT
ATOM      1  N   UNL     1      -0.304   1.873   1.005  0.00  0.00    +0.392 N 
ATOM      2  H   UNL     1       0.177   1.498   1.831  0.00  0.00    -0.080 HD
ENDROOT
BRANCH   1   3
ATOM      3  C   UNL     1      -0.312   3.349   1.084  0.00  0.00    +0.003 C 
BRANCH   3   4
ATOM      4  C   UNL     1      -0.810   3.944  -0.208  0.00  0.00    +0.139 A 
ATOM      5  N   UNL     1      -0.465   3.584  -1.420  0.00  0.00    -0.115 NA
ATOM      6  N   UNL     1      -1.105   4.328  -2.254  0.00  0.00    -0.023 NA
ATOM      7  N   UNL     1      -1.850   5.154  -1.606  0.00  0.00    -0.043 NA
ATOM      8  N   UNL     1      -1.700   4.946  -0.342  0.00  0.00    -0.220 N 
BRANCH   8   9
ATOM      9  C   UNL     1      -2.369   5.665   0.744  0.00  0.00    +0.267 C 
BRANCH   9  10
ATOM     10  C   UNL     1      -1.580   6.902   1.089  0.00  0.00    +0.329 C 
ATOM     11  O   UNL     1      -0.563   7.156   0.489  0.00  0.00    -0.249 OA
BRANCH  10  12
ATOM     12  O   UNL     1      -2.007   7.721   2.062  0.00  0.00    -0.464 OA
BRANCH  12  13
ATOM     13  C   UNL     1      -1.197   8.894   2.340  0.00  0.00    +0.229 C 
ATOM     14  C   UNL     1      -1.838   9.700   3.471  0.00  0.00    +0.048 C 
ENDBRANCH  12  13
ENDBRANCH  10  12
ENDBRANCH   9  10
ENDBRANCH   8   9
ENDBRANCH   3   4
BRANCH   3  16
ATOM     15  C   UNL     1       1.564   3.351   2.733  0.00  0.00    +0.002 C 
ATOM     16  C   UNL     1       1.112   3.837   1.355  0.00  0.00    -0.011 C 
ENDBRANCH   3  16
ENDBRANCH   1   3
BRANCH   1  17
ATOM     17  C   UNL     1      -1.690   1.360   0.982  0.00  0.00    -0.042 C 
BRANCH  17  18
ATOM     18  C   UNL     1      -2.276   1.488   2.365  0.00  0.00    -0.064 A 
ATOM     19  C   UNL     1      -2.046   0.502   3.306  0.00  0.00    +0.002 A 
ATOM     20  C   UNL     1      -2.580   0.621   4.576  0.00  0.00    +0.003 A 
ATOM     21  C   UNL     1      -3.351   1.721   4.901  0.00  0.00    -0.050 A 
ATOM     22  C   UNL     1      -3.584   2.704   3.958  0.00  0.00    +0.003 A 
ATOM     23  C   UNL     1      -3.047   2.587   2.690  0.00  0.00    +0.002 A 
ATOM     24  C   UNL     1      -3.937   1.848   6.284  0.00  0.00    +0.044 C 
ENDBRANCH  17  18
ENDBRANCH   1  17
BRANCH   1  25
ATOM     25  C   UNL     1       0.417   1.437  -0.210  0.00  0.00    -0.036 C 
BRANCH  25  26
ATOM     26  C   UNL     1       0.763  -0.023  -0.068  0.00  0.00    +0.001 A 
ATOM     27  C   UNL     1      -0.050  -0.966  -0.605  0.00  0.00    +0.017 A 
ATOM     28  C   UNL     1       0.318  -2.375  -0.454  0.00  0.00    +0.002 A 
ATOM     29  C   UNL     1      -0.478  -3.392  -0.991  0.00  0.00    -0.041 A 
ATOM     30  C   UNL     1      -0.110  -4.697  -0.829  0.00  0.00    +0.004 A 
ATOM     31  C   UNL     1       1.048  -5.024  -0.136  0.00  0.00    +0.005 A 
ATOM     32  C   UNL     1       1.847  -4.038   0.403  0.00  0.00    -0.026 A 
ATOM     33  C   UNL     1       1.492  -2.702   0.250  0.00  0.00    +0.052 A 
ATOM     34  N   UNL     1       2.273  -1.696   0.776  0.00  0.00    -0.322 N 
ATOM     35  H   UNL     1       3.082  -1.923   1.261  0.00  0.00    +0.169 HD
ATOM     36  C   UNL     1       1.930  -0.404   0.629  0.00  0.00    +0.251 A 
ATOM     37  O   UNL     1       2.644   0.459   1.108  0.00  0.00    -0.268 OA
ATOM     38  C   UNL     1       3.101  -4.407   1.153  0.00  0.00    +0.046 C 
ATOM     39  C   UNL     1      -1.737  -3.049  -1.746  0.00  0.00    +0.044 C 
ENDBRANCH  25  26
ENDBRANCH   1  25
TORSDOF 11
