REMARK  Name = ZINC10302677
REMARK  5 active torsions:
REMARK  status: ('A' for Active; 'I' for Inactive)
REMARK    1  A    between atoms: C_1  and  C_2
REMARK    2  A    between atoms: C_2  and  S_3
REMARK    3  A    between atoms: S_3  and  N_6
REMARK    4  A    between atoms: C_10  and  C_13
REMARK    5  A    between atoms: N_15  and  C_16
REMARK                            x       y       z     vdW  Elec       q    Type
REMARK                         _______ _______ _______ _____ _____    ______ ____
ROOT
ATOM      1  C   UNL     1       0.013   1.230  -2.469  0.00  0.00    +0.218 C 
ATOM      2  O   UNL     1       1.058   0.621  -2.376  0.00  0.00    -0.275 OA
ATOM      3  N   UNL     1      -0.456   1.579  -3.683  0.00  0.00    -0.312 N 
ATOM      4  H   UNL     1      -1.292   2.066  -3.759  0.00  0.00    +0.149 HD
ENDROOT
BRANCH   3   5
ATOM      5  C   UNL     1       0.295   1.222  -4.890  0.00  0.00    +0.073 C 
ATOM      6  C   UNL     1       1.361   2.286  -5.159  0.00  0.00    +0.022 C 
ATOM      7  C   UNL     1       2.388   1.738  -6.152  0.00  0.00    +0.002 C 
ATOM      8  C   UNL     1       2.756   0.304  -5.768  0.00  0.00    +0.000 C 
ATOM      9  C   UNL     1       2.246  -0.659  -6.842  0.00  0.00    +0.000 C 
ATOM     10  C   UNL     1       0.734  -0.836  -6.691  0.00  0.00    +0.000 C 
ATOM     11  C   UNL     1       0.019   0.403  -7.234  0.00  0.00    +0.002 C 
ATOM     12  C   UNL     1      -0.661   1.146  -6.082  0.00  0.00    +0.022 C 
ENDBRANCH   3   5
BRANCH   1  17
ATOM     13  N   UNL     1      -0.706   1.562   1.213  0.00  0.00    -0.180 NA
ATOM     14  C   UNL     1      -0.975   3.001   1.350  0.00  0.00    +0.109 C 
ATOM     15  C   UNL     1      -1.711   3.490   0.099  0.00  0.00    +0.018 C 
ATOM     16  C   UNL     1      -0.898   3.118  -1.144  0.00  0.00    +0.015 C 
ATOM     17  C   UNL     1      -0.759   1.596  -1.228  0.00  0.00    +0.091 C 
ATOM     18  C   UNL     1      -0.013   1.086   0.008  0.00  0.00    +0.121 C 
BRANCH  13  19
ATOM     19  S   UNL     1      -1.179   0.499   2.390  0.00  0.00    +0.032 S 
ATOM     20  O   UNL     1      -2.281   1.130   3.027  0.00  0.00    -0.158 OA
ATOM     21  O   UNL     1      -1.345  -0.740   1.714  0.00  0.00    -0.158 OA
BRANCH  19  23
ATOM     22  C   UNL     1      -0.097  -0.560   4.669  0.00  0.00    +0.029 C 
ATOM     23  C   UNL     1       0.231   0.406   3.528  0.00  0.00    +0.182 C 
ENDBRANCH  19  23
ENDBRANCH  13  19
ENDBRANCH   1  17
TORSDOF 4
