REMARK  Name = ZINC64450685
REMARK  10 active torsions:
REMARK  status: ('A' for Active; 'I' for Inactive)
REMARK    1  A    between atoms: C_1  and  C_2
REMARK    2  A    between atoms: C_2  and  C_3
REMARK    3  A    between atoms: C_7  and  C_32
REMARK    4  A    between atoms: C_8  and  N_9
REMARK    5  A    between atoms: N_9  and  S_10
REMARK    6  A    between atoms: S_10  and  C_13
REMARK    7  A    between atoms: N_19  and  C_24
REMARK    8  A    between atoms: C_24  and  C_25
REMARK    9  A    between atoms: C_27  and  C_30
REMARK   10  A    between atoms: C_30  and  C_31
REMARK                            x       y       z     vdW  Elec       q    Type
REMARK                         _______ _______ _______ _____ _____    ______ ____
ROOT
ATOM      1  C   UNL     1      -3.457   1.367  -4.154  0.00  0.00    +0.110 A 
ATOM      2  C   UNL     1      -4.767   1.085  -3.814  0.00  0.00    +0.032 A 
ATOM      3  C   UNL     1      -5.721   2.087  -3.823  0.00  0.00    +0.049 A 
ATOM      4  C   UNL     1      -5.362   3.377  -4.173  0.00  0.00    +0.143 A 
ATOM      5  C   UNL     1      -4.042   3.661  -4.516  0.00  0.00    +0.081 A 
ATOM      6  C   UNL     1      -3.090   2.655  -4.500  0.00  0.00    +0.056 A 
ATOM      7  N   UNL     1      -3.692   4.972  -4.872  0.00  0.00    -0.258 N 
ATOM      8  C   UNL     1      -4.543   5.979  -4.577  0.00  0.00    +0.258 C 
ATOM      9  O   UNL     1      -4.277   7.116  -4.903  0.00  0.00    -0.271 OA
ATOM     10  C   UNL     1      -5.825   5.683  -3.841  0.00  0.00    +0.325 C 
ATOM     11  O   UNL     1      -6.287   4.374  -4.187  0.00  0.00    -0.481 OA
ENDROOT
BRANCH   1  12
ATOM     12  S   UNL     1      -2.249   0.084  -4.139  0.00  0.00    +0.072 S 
ATOM     13  O   UNL     1      -1.140   0.561  -4.888  0.00  0.00    -0.150 OA
ATOM     14  O   UNL     1      -2.931  -1.118  -4.468  0.00  0.00    -0.150 OA
BRANCH  12  15
ATOM     15  N   UNL     1      -1.729  -0.080  -2.575  0.00  0.00    -0.216 N 
ATOM     16  H   UNL     1      -0.810   0.129  -2.345  0.00  0.00    +0.174 HD
BRANCH  15  22
ATOM     17  C   UNL     1      -2.949   0.319  -0.532  0.00  0.00    -0.025 A 
ATOM     18  C   UNL     1      -3.828  -0.116   0.441  0.00  0.00    +0.005 A 
ATOM     19  C   UNL     1      -4.369  -1.387   0.367  0.00  0.00    +0.001 A 
ATOM     20  C   UNL     1      -4.032  -2.226  -0.679  0.00  0.00    +0.005 A 
ATOM     21  C   UNL     1      -3.154  -1.797  -1.655  0.00  0.00    -0.028 A 
ATOM     22  C   UNL     1      -2.613  -0.519  -1.587  0.00  0.00    +0.054 A 
ATOM     23  C   UNL     1      -2.788  -2.712  -2.795  0.00  0.00    +0.046 C 
BRANCH  17  25
ATOM     24  C   UNL     1      -3.202   2.666  -1.290  0.00  0.00    +0.009 C 
ATOM     25  C   UNL     1      -2.360   1.704  -0.451  0.00  0.00    +0.033 C 
ENDBRANCH  17  25
ENDBRANCH  15  22
ENDBRANCH  12  15
ENDBRANCH   1  12
BRANCH   7  26
ATOM     26  C   UNL     1      -2.424   5.245  -5.553  0.00  0.00    +0.193 C 
BRANCH  26  27
ATOM     27  C   UNL     1      -2.628   5.167  -7.044  0.00  0.00    +0.189 A 
ATOM     28  N   UNL     1      -2.497   4.065  -7.790  0.00  0.00    -0.194 NA
ATOM     29  C   UNL     1      -2.742   4.340  -9.041  0.00  0.00    +0.227 A 
ATOM     30  O   UNL     1      -3.040   5.642  -9.134  0.00  0.00    -0.338 OA
ATOM     31  N   UNL     1      -2.965   6.161  -7.815  0.00  0.00    -0.060 NA
BRANCH  29  32
ATOM     32  C   UNL     1      -2.697   3.360 -10.186  0.00  0.00    +0.095 C 
ATOM     33  C   UNL     1      -4.077   2.724 -10.367  0.00  0.00    +0.014 C 
ENDBRANCH  29  32
ENDBRANCH  26  27
ENDBRANCH   7  26
TORSDOF 7
