REMARK  Name = ZINC39967004
REMARK  9 active torsions:
REMARK  status: ('A' for Active; 'I' for Inactive)
REMARK    1  A    between atoms: C_1  and  S_2
REMARK    2  A    between atoms: S_2  and  C_3
REMARK    3  A    between atoms: C_8  and  N_9
REMARK    4  A    between atoms: C_10  and  C_12
REMARK    5  A    between atoms: C_12  and  S_13
REMARK    6  A    between atoms: S_13  and  C_14
REMARK    7  A    between atoms: C_17  and  C_26
REMARK    8  A    between atoms: N_18  and  C_19
REMARK    9  A    between atoms: C_19  and  C_20
REMARK                            x       y       z     vdW  Elec       q    Type
REMARK                         _______ _______ _______ _____ _____    ______ ____
ROOT
ATOM      1  C   UNL     1       0.149  -7.955   0.528  0.00  0.00    +0.192 A 
ATOM      2  N   UNL     1       1.405  -7.584   0.625  0.00  0.00    -0.122 NA
ATOM      3  N   UNL     1       2.176  -8.608   0.539  0.00  0.00    -0.128 NA
ATOM      4  C   UNL     1       1.460  -9.697   0.381  0.00  0.00    +0.166 A 
ATOM      5  N   UNL     1       0.139  -9.314   0.375  0.00  0.00    -0.300 N 
ENDROOT
BRANCH   4   6
ATOM      6  C   UNL     1       1.976 -11.076   0.243  0.00  0.00    +0.030 A 
ATOM      7  C   UNL     1       1.435 -12.087   0.982  0.00  0.00    +0.057 A 
ATOM      8  S   UNL     1       2.396 -13.491   0.440  0.00  0.00    -0.101 S 
ATOM      9  C   UNL     1       3.433 -12.644  -0.724  0.00  0.00    -0.006 A 
ATOM     10  C   UNL     1       3.025 -11.353  -0.657  0.00  0.00    -0.026 A 
ATOM     11  C   UNL     1       3.674 -10.253  -1.493  0.00  0.00    +0.036 C 
ATOM     12  C   UNL     1       4.268 -10.849  -2.764  0.00  0.00    +0.005 C 
ATOM     13  C   UNL     1       5.714 -11.283  -2.531  0.00  0.00    +0.001 C 
ATOM     14  C   UNL     1       5.768 -12.383  -1.476  0.00  0.00    +0.005 C 
ATOM     15  C   UNL     1       4.502 -13.230  -1.589  0.00  0.00    +0.043 C 
ENDBRANCH   4   6
BRANCH   1  16
ATOM     16  S   UNL     1      -1.260  -6.899   0.590  0.00  0.00    -0.077 S 
BRANCH  16  17
ATOM     17  C   UNL     1      -0.557  -5.240   0.803  0.00  0.00    +0.173 C 
BRANCH  17  19
ATOM     18  N   UNL     1      -1.384  -2.920   1.030  0.00  0.00    -0.284 N 
ATOM     19  C   UNL     1      -1.671  -4.228   0.873  0.00  0.00    +0.228 C 
ATOM     20  O   UNL     1      -2.825  -4.589   0.786  0.00  0.00    -0.275 OA
ATOM     21  H   UNL     1      -0.461  -2.622   1.022  0.00  0.00    +0.155 HD
BRANCH  18  27
ATOM     22  C   UNL     1      -2.193  -0.637   0.965  0.00  0.00    +0.029 A 
ATOM     23  C   UNL     1      -3.224   0.276   1.137  0.00  0.00    +0.016 A 
ATOM     24  C   UNL     1      -4.468  -0.158   1.553  0.00  0.00    +0.001 A 
ATOM     25  C   UNL     1      -4.691  -1.501   1.798  0.00  0.00    +0.002 A 
ATOM     26  C   UNL     1      -3.669  -2.417   1.629  0.00  0.00    +0.024 A 
ATOM     27  C   UNL     1      -2.419  -1.992   1.207  0.00  0.00    +0.047 A 
BRANCH  22  29
ATOM     28  C   UNL     1      -0.799   1.708   0.257  0.00  0.00    +0.090 C 
ATOM     29  S   UNL     1      -0.605  -0.087   0.435  0.00  0.00    -0.127 S 
ENDBRANCH  22  29
ENDBRANCH  18  27
ENDBRANCH  17  19
ENDBRANCH  16  17
ENDBRANCH   1  16
BRANCH   5  30
ATOM     30  C   UNL     1      -1.034 -10.180   0.232  0.00  0.00    +0.157 C 
BRANCH  30  31
ATOM     31  C   UNL     1      -1.306 -10.428  -1.253  0.00  0.00    +0.138 C 
ATOM     32  C   UNL     1      -2.488 -11.415  -1.426  0.00  0.00    +0.035 C 
ATOM     33  C   UNL     1      -2.991 -11.027  -2.843  0.00  0.00    +0.031 C 
ATOM     34  C   UNL     1      -2.731  -9.506  -2.878  0.00  0.00    +0.160 C 
ATOM     35  O   UNL     1      -1.732  -9.213  -1.892  0.00  0.00    -0.375 OA
ENDBRANCH  30  31
ENDBRANCH   5  30
TORSDOF 8
