REMARK  Name = ZINC44839464
REMARK  5 active torsions:
REMARK  status: ('A' for Active; 'I' for Inactive)
REMARK    1  A    between atoms: C_3  and  C_10
REMARK    2  A    between atoms: C_5  and  N_7
REMARK    3  A    between atoms: C_10  and  S_11
REMARK    4  A    between atoms: S_11  and  N_14
REMARK    5  A    between atoms: N_14  and  C_15
REMARK                            x       y       z     vdW  Elec       q    Type
REMARK                         _______ _______ _______ _____ _____    ______ ____
ROOT
ATOM      1  S   UNL     1       4.208   2.483   1.684  0.00  0.00    +0.066 S 
ATOM      2  O   UNL     1       3.314   3.381   2.327  0.00  0.00    -0.153 OA
ATOM      3  O   UNL     1       4.577   1.259   2.305  0.00  0.00    -0.153 OA
ENDROOT
BRANCH   1   4
ATOM      4  C   UNL     1       3.672   2.182  -0.022  0.00  0.00    +0.225 C 
BRANCH   4   7
ATOM      5  C   UNL     1      -0.017   1.378   0.010  0.00  0.00    +0.003 A 
ATOM      6  C   UNL     1       1.171   2.085   0.002  0.00  0.00    +0.005 A 
ATOM      7  C   UNL     1       2.377   1.411  -0.013  0.00  0.00    -0.023 A 
ATOM      8  C   UNL     1       2.396   0.028  -0.020  0.00  0.00    +0.038 A 
ATOM      9  C   UNL     1       1.209  -0.679  -0.012  0.00  0.00    +0.127 A 
ATOM     10  C   UNL     1       0.002  -0.004   0.002  0.00  0.00    +0.033 A 
BRANCH   9  11
ATOM     11  N   UNL     1       1.229  -2.159  -0.020  0.00  0.00    +0.056 N 
ATOM     12  O   UNL     1       2.284  -2.749  -0.035  0.00  0.00    -0.126 OA
ATOM     13  O   UNL     1       0.190  -2.778  -0.013  0.00  0.00    -0.126 OA
ENDBRANCH   9  11
ENDBRANCH   4   7
ENDBRANCH   1   4
BRANCH   1  14
ATOM     14  N   UNL     1       5.625   3.329   1.542  0.00  0.00    -0.102 NA
BRANCH  14  15
ATOM     15  C   UNL     1       6.318   3.729   2.687  0.00  0.00    +0.077 A 
ATOM     16  C   UNL     1       5.822   3.414   3.946  0.00  0.00    +0.046 A 
ATOM     17  C   UNL     1       6.510   3.811   5.077  0.00  0.00    +0.044 A 
ATOM     18  C   UNL     1       7.691   4.522   4.957  0.00  0.00    +0.040 A 
ATOM     19  C   UNL     1       8.187   4.838   3.704  0.00  0.00    +0.044 A 
ATOM     20  C   UNL     1       7.506   4.438   2.569  0.00  0.00    +0.046 A 
ATOM     21 CL   UNL     1       9.668   5.731   3.558  0.00  0.00    -0.083 Cl
ATOM     22 CL   UNL     1       5.891   3.418   6.651  0.00  0.00    -0.083 Cl
ENDBRANCH  14  15
ENDBRANCH   1  14
TORSDOF 5
