REMARK  Name = ZINC40149155
REMARK  9 active torsions:
REMARK  status: ('A' for Active; 'I' for Inactive)
REMARK    1  A    between atoms: C_1  and  C_2
REMARK    2  A    between atoms: C_2  and  C_3
REMARK    3  A    between atoms: C_2  and  C_4
REMARK    4  A    between atoms: C_2  and  C_5
REMARK    5  A    between atoms: C_5  and  C_7
REMARK    6  A    between atoms: C_5  and  N_14
REMARK    7  A    between atoms: N_14  and  C_15
REMARK    8  A    between atoms: C_15  and  N_16
REMARK    9  A    between atoms: C_25  and  C_27
REMARK                            x       y       z     vdW  Elec       q    Type
REMARK                         _______ _______ _______ _____ _____    ______ ____
ROOT
ATOM      1  C   UNL     1      -1.371  -0.674  -2.417  0.00  0.00    +0.070 C 
ENDROOT
BRANCH   1   2
ATOM      2  N   UNL     1      -2.019  -0.156  -3.626  0.00  0.00    -0.246 N 
ATOM      3  C   UNL     1      -2.866   0.887  -3.519  0.00  0.00    +0.273 A 
ATOM      4  O   UNL     1      -3.090   1.393  -2.434  0.00  0.00    -0.266 OA
ATOM      5  C   UNL     1      -3.514   1.405  -4.732  0.00  0.00    +0.050 A 
ATOM      6  C   UNL     1      -4.399   2.482  -4.691  0.00  0.00    +0.014 A 
ATOM      7  C   UNL     1      -4.979   2.929  -5.858  0.00  0.00    +0.001 A 
ATOM      8  C   UNL     1      -4.691   2.318  -7.071  0.00  0.00    +0.001 A 
ATOM      9  C   UNL     1      -3.819   1.252  -7.133  0.00  0.00    +0.011 A 
ATOM     10  C   UNL     1      -3.220   0.785  -5.965  0.00  0.00    +0.016 A 
ATOM     11  C   UNL     1      -2.281  -0.348  -5.976  0.00  0.00    +0.106 A 
ATOM     12  N   UNL     1      -1.736  -0.754  -4.854  0.00  0.00    -0.169 NA
BRANCH  11  13
ATOM     13  C   UNL     1      -1.950  -1.023  -7.245  0.00  0.00    +0.040 A 
ATOM     14  C   UNL     1      -1.638  -2.339  -7.469  0.00  0.00    +0.018 A 
ATOM     15  C   UNL     1      -1.361  -2.743  -8.755  0.00  0.00    +0.008 A 
ATOM     16  C   UNL     1      -1.405  -1.831  -9.761  0.00  0.00    +0.046 A 
ATOM     17  S   UNL     1      -1.859  -0.339  -8.892  0.00  0.00    -0.095 S 
ENDBRANCH  11  13
ENDBRANCH   1   2
BRANCH   1  18
ATOM     18  N   UNL     1       0.032  -0.242  -2.391  0.00  0.00    +0.397 N 
ATOM     19  H   UNL     1       0.077   0.762  -2.475  0.00  0.00    -0.082 HD
ATOM     20  H   UNL     1       0.529  -0.666  -3.159  0.00  0.00    -0.082 HD
BRANCH  18  21
ATOM     21  C   UNL     1       0.648  -0.655  -1.122  0.00  0.00    -0.033 C 
BRANCH  21  22
ATOM     22  C   UNL     1       0.709  -2.159  -1.060  0.00  0.00    -0.061 A 
ATOM     23  C   UNL     1       1.043  -2.884  -2.189  0.00  0.00    +0.005 A 
ATOM     24  C   UNL     1       1.100  -4.264  -2.132  0.00  0.00    +0.038 A 
ATOM     25  C   UNL     1       0.822  -4.920  -0.945  0.00  0.00    +0.123 A 
ATOM     26  C   UNL     1       0.488  -4.193   0.185  0.00  0.00    +0.038 A 
ATOM     27  C   UNL     1       0.437  -2.813   0.128  0.00  0.00    +0.005 A 
ATOM     28  F   UNL     1       0.877  -6.269  -0.889  0.00  0.00    -0.205 F 
ENDBRANCH  21  22
BRANCH  21  30
ATOM     29  C   UNL     1       2.859  -0.491  -2.274  0.00  0.00    +0.009 C 
ATOM     30  C   UNL     1       2.064  -0.083  -1.032  0.00  0.00    -0.046 C 
ATOM     31  C   UNL     1       2.756  -0.628   0.218  0.00  0.00    +0.009 C 
ATOM     32  C   UNL     1       1.993   1.444  -0.951  0.00  0.00    +0.009 C 
ENDBRANCH  21  30
ENDBRANCH  18  21
ENDBRANCH   1  18
TORSDOF 6
