REMARK  Name = ZINC08791347
REMARK  8 active torsions:
REMARK  status: ('A' for Active; 'I' for Inactive)
REMARK    1  A    between atoms: C_1  and  C_2
REMARK    2  A    between atoms: C_16  and  C_18
REMARK    3  A    between atoms: C_18  and  C_19
REMARK    4  A    between atoms: N_31  and  C_34
REMARK    5  A    between atoms: C_34  and  C_35
REMARK    6  A    between atoms: C_35  and  C_36
REMARK    7  A    between atoms: C_36  and  O_37
REMARK    8  A    between atoms: O_37  and  C_38
REMARK                            x       y       z     vdW  Elec       q    Type
REMARK                         _______ _______ _______ _____ _____    ______ ____
ROOT
ATOM      1  C   UNL     1      -1.499  -3.758  -8.435  0.00  0.00    +0.045 C 
ATOM      2  C   UNL     1      -0.455  -2.751  -8.029  0.00  0.00    -0.029 A 
ATOM      3  C   UNL     1       0.763  -2.723  -8.678  0.00  0.00    +0.005 A 
ATOM      4  C   UNL     1       1.727  -1.802  -8.313  0.00  0.00    +0.001 A 
ATOM      5  C   UNL     1       1.471  -0.904  -7.291  0.00  0.00    +0.004 A 
ATOM      6  C   UNL     1       0.258  -0.929  -6.640  0.00  0.00    -0.027 A 
ATOM      7  C   UNL     1      -0.721  -1.851  -7.000  0.00  0.00    +0.039 A 
ATOM      8  N   UNL     1      -1.857  -1.684  -6.204  0.00  0.00    -0.286 N 
ATOM      9  C   UNL     1      -1.709  -0.688  -5.310  0.00  0.00    +0.211 C 
ATOM     10  O   UNL     1      -2.527  -0.319  -4.495  0.00  0.00    -0.277 OA
ATOM     11  C   UNL     1      -0.331  -0.122  -5.519  0.00  0.00    +0.050 C 
ATOM     12  C   UNL     1       0.517  -0.226  -4.245  0.00  0.00    +0.088 C 
ATOM     13  C   UNL     1       1.402   1.052  -4.241  0.00  0.00    +0.073 C 
ATOM     14  C   UNL     1       1.017   1.805  -5.532  0.00  0.00    -0.053 C 
ATOM     15  C   UNL     1       0.905   1.817  -3.036  0.00  0.00    +0.224 C 
ATOM     16  O   UNL     1       1.323   2.894  -2.669  0.00  0.00    -0.275 OA
ATOM     17  N   UNL     1      -0.067   1.120  -2.437  0.00  0.00    -0.242 N 
ATOM     18  C   UNL     1      -0.366  -0.041  -3.031  0.00  0.00    +0.225 C 
ATOM     19  O   UNL     1      -1.212  -0.823  -2.654  0.00  0.00    -0.275 OA
ATOM     20  H   UNL     1      -2.659  -2.224  -6.286  0.00  0.00    +0.155 HD
ATOM     21  N   UNL     1      -0.324   1.305  -5.850  0.00  0.00    +0.394 N 
ATOM     22  H   UNL     1      -1.029   1.801  -5.292  0.00  0.00    -0.083 HD
ATOM     23  H   UNL     1      -0.524   1.437  -6.848  0.00  0.00    -0.083 HD
ENDROOT
BRANCH  14  24
ATOM     24  C   UNL     1       1.003   3.314  -5.283  0.00  0.00    +0.022 C 
BRANCH  24  25
ATOM     25  C   UNL     1       0.746   4.035  -6.581  0.00  0.00    -0.024 A 
ATOM     26  C   UNL     1       1.672   4.546  -7.408  0.00  0.00    +0.087 A 
ATOM     27  N   UNL     1       1.064   5.125  -8.489  0.00  0.00    -0.360 N 
ATOM     28  H   UNL     1       1.527   5.558  -9.222  0.00  0.00    +0.165 HD
ATOM     29  C   UNL     1      -0.303   5.005  -8.376  0.00  0.00    +0.047 A 
ATOM     30  C   UNL     1      -0.562   4.318  -7.176  0.00  0.00    +0.003 A 
ATOM     31  C   UNL     1      -1.879   4.050  -6.798  0.00  0.00    +0.010 A 
ATOM     32  C   UNL     1      -2.911   4.457  -7.596  0.00  0.00    +0.001 A 
ATOM     33  C   UNL     1      -2.660   5.136  -8.780  0.00  0.00    +0.002 A 
ATOM     34  C   UNL     1      -1.368   5.411  -9.173  0.00  0.00    +0.026 A 
ENDBRANCH  24  25
ENDBRANCH  14  24
BRANCH  17  35
ATOM     35  C   UNL     1      -0.753   1.593  -1.232  0.00  0.00    +0.118 C 
BRANCH  35  36
ATOM     36  C   UNL     1      -0.013   1.086   0.008  0.00  0.00    +0.047 C 
BRANCH  36  37
ATOM     37  C   UNL     1      -0.729   1.579   1.267  0.00  0.00    +0.161 C 
BRANCH  37  38
ATOM     38  O   UNL     1      -0.038   1.106   2.425  0.00  0.00    -0.383 OA
ATOM     39  C   UNL     1      -0.628   1.513   3.661  0.00  0.00    +0.193 C 
ENDBRANCH  37  38
ENDBRANCH  36  37
ENDBRANCH  35  36
ENDBRANCH  17  35
TORSDOF 6
