REMARK  Name = ZINC39793748
REMARK  9 active torsions:
REMARK  status: ('A' for Active; 'I' for Inactive)
REMARK    1  A    between atoms: C_3  and  O_28
REMARK    2  A    between atoms: C_6  and  C_7
REMARK    3  A    between atoms: N_11  and  C_15
REMARK    4  A    between atoms: C_15  and  C_16
REMARK    5  A    between atoms: C_16  and  C_17
REMARK    6  A    between atoms: C_17  and  C_18
REMARK    7  A    between atoms: C_18  and  C_19
REMARK    8  A    between atoms: C_19  and  C_20
REMARK    9  A    between atoms: O_28  and  C_29
REMARK                            x       y       z     vdW  Elec       q    Type
REMARK                         _______ _______ _______ _____ _____    ______ ____
ROOT
ATOM      1  C   UNL     1      -1.634  -0.570  -0.926  0.00  0.00    +0.028 C 
ATOM      2  C   UNL     1      -1.639  -1.901  -0.663  0.00  0.00    +0.077 C 
ATOM      3  C   UNL     1      -2.702  -2.901  -0.887  0.00  0.00    +0.258 C 
ATOM      4  O   UNL     1      -3.774  -2.596  -1.376  0.00  0.00    -0.269 OA
ATOM      5  N   UNL     1      -2.430  -4.146  -0.531  0.00  0.00    -0.255 N 
ATOM      6  C   UNL     1      -1.240  -4.479   0.010  0.00  0.00    +0.121 C 
ATOM      7  S   UNL     1      -0.704  -6.020   0.530  0.00  0.00    -0.027 S 
ATOM      8  S   UNL     1      -0.357  -2.928   0.043  0.00  0.00    -0.061 S 
ENDROOT
BRANCH   1  14
ATOM      9  C   UNL     1       0.840  -0.448  -0.714  0.00  0.00    +0.011 A 
ATOM     10  C   UNL     1       1.996   0.284  -0.566  0.00  0.00    +0.046 A 
ATOM     11  C   UNL     1       1.938   1.669  -0.469  0.00  0.00    +0.121 A 
ATOM     12  C   UNL     1       0.712   2.324  -0.522  0.00  0.00    +0.046 A 
ATOM     13  C   UNL     1      -0.451   1.602  -0.670  0.00  0.00    +0.011 A 
ATOM     14  C   UNL     1      -0.397   0.206  -0.768  0.00  0.00    -0.024 A 
BRANCH  11  15
ATOM     15  O   UNL     1       3.081   2.386  -0.323  0.00  0.00    -0.489 OA
BRANCH  15  16
ATOM     16  C   UNL     1       2.947   3.804  -0.198  0.00  0.00    +0.173 C 
ATOM     17  C   UNL     1       2.831   4.429  -1.589  0.00  0.00    +0.044 C 
ATOM     18  C   UNL     1       2.687   5.947  -1.456  0.00  0.00    +0.004 C 
ATOM     19  C   UNL     1       3.916   6.514  -0.742  0.00  0.00    +0.000 C 
ATOM     20  C   UNL     1       4.032   5.889   0.649  0.00  0.00    +0.004 C 
ATOM     21  C   UNL     1       4.176   4.371   0.515  0.00  0.00    +0.044 C 
ENDBRANCH  15  16
ENDBRANCH  11  15
ENDBRANCH   1  14
BRANCH   5  22
ATOM     22  C   UNL     1      -3.443  -5.185  -0.728  0.00  0.00    +0.115 C 
BRANCH  22  23
ATOM     23  C   UNL     1      -3.271  -5.809  -2.115  0.00  0.00    +0.019 C 
BRANCH  23  24
ATOM     24  C   UNL     1      -4.330  -6.894  -2.320  0.00  0.00    +0.002 C 
BRANCH  24  25
ATOM     25  C   UNL     1      -4.157  -7.518  -3.707  0.00  0.00    +0.009 C 
BRANCH  25  26
ATOM     26  C   UNL     1      -5.216  -8.604  -3.913  0.00  0.00    +0.096 C 
BRANCH  26  27
ATOM     27  C   UNL     1      -5.046  -9.218  -5.278  0.00  0.00    +0.219 C 
ATOM     28  O   UNL     1      -4.165  -8.827  -6.014  0.00  0.00    -0.275 OA
ATOM     29  N   UNL     1      -5.873 -10.203  -5.681  0.00  0.00    -0.265 N 
ATOM     30  C   UNL     1      -5.717 -10.770  -6.941  0.00  0.00    +0.164 A 
ATOM     31  N   UNL     1      -4.824 -10.481  -7.862  0.00  0.00    -0.233 NA
ATOM     32  C   UNL     1      -4.807 -11.116  -9.019  0.00  0.00    +0.120 A 
ATOM     33  C   UNL     1      -5.747 -12.074  -9.210  0.00  0.00    +0.068 A 
ATOM     34  S   UNL     1      -6.619 -11.999  -7.654  0.00  0.00    -0.061 S 
ATOM     35  H   UNL     1      -6.578 -10.516  -5.093  0.00  0.00    +0.157 HD
ENDBRANCH  26  27
ENDBRANCH  25  26
ENDBRANCH  24  25
ENDBRANCH  23  24
ENDBRANCH  22  23
ENDBRANCH   5  22
TORSDOF 9
