REMARK  Name = ZINC14478058
REMARK  8 active torsions:
REMARK  status: ('A' for Active; 'I' for Inactive)
REMARK    1  A    between atoms: C_1  and  C_2
REMARK    2  A    between atoms: C_2  and  N_3
REMARK    3  A    between atoms: N_3  and  C_4
REMARK    4  A    between atoms: N_3  and  S_6
REMARK    5  A    between atoms: C_4  and  C_5
REMARK    6  A    between atoms: S_6  and  C_9
REMARK    7  A    between atoms: C_22  and  C_25
REMARK    8  A    between atoms: C_30  and  N_31
REMARK                            x       y       z     vdW  Elec       q    Type
REMARK                         _______ _______ _______ _____ _____    ______ ____
ROOT
ATOM      1  C   UNL     1       3.620   1.768  -3.231  0.00  0.00    +0.106 A 
ATOM      2  C   UNL     1       3.455   0.599  -3.951  0.00  0.00    +0.030 A 
ATOM      3  C   UNL     1       2.878  -0.500  -3.347  0.00  0.00    +0.025 A 
ATOM      4  C   UNL     1       2.467  -0.429  -2.021  0.00  0.00    +0.031 A 
ATOM      5  C   UNL     1       2.627   0.740  -1.299  0.00  0.00    -0.018 A 
ATOM      6  C   UNL     1       3.210   1.839  -1.915  0.00  0.00    +0.034 A 
ATOM      7  C   UNL     1       2.196   0.880   0.136  0.00  0.00    +0.049 C 
ATOM      8  C   UNL     1       1.174   2.006   0.214  0.00  0.00    -0.023 C 
ATOM      9  C   UNL     1      -0.043   1.522   0.189  0.00  0.00    -0.030 C 
ATOM     10  C   UNL     1      -0.010   0.007   0.095  0.00  0.00    +0.033 C 
ATOM     11  C   UNL     1       1.399  -0.341   0.631  0.00  0.00    +0.029 C 
ATOM     12  C   UNL     1       1.901  -1.645   0.038  0.00  0.00    +0.107 C 
ATOM     13  N   UNL     1       1.894  -1.557  -1.423  0.00  0.00    -0.336 N 
ATOM     14  H   UNL     1       1.495  -2.261  -1.959  0.00  0.00    +0.147 HD
ENDROOT
BRANCH  12  15
ATOM     15  C   UNL     1       3.317  -1.889   0.489  0.00  0.00    +0.003 A 
ATOM     16  C   UNL     1       4.369  -1.652  -0.376  0.00  0.00    +0.008 A 
ATOM     17  C   UNL     1       5.669  -1.871   0.040  0.00  0.00    +0.000 A 
ATOM     18  C   UNL     1       5.917  -2.338   1.317  0.00  0.00    +0.002 A 
ATOM     19  C   UNL     1       4.865  -2.580   2.181  0.00  0.00    +0.033 A 
ATOM     20  C   UNL     1       3.565  -2.355   1.767  0.00  0.00    +0.131 A 
BRANCH  20  21
ATOM     21  N   UNL     1       2.438  -2.614   2.691  0.00  0.00    +0.057 N 
ATOM     22  O   UNL     1       2.659  -2.925   3.848  0.00  0.00    -0.126 OA
ATOM     23  O   UNL     1       1.291  -2.516   2.295  0.00  0.00    -0.126 OA
ENDBRANCH  20  21
ENDBRANCH  12  15
BRANCH   1  24
ATOM     24  S   UNL     1       4.359   3.173  -3.996  0.00  0.00    +0.061 S 
ATOM     25  O   UNL     1       4.159   3.025  -5.395  0.00  0.00    -0.153 OA
ATOM     26  O   UNL     1       3.904   4.312  -3.279  0.00  0.00    -0.153 OA
BRANCH  24  27
ATOM     27  N   UNL     1       5.991   3.071  -3.738  0.00  0.00    -0.177 NA
BRANCH  27  29
ATOM     28  C   UNL     1       7.432   3.378  -5.690  0.00  0.00    +0.022 C 
ATOM     29  C   UNL     1       6.843   2.369  -4.702  0.00  0.00    +0.106 C 
ENDBRANCH  27  29
BRANCH  27  30
ATOM     30  C   UNL     1       6.583   3.681  -2.545  0.00  0.00    +0.106 C 
ATOM     31  C   UNL     1       6.712   2.627  -1.443  0.00  0.00    +0.022 C 
ENDBRANCH  27  30
ENDBRANCH  24  27
ENDBRANCH   1  24
TORSDOF 6
