REMARK  Name = ZINC39689959
REMARK  12 active torsions:
REMARK  status: ('A' for Active; 'I' for Inactive)
REMARK    1  A    between atoms: C_1  and  C_2
REMARK    2  A    between atoms: C_2  and  C_3
REMARK    3  A    between atoms: C_2  and  C_4
REMARK    4  A    between atoms: C_4  and  N_5
REMARK    5  A    between atoms: C_6  and  C_32
REMARK    6  A    between atoms: C_10  and  S_12
REMARK    7  A    between atoms: S_12  and  C_13
REMARK    8  A    between atoms: C_13  and  C_14
REMARK    9  A    between atoms: N_16  and  CA_17
REMARK   10  A    between atoms: CA_17  and  CB_19
REMARK   11  A    between atoms: CA_17  and  C_29
REMARK   12  A    between atoms: CB_19  and  CG_20
REMARK                            x       y       z     vdW  Elec       q    Type
REMARK                         _______ _______ _______ _____ _____    ______ ____
ROOT
ATOM      1  C   UNK A   0       4.440   0.963   0.092  0.00  0.00    +0.164 C 
ENDROOT
BRANCH   1   2
ATOM      2  C   UNK A   0       5.155   1.317   1.370  0.00  0.00    +0.223 C 
ATOM      3  O   UNK A   0       4.740   2.218   2.068  0.00  0.00    -0.275 OA
ATOM      4  N   TRP A   1       6.256   0.631   1.739  0.00  0.00    -0.301 N 
ATOM      5  H   TRP A   1       6.588  -0.089   1.181  0.00  0.00    +0.150 HD
BRANCH   4   6
ATOM      6  CA  TRP A   1       6.951   0.975   2.981  0.00  0.00    +0.191 C 
BRANCH   6   7
ATOM      7  C   TRP A   1       7.917   2.103   2.721  0.00  0.00    +0.376 C 
ATOM      8  O   TRP A   1       8.182   2.895   3.609  0.00  0.00    -0.244 OA
ATOM      9  OXT TRP A   1       8.432   2.223   1.623  0.00  0.00    -0.244 OA
ENDBRANCH   6   7
BRANCH   6  10
ATOM     10  CB  TRP A   1       7.719  -0.246   3.491  0.00  0.00    +0.071 C 
BRANCH  10  11
ATOM     11  CG  TRP A   1       6.744  -1.331   3.867  0.00  0.00    -0.020 A 
ATOM     12  CD2 TRP A   1       6.152  -2.322   2.965  0.00  0.00    +0.003 A 
ATOM     13  CE3 TRP A   1       6.269  -2.582   1.598  0.00  0.00    +0.010 A 
ATOM     14  CZ3 TRP A   1       5.564  -3.611   1.041  0.00  0.00    +0.001 A 
ATOM     15  CH2 TRP A   1       4.732  -4.401   1.822  0.00  0.00    +0.002 A 
ATOM     16  CZ2 TRP A   1       4.602  -4.162   3.173  0.00  0.00    +0.026 A 
ATOM     17  CE2 TRP A   1       5.311  -3.120   3.762  0.00  0.00    +0.047 A 
ATOM     18  NE1 TRP A   1       5.394  -2.639   5.049  0.00  0.00    -0.360 N 
ATOM     19  CD1 TRP A   1       6.256  -1.577   5.093  0.00  0.00    +0.087 A 
ATOM     20  HE1 TRP A   1       4.916  -3.001   5.811  0.00  0.00    +0.165 HD
ENDBRANCH  10  11
ENDBRANCH   6  10
ENDBRANCH   4   6
ENDBRANCH   1   2
BRANCH   1  21
ATOM     21  S   UNK A   0       3.009   2.057  -0.123  0.00  0.00    -0.150 S 
BRANCH  21  26
ATOM     22  N   UNK A   0       1.866   0.089  -1.584  0.00  0.00    +0.413 N 
ATOM     23  C   UNK A   0       2.636  -0.636  -2.621  0.00  0.00    +0.086 C 
ATOM     24  N   UNK A   0       2.986   0.412  -3.615  0.00  0.00    -0.264 NA
ATOM     25  N   UNK A   0       3.265   1.587  -2.776  0.00  0.00    -0.261 NA
ATOM     26  C   UNK A   0       2.268   1.508  -1.685  0.00  0.00    +0.078 C 
ATOM     27  H   UNK A   0       3.801   0.147  -4.149  0.00  0.00    +0.139 HD
ATOM     28  H   UNK A   0       3.159   2.441  -3.302  0.00  0.00    +0.140 HD
ATOM     29  H   UNK A   0       2.092  -0.270  -0.669  0.00  0.00    -0.075 HD
BRANCH  23  30
ATOM     30  C   UNK A   0       1.788  -1.707  -3.255  0.00  0.00    +0.106 A 
ATOM     31  C   UNK A   0       1.589  -1.875  -4.575  0.00  0.00    +0.044 A 
ATOM     32  C   UNK A   0       0.733  -2.990  -4.723  0.00  0.00    +0.041 A 
ATOM     33  C   UNK A   0       0.459  -3.437  -3.484  0.00  0.00    +0.195 A 
ATOM     34  O   UNK A   0       1.105  -2.660  -2.599  0.00  0.00    -0.468 OA
ENDBRANCH  23  30
BRANCH  22  35
ATOM     35  C   UNK A   0       0.426  -0.046  -1.839  0.00  0.00    -0.069 C 
BRANCH  35  37
ATOM     36  C   UNK A   0      -0.174   2.102  -0.712  0.00  0.00    +0.005 C 
ATOM     37  C   UNK A   0      -0.358   0.583  -0.685  0.00  0.00    -0.034 C 
ATOM     38  C   UNK A   0      -1.843   0.246  -0.833  0.00  0.00    +0.005 C 
ENDBRANCH  35  37
ENDBRANCH  22  35
ENDBRANCH  21  26
ENDBRANCH   1  21
TORSDOF 10
