REMARK  Name = ZINC64600271
REMARK  2 active torsions:
REMARK  status: ('A' for Active; 'I' for Inactive)
REMARK    1  A    between atoms: C_4  and  C_7
REMARK    2  A    between atoms: C_13  and  C_16
REMARK                            x       y       z     vdW  Elec       q    Type
REMARK                         _______ _______ _______ _____ _____    ______ ____
ROOT
ATOM      1  C   UNL     1       3.695  -0.685  -0.038  0.00  0.00    +0.182 A 
ATOM      2  N   UNL     1       4.865  -0.164  -0.316  0.00  0.00    -0.127 NA
ATOM      3  N   UNL     1       5.776  -1.070  -0.249  0.00  0.00    -0.120 NA
ATOM      4  C   UNL     1       5.235  -2.211   0.055  0.00  0.00    +0.211 A 
ATOM      5  N   UNL     1       3.888  -2.034   0.243  0.00  0.00    -0.220 N 
ATOM      6  N   UNL     1       3.126  -3.093   0.639  0.00  0.00    -0.265 N 
ATOM      7  C   UNL     1       3.713  -4.429   0.355  0.00  0.00    +0.178 C 
ATOM      8  S   UNL     1       5.494  -3.950   0.342  0.00  0.00    -0.058 S 
ATOM      9  H   UNL     1       2.869  -3.010   1.612  0.00  0.00    +0.168 HD
ENDROOT
BRANCH   7  10
ATOM     10  C   UNL     1       3.402  -5.430   1.470  0.00  0.00    +0.135 C 
ATOM     11  C   UNL     1       3.913  -4.910   2.795  0.00  0.00    +0.010 C 
ATOM     12  C   UNL     1       4.820  -5.814   3.228  0.00  0.00    -0.004 A 
ATOM     13  C   UNL     1       5.659  -5.885   4.431  0.00  0.00    +0.010 A 
ATOM     14  C   UNL     1       6.490  -6.939   4.591  0.00  0.00    +0.001 A 
ATOM     15  C   UNL     1       6.571  -7.965   3.639  0.00  0.00    +0.002 A 
ATOM     16  C   UNL     1       5.833  -7.970   2.509  0.00  0.00    +0.026 A 
ATOM     17  C   UNL     1       4.925  -6.910   2.238  0.00  0.00    +0.043 A 
ATOM     18  N   UNL     1       4.112  -6.691   1.231  0.00  0.00    -0.375 N 
ATOM     19  H   UNL     1       3.999  -7.266   0.458  0.00  0.00    +0.160 HD
ENDBRANCH   7  10
BRANCH   1  23
ATOM     20  C   UNL     1      -0.017   1.379   0.010  0.00  0.00    +0.000 A 
ATOM     21  C   UNL     1       1.168   2.094   0.002  0.00  0.00    +0.001 A 
ATOM     22  C   UNL     1       2.377   1.429  -0.013  0.00  0.00    +0.011 A 
ATOM     23  C   UNL     1       2.403   0.034  -0.021  0.00  0.00    +0.021 A 
ATOM     24  C   UNL     1       1.204  -0.681  -0.013  0.00  0.00    +0.011 A 
ATOM     25  C   UNL     1       0.002  -0.004   0.002  0.00  0.00    +0.001 A 
ENDBRANCH   1  23
TORSDOF 2
