REMARK  Name = ZINC29046965
REMARK  6 active torsions:
REMARK  status: ('A' for Active; 'I' for Inactive)
REMARK    1  A    between atoms: C_4  and  S_7
REMARK    2  A    between atoms: S_7  and  N_10
REMARK    3  A    between atoms: C_11  and  C_13
REMARK    4  A    between atoms: C_22  and  C_27
REMARK    5  A    between atoms: C_23  and  C_24
REMARK    6  A    between atoms: C_27  and  C_28
REMARK                            x       y       z     vdW  Elec       q    Type
REMARK                         _______ _______ _______ _____ _____    ______ ____
ROOT
ATOM      1  C   UNL     1       0.032   5.690  -0.485  0.00  0.00    +0.193 C 
ATOM      2  C   UNL     1      -1.399   6.233  -0.608  0.00  0.00    +0.110 C 
ATOM      3  S   UNL     1      -2.377   4.703  -0.372  0.00  0.00    -0.105 S 
ATOM      4  C   UNL     1      -1.046   3.544  -0.147  0.00  0.00    +0.083 A 
ATOM      5  N   UNL     1       0.116   4.250  -0.241  0.00  0.00    -0.290 N 
ATOM      6  C   UNL     1       1.287   3.555  -0.098  0.00  0.00    +0.253 A 
ATOM      7  O   UNL     1       2.347   4.156  -0.176  0.00  0.00    -0.268 OA
ATOM      8  C   UNL     1       1.303   2.184   0.134  0.00  0.00    +0.074 A 
ATOM      9  C   UNL     1       0.118   1.483   0.227  0.00  0.00    -0.032 A 
ATOM     10  C   UNL     1      -1.074   2.187   0.075  0.00  0.00    -0.011 A 
ENDROOT
BRANCH   1  12
ATOM     11  N   UNL     1       0.777   7.755   0.655  0.00  0.00    -0.088 NA
ATOM     12  C   UNL     1       0.719   6.409   0.647  0.00  0.00    +0.288 C 
ATOM     13  O   UNL     1       1.220   5.775   1.552  0.00  0.00    -0.267 OA
BRANCH  11  14
ATOM     14  S   UNL     1       1.533   8.544   1.899  0.00  0.00    +0.102 S 
ATOM     15  O   UNL     1       1.451   9.933   1.609  0.00  0.00    -0.146 OA
ATOM     16  O   UNL     1       1.024   7.986   3.103  0.00  0.00    -0.146 OA
BRANCH  14  20
ATOM     17  C   UNL     1       5.920   7.442   1.717  0.00  0.00    +0.000 A 
ATOM     18  C   UNL     1       5.455   8.546   1.026  0.00  0.00    +0.002 A 
ATOM     19  C   UNL     1       4.115   8.882   1.082  0.00  0.00    +0.029 A 
ATOM     20  C   UNL     1       3.240   8.115   1.828  0.00  0.00    +0.113 A 
ATOM     21  C   UNL     1       3.706   7.014   2.522  0.00  0.00    +0.029 A 
ATOM     22  C   UNL     1       5.045   6.674   2.462  0.00  0.00    +0.002 A 
ENDBRANCH  14  20
ENDBRANCH  11  14
ENDBRANCH   1  12
BRANCH  10  23
ATOM     23  C   UNL     1      -2.393   1.464   0.162  0.00  0.00    +0.022 C 
ATOM     24  C   UNL     1      -3.515   2.134   0.957  0.00  0.00    +0.009 C 
ATOM     25  C   UNL     1      -2.804   0.904   1.525  0.00  0.00    +0.009 C 
ENDBRANCH  10  23
BRANCH   9  26
ATOM     26  C   UNL     1       0.115  -0.003   0.477  0.00  0.00    +0.071 C 
BRANCH  26  27
ATOM     27  C   UNL     1       0.011  -0.734  -0.836  0.00  0.00    -0.035 A 
ATOM     28  C   UNL     1      -1.205  -1.117  -1.312  0.00  0.00    +0.004 A 
ATOM     29  C   UNL     1      -1.322  -1.788  -2.528  0.00  0.00    +0.001 A 
ATOM     30  C   UNL     1      -0.221  -2.091  -3.269  0.00  0.00    +0.008 A 
ATOM     31  C   UNL     1       1.052  -1.718  -2.808  0.00  0.00    -0.018 A 
ATOM     32  C   UNL     1       1.170  -1.029  -1.574  0.00  0.00    -0.014 A 
ATOM     33  C   UNL     1       2.444  -0.656  -1.112  0.00  0.00    +0.009 A 
ATOM     34  C   UNL     1       3.544  -0.960  -1.853  0.00  0.00    +0.001 A 
ATOM     35  C   UNL     1       3.429  -1.637  -3.066  0.00  0.00    +0.001 A 
ATOM     36  C   UNL     1       2.212  -2.014  -3.545  0.00  0.00    +0.008 A 
ENDBRANCH  26  27
ENDBRANCH   9  26
TORSDOF 6
