REMARK  Name = ZINC21245608
REMARK  9 active torsions:
REMARK  status: ('A' for Active; 'I' for Inactive)
REMARK    1  A    between atoms: C_1  and  C_2
REMARK    2  A    between atoms: C_2  and  O_3
REMARK    3  A    between atoms: O_3  and  C_4
REMARK    4  A    between atoms: C_5  and  C_12
REMARK    5  A    between atoms: C_9  and  O_10
REMARK    6  A    between atoms: O_10  and  C_11
REMARK    7  A    between atoms: C_17  and  C_22
REMARK    8  A    between atoms: C_25  and  O_28
REMARK    9  A    between atoms: O_28  and  C_29
REMARK                            x       y       z     vdW  Elec       q    Type
REMARK                         _______ _______ _______ _____ _____    ______ ____
ROOT
ATOM      1  C   UNL     1       5.667   6.790   0.040  0.00  0.00    +0.140 C 
ATOM      2  C   UNL     1       4.348   6.055   0.051  0.00  0.00    +0.037 C 
ATOM      3  C   UNL     1       3.690   5.598  -1.028  0.00  0.00    +0.017 C 
ATOM      4  C   UNL     1       2.363   4.875  -0.872  0.00  0.00    +0.059 C 
ATOM      5  C   UNL     1       2.344   4.097   0.443  0.00  0.00    +0.032 C 
ATOM      6  C   UNL     1       2.539   5.104   1.583  0.00  0.00    +0.088 C 
ATOM      7  C   UNL     1       3.818   5.850   1.347  0.00  0.00    +0.163 C 
ATOM      8  O   UNL     1       4.421   6.296   2.304  0.00  0.00    -0.292 OA
ATOM      9  N   UNL     1       4.114   5.740  -2.310  0.00  0.00    -0.316 N 
ATOM     10  C   UNL     1       5.407   5.487  -2.752  0.00  0.00    +0.052 A 
ATOM     11  C   UNL     1       5.699   4.472  -3.647  0.00  0.00    +0.025 A 
ATOM     12  C   UNL     1       7.002   4.306  -4.083  0.00  0.00    +0.002 A 
ATOM     13  C   UNL     1       8.002   5.147  -3.630  0.00  0.00    +0.002 A 
ATOM     14  C   UNL     1       7.715   6.151  -2.721  0.00  0.00    +0.025 A 
ATOM     15  C   UNL     1       6.415   6.306  -2.267  0.00  0.00    +0.049 A 
ATOM     16  N   UNL     1       6.099   7.228  -1.270  0.00  0.00    -0.331 N 
ATOM     17  H   UNL     1       3.413   6.079  -3.087  0.00  0.00    +0.152 HD
ATOM     18  H   UNL     1       6.182   8.302  -1.492  0.00  0.00    +0.147 HD
ENDROOT
BRANCH   1  20
ATOM     19  C   UNL     1       7.892   6.414   1.128  0.00  0.00    +0.167 A 
ATOM     20  C   UNL     1       6.722   5.880   0.612  0.00  0.00    +0.023 A 
ATOM     21  C   UNL     1       6.526   4.511   0.617  0.00  0.00    +0.009 A 
ATOM     22  C   UNL     1       7.493   3.673   1.141  0.00  0.00    +0.004 A 
ATOM     23  C   UNL     1       8.660   4.200   1.662  0.00  0.00    +0.049 A 
ATOM     24  C   UNL     1       8.863   5.571   1.660  0.00  0.00    +0.162 A 
BRANCH  24  25
ATOM     25  O   UNL     1      10.011   6.090   2.172  0.00  0.00    -0.491 OA
ATOM     26  C   UNL     1      10.965   5.165   2.695  0.00  0.00    +0.277 C 
ENDBRANCH  24  25
BRANCH  19  27
ATOM     27  O   UNL     1       8.089   7.760   1.119  0.00  0.00    -0.488 OA
BRANCH  27  29
ATOM     28  C   UNL     1       7.914   9.975   2.068  0.00  0.00    +0.048 C 
ATOM     29  C   UNL     1       7.744   8.474   2.307  0.00  0.00    +0.226 C 
ENDBRANCH  27  29
ENDBRANCH  19  27
ENDBRANCH   1  20
BRANCH   5  30
ATOM     30  C   UNL     1       1.021   3.394   0.602  0.00  0.00    -0.043 A 
ATOM     31  C   UNL     1       0.980   2.017   0.714  0.00  0.00    +0.007 A 
ATOM     32  C   UNL     1      -0.232   1.370   0.860  0.00  0.00    +0.046 A 
ATOM     33  C   UNL     1      -1.409   2.104   0.889  0.00  0.00    +0.120 A 
ATOM     34  C   UNL     1      -1.365   3.486   0.783  0.00  0.00    +0.046 A 
ATOM     35  C   UNL     1      -0.150   4.128   0.636  0.00  0.00    +0.007 A 
BRANCH  33  36
ATOM     36  O   UNL     1      -2.603   1.470   1.027  0.00  0.00    -0.495 OA
ATOM     37  C   UNL     1      -3.774   2.289   1.050  0.00  0.00    +0.277 C 
ENDBRANCH  33  36
ENDBRANCH   5  30
TORSDOF 6
