REMARK  Name = ZINC14382251
REMARK  13 active torsions:
REMARK  status: ('A' for Active; 'I' for Inactive)
REMARK    1  A    between atoms: C_1  and  C_2
REMARK    2  A    between atoms: C_2  and  O_3
REMARK    3  A    between atoms: O_3  and  C_4
REMARK    4  A    between atoms: C_7  and  C_12
REMARK    5  A    between atoms: C_9  and  O_10
REMARK    6  A    between atoms: O_10  and  C_11
REMARK    7  A    between atoms: N_14  and  N_15
REMARK    8  A    between atoms: C_16  and  C_18
REMARK    9  A    between atoms: C_20  and  C_30
REMARK   10  A    between atoms: N_26  and  C_27
REMARK   11  A    between atoms: C_27  and  C_28
REMARK   12  A    between atoms: C_27  and  C_29
REMARK   13  A    between atoms: C_33  and  C_35
REMARK                            x       y       z     vdW  Elec       q    Type
REMARK                         _______ _______ _______ _____ _____    ______ ____
ROOT
ATOM      1  N   UNL     1       0.696  -8.234  -1.076  0.00  0.00    -0.230 N 
ATOM      2  C   UNL     1       0.176  -9.064  -0.150  0.00  0.00    +0.261 C 
ATOM      3  O   UNL     1      -0.386  -8.609   0.827  0.00  0.00    -0.269 OA
ATOM      4  H   UNL     1       1.145  -8.597  -1.855  0.00  0.00    +0.173 HD
ENDROOT
BRANCH   2   5
ATOM      5  C   UNL     1       0.291 -10.528  -0.323  0.00  0.00    +0.052 A 
ATOM      6  C   UNL     1       0.934 -11.070  -1.428  0.00  0.00    +0.042 A 
ATOM      7  C   UNL     1       1.022 -12.463  -1.555  0.00  0.00    +0.081 A 
ATOM      8  N   UNL     1       0.503 -13.272  -0.643  0.00  0.00    -0.227 NA
ATOM      9  C   UNL     1      -0.121 -12.808   0.429  0.00  0.00    +0.160 A 
ATOM     10  C   UNL     1      -0.247 -11.419   0.636  0.00  0.00    +0.051 A 
ATOM     11  C   UNL     1      -0.942 -11.241   1.850  0.00  0.00    +0.145 A 
ATOM     12  N   UNL     1      -1.215 -12.414   2.349  0.00  0.00    -0.177 NA
ATOM     13  N   UNL     1      -0.732 -13.414   1.497  0.00  0.00    -0.244 N 
BRANCH   7  14
ATOM     14  C   UNL     1       1.705 -13.040  -2.729  0.00  0.00    +0.038 A 
ATOM     15  C   UNL     1       1.900 -14.358  -3.054  0.00  0.00    +0.018 A 
ATOM     16  C   UNL     1       2.574 -14.660  -4.214  0.00  0.00    +0.011 A 
ATOM     17  C   UNL     1       3.026 -13.648  -5.001  0.00  0.00    -0.013 A 
ATOM     18  S   UNL     1       2.487 -12.204  -4.099  0.00  0.00    -0.092 S 
ATOM     19  C   UNL     1       3.782 -13.725  -6.302  0.00  0.00    +0.051 C 
ENDBRANCH   7  14
BRANCH  13  20
ATOM     20  C   UNL     1      -0.846 -14.858   1.716  0.00  0.00    +0.103 C 
ATOM     21  C   UNL     1      -0.160 -15.230   3.033  0.00  0.00    +0.032 C 
ATOM     22  C   UNL     1      -2.324 -15.249   1.783  0.00  0.00    +0.032 C 
ENDBRANCH  13  20
ENDBRANCH   2   5
BRANCH   1  25
ATOM     23  C   UNL     1       1.107  -6.016  -1.838  0.00  0.00    +0.260 C 
ATOM     24  O   UNL     1       1.670  -6.471  -2.815  0.00  0.00    -0.269 OA
ATOM     25  N   UNL     1       0.588  -6.846  -0.912  0.00  0.00    -0.230 N 
ATOM     26  H   UNL     1       0.138  -6.484  -0.133  0.00  0.00    +0.173 HD
BRANCH  23  30
ATOM     27  C   UNL     1       0.777  -1.809  -1.336  0.00  0.00    +0.162 A 
ATOM     28  C   UNL     1       0.241  -2.666  -0.384  0.00  0.00    +0.050 A 
ATOM     29  C   UNL     1       0.346  -4.030  -0.544  0.00  0.00    +0.017 A 
ATOM     30  C   UNL     1       0.993  -4.555  -1.666  0.00  0.00    +0.042 A 
ATOM     31  C   UNL     1       1.531  -3.692  -2.625  0.00  0.00    +0.062 A 
ATOM     32  C   UNL     1       1.418  -2.325  -2.461  0.00  0.00    +0.162 A 
BRANCH  32  33
ATOM     33  O   UNL     1       1.936  -1.483  -3.395  0.00  0.00    -0.491 OA
ATOM     34  C   UNL     1       2.579  -2.082  -4.522  0.00  0.00    +0.277 C 
ENDBRANCH  32  33
BRANCH  27  35
ATOM     35  O   UNL     1       0.671  -0.465  -1.174  0.00  0.00    -0.489 OA
BRANCH  35  37
ATOM     36  C   UNL     1      -0.019   1.526   0.010  0.00  0.00    +0.048 C 
ATOM     37  C   UNL     1       0.002  -0.004   0.002  0.00  0.00    +0.226 C 
ENDBRANCH  35  37
ENDBRANCH  27  35
ENDBRANCH  23  30
ENDBRANCH   1  25
TORSDOF 8
