REMARK  Name = ZINC09232234
REMARK  8 active torsions:
REMARK  status: ('A' for Active; 'I' for Inactive)
REMARK    1  A    between atoms: C_1  and  C_2
REMARK    2  A    between atoms: C_5  and  N_9
REMARK    3  A    between atoms: C_7  and  C_8
REMARK    4  A    between atoms: C_13  and  C_14
REMARK    5  A    between atoms: C_18  and  O_20
REMARK    6  A    between atoms: O_20  and  C_21
REMARK    7  A    between atoms: C_24  and  N_30
REMARK    8  A    between atoms: C_26  and  N_27
REMARK                            x       y       z     vdW  Elec       q    Type
REMARK                         _______ _______ _______ _____ _____    ______ ____
ROOT
ATOM      1  C   UNL     1      -3.355  -2.739   1.661  0.00  0.00    -0.020 A 
ATOM      2  C   UNL     1      -3.355  -1.887   2.772  0.00  0.00    +0.008 A 
ATOM      3  C   UNL     1      -2.241  -1.125   3.054  0.00  0.00    +0.004 A 
ATOM      4  C   UNL     1      -1.123  -1.198   2.243  0.00  0.00    +0.046 A 
ATOM      5  C   UNL     1      -1.112  -2.039   1.138  0.00  0.00    +0.129 A 
ATOM      6  C   UNL     1      -2.225  -2.806   0.840  0.00  0.00    +0.054 A 
ENDROOT
BRANCH   1  11
ATOM      7  N   UNL     1      -3.327  -6.924   0.493  0.00  0.00    -0.224 N 
ATOM      8  C   UNL     1      -3.175  -5.681   0.917  0.00  0.00    +0.263 C 
ATOM      9  O   UNL     1      -2.087  -5.248   1.249  0.00  0.00    -0.269 OA
ATOM     10  C   UNL     1      -4.393  -4.846   0.969  0.00  0.00    +0.078 C 
ATOM     11  C   UNL     1      -4.540  -3.554   1.356  0.00  0.00    +0.028 C 
ATOM     12  S   UNL     1      -5.621  -6.008   0.388  0.00  0.00    -0.061 S 
ATOM     13  C   UNL     1      -4.534  -7.401   0.127  0.00  0.00    +0.125 C 
ATOM     14  S   UNL     1      -4.931  -8.966  -0.443  0.00  0.00    -0.027 S 
BRANCH   7  19
ATOM     15  C   UNL     1       1.201 -10.333   0.208  0.00  0.00    +0.044 C 
ATOM     16  C   UNL     1      -0.001  -9.428   0.284  0.00  0.00    -0.047 A 
ATOM     17  C   UNL     1      -0.263  -8.540  -0.744  0.00  0.00    +0.005 A 
ATOM     18  C   UNL     1      -1.367  -7.714  -0.681  0.00  0.00    +0.024 A 
ATOM     19  C   UNL     1      -2.209  -7.766   0.423  0.00  0.00    +0.043 A 
ATOM     20  C   UNL     1      -1.944  -8.658   1.453  0.00  0.00    +0.027 A 
ATOM     21  C   UNL     1      -0.841  -9.486   1.381  0.00  0.00    -0.046 A 
ATOM     22  C   UNL     1      -0.552 -10.454   2.499  0.00  0.00    +0.044 C 
ENDBRANCH   7  19
ENDBRANCH   1  11
BRANCH   5  23
ATOM     23  O   UNL     1      -0.010  -2.106   0.346  0.00  0.00    -0.454 OA
BRANCH  23  24
ATOM     24  C   UNL     1       1.094  -1.412   0.729  0.00  0.00    +0.159 A 
ATOM     25  C   UNL     1       1.343  -0.154   0.199  0.00  0.00    +0.051 A 
ATOM     26  C   UNL     1       2.462   0.551   0.594  0.00  0.00    +0.036 A 
ATOM     27  C   UNL     1       3.337   0.003   1.514  0.00  0.00    +0.129 A 
ATOM     28  C   UNL     1       3.094  -1.252   2.041  0.00  0.00    +0.069 A 
ATOM     29  C   UNL     1       1.976  -1.962   1.648  0.00  0.00    +0.170 A 
BRANCH  29  30
ATOM     30  N   UNL     1       1.716  -3.306   2.212  0.00  0.00    +0.060 N 
ATOM     31  O   UNL     1       2.489  -3.786   3.022  0.00  0.00    -0.126 OA
ATOM     32  O   UNL     1       0.730  -3.931   1.865  0.00  0.00    -0.126 OA
ENDBRANCH  29  30
BRANCH  27  33
ATOM     33  N   UNL     1       4.536   0.762   1.936  0.00  0.00    +0.057 N 
ATOM     34  O   UNL     1       4.752   1.867   1.473  0.00  0.00    -0.126 OA
ATOM     35  O   UNL     1       5.308   0.280   2.747  0.00  0.00    -0.126 OA
ENDBRANCH  27  33
ENDBRANCH  23  24
ENDBRANCH   5  23
TORSDOF 6
