REMARK  Name = ZINC02934512
REMARK  6 active torsions:
REMARK  status: ('A' for Active; 'I' for Inactive)
REMARK    1  A    between atoms: C_1  and  C_2
REMARK    2  A    between atoms: C_5  and  C_8
REMARK    3  A    between atoms: C_9  and  C_19
REMARK    4  A    between atoms: N_11  and  C_13
REMARK    5  A    between atoms: N_20  and  N_21
REMARK    6  A    between atoms: C_22  and  C_24
REMARK                            x       y       z     vdW  Elec       q    Type
REMARK                         _______ _______ _______ _____ _____    ______ ____
ROOT
ATOM      1  C   UNL     1       2.479   1.070  -0.019  0.00  0.00    +0.102 A 
ATOM      2  C   UNL     1       3.671   1.439  -0.788  0.00  0.00    +0.040 A 
ATOM      3  C   UNL     1       4.628   0.506  -0.498  0.00  0.00    +0.124 A 
ATOM      4  N   UNL     1       4.098  -0.382   0.368  0.00  0.00    -0.239 N 
ATOM      5  N   UNL     1       2.777  -0.022   0.653  0.00  0.00    -0.166 NA
ENDROOT
BRANCH   1  10
ATOM      6  C   UNL     1      -2.559   3.857   0.036  0.00  0.00    +0.044 C 
ATOM      7  C   UNL     1      -1.240   3.127   0.022  0.00  0.00    -0.050 A 
ATOM      8  C   UNL     1      -0.593   2.898  -1.179  0.00  0.00    +0.004 A 
ATOM      9  C   UNL     1       0.612   2.225  -1.199  0.00  0.00    +0.010 A 
ATOM     10  C   UNL     1       1.182   1.787  -0.004  0.00  0.00    +0.003 A 
ATOM     11  C   UNL     1       0.528   2.027   1.203  0.00  0.00    +0.010 A 
ATOM     12  C   UNL     1      -0.679   2.695   1.210  0.00  0.00    +0.004 A 
ENDBRANCH   1  10
BRANCH   4  13
ATOM     13  C   UNL     1       4.766  -1.492   0.898  0.00  0.00    +0.065 A 
ATOM     14  C   UNL     1       6.081  -1.752   0.535  0.00  0.00    +0.028 A 
ATOM     15  C   UNL     1       6.739  -2.845   1.065  0.00  0.00    +0.002 A 
ATOM     16  C   UNL     1       6.086  -3.686   1.947  0.00  0.00    +0.000 A 
ATOM     17  C   UNL     1       4.775  -3.433   2.307  0.00  0.00    +0.002 A 
ATOM     18  C   UNL     1       4.113  -2.339   1.785  0.00  0.00    +0.028 A 
ENDBRANCH   4  13
BRANCH   2  19
ATOM     19  C   UNL     1       3.811   2.592  -1.695  0.00  0.00    +0.142 C 
ATOM     20  N   UNL     1       2.848   3.458  -1.798  0.00  0.00    -0.187 NA
BRANCH  20  21
ATOM     21  N   UNL     1       2.981   4.554  -2.660  0.00  0.00    -0.203 N 
ATOM     22  C   UNL     1       1.982   5.452  -2.767  0.00  0.00    +0.264 C 
ATOM     23  O   UNL     1       0.966   5.311  -2.115  0.00  0.00    -0.268 OA
ATOM     24  H   UNL     1       3.792   4.666  -3.180  0.00  0.00    +0.178 HD
BRANCH  22  25
ATOM     25  C   UNL     1       2.123   6.608  -3.676  0.00  0.00    +0.052 A 
ATOM     26  C   UNL     1       3.291   6.776  -4.422  0.00  0.00    +0.014 A 
ATOM     27  C   UNL     1       3.413   7.855  -5.272  0.00  0.00    +0.001 A 
ATOM     28  C   UNL     1       2.386   8.776  -5.381  0.00  0.00    +0.001 A 
ATOM     29  C   UNL     1       1.228   8.619  -4.641  0.00  0.00    +0.016 A 
ATOM     30  C   UNL     1       1.089   7.541  -3.789  0.00  0.00    +0.030 A 
ATOM     31 BR   UNL     1      -0.494   7.329  -2.778  0.00  0.00    -0.050 Br
ENDBRANCH  22  25
ENDBRANCH  20  21
ENDBRANCH   2  19
TORSDOF 5
