REMARK  Name = ZINC36569470
REMARK  10 active torsions:
REMARK  status: ('A' for Active; 'I' for Inactive)
REMARK    1  A    between atoms: C_1  and  O_2
REMARK    2  A    between atoms: O_2  and  C_3
REMARK    3  A    between atoms: C_3  and  C_5
REMARK    4  A    between atoms: C_5  and  C_6
REMARK    5  A    between atoms: C_6  and  C_7
REMARK    6  A    between atoms: C_7  and  C_9
REMARK    7  A    between atoms: C_7  and  N_13
REMARK    8  A    between atoms: C_9  and  O_11
REMARK    9  A    between atoms: O_11  and  C_12
REMARK   10  A    between atoms: C_25  and  C_27
REMARK                            x       y       z     vdW  Elec       q    Type
REMARK                         _______ _______ _______ _____ _____    ______ ____
ROOT
ATOM      1  N   UNL     1      -1.640  -6.683   0.145  0.00  0.00    -0.286 N 
ATOM      2  C   UNL     1      -1.669  -5.906   1.245  0.00  0.00    +0.304 C 
ATOM      3  O   UNL     1      -2.078  -4.763   1.172  0.00  0.00    -0.253 OA
ATOM      4  N   UNL     1      -1.243  -6.395   2.427  0.00  0.00    -0.273 N 
ATOM      5  C   UNL     1      -1.355  -5.596   3.657  0.00  0.00    +0.116 C 
ATOM      6  C   UNL     1       0.053  -5.290   4.186  0.00  0.00    +0.074 C 
ATOM      7  C   UNL     1       0.876  -6.551   4.132  0.00  0.00    +0.040 A 
ATOM      8  C   UNL     1       0.572  -7.639   3.393  0.00  0.00    +0.062 A 
ATOM      9  N   UNL     1       1.524  -8.554   3.590  0.00  0.00    -0.348 N 
ATOM     10  C   UNL     1       2.409  -8.077   4.426  0.00  0.00    +0.171 A 
ATOM     11  N   UNL     1       2.037  -6.827   4.788  0.00  0.00    -0.349 N 
ATOM     12  H   UNL     1       2.508  -6.240   5.400  0.00  0.00    +0.166 HD
ATOM     13  C   UNL     1      -0.660  -7.745   2.519  0.00  0.00    +0.159 C 
ATOM     14  H   UNL     1      -1.254  -7.572   0.189  0.00  0.00    +0.151 HD
ATOM     15  H   UNL     1       1.556  -9.431   3.178  0.00  0.00    +0.167 HD
ENDROOT
BRANCH  13  16
ATOM     16  C   UNL     1      -1.654  -8.692   3.141  0.00  0.00    +0.014 A 
ATOM     17  C   UNL     1      -1.265  -9.520   4.177  0.00  0.00    +0.011 A 
ATOM     18  C   UNL     1      -2.176 -10.388   4.748  0.00  0.00    +0.039 A 
ATOM     19  C   UNL     1      -3.480 -10.430   4.283  0.00  0.00    +0.126 A 
ATOM     20  C   UNL     1      -3.871  -9.601   3.245  0.00  0.00    +0.077 A 
ATOM     21  C   UNL     1      -2.959  -8.727   2.678  0.00  0.00    +0.131 A 
ATOM     22  F   UNL     1      -3.340  -7.914   1.669  0.00  0.00    -0.205 F 
ATOM     23  F   UNL     1      -4.370 -11.279   4.841  0.00  0.00    -0.205 F 
ENDBRANCH  13  16
BRANCH   1  24
ATOM     24  C   UNL     1      -2.192  -6.186  -1.118  0.00  0.00    +0.184 C 
BRANCH  24  25
ATOM     25  C   UNL     1      -1.145  -5.376  -1.839  0.00  0.00    +0.327 C 
ATOM     26  O   UNL     1      -0.051  -5.230  -1.349  0.00  0.00    -0.249 OA
BRANCH  25  27
ATOM     27  O   UNL     1      -1.429  -4.818  -3.026  0.00  0.00    -0.467 OA
ATOM     28  C   UNL     1      -0.390  -4.064  -3.654  0.00  0.00    +0.280 C 
ENDBRANCH  25  27
ENDBRANCH  24  25
BRANCH  24  29
ATOM     29  C   UNL     1      -2.613  -7.369  -1.992  0.00  0.00    +0.045 C 
BRANCH  29  30
ATOM     30  C   UNL     1      -3.762  -8.119  -1.315  0.00  0.00    +0.123 C 
BRANCH  30  31
ATOM     31  C   UNL     1      -4.177  -9.285  -2.176  0.00  0.00    +0.307 C 
ATOM     32  O   UNL     1      -3.611  -9.494  -3.223  0.00  0.00    -0.251 OA
BRANCH  31  34
ATOM     33  C   UNL     1      -5.515 -11.175  -2.644  0.00  0.00    +0.280 C 
ATOM     34  O   UNL     1      -5.175 -10.090  -1.779  0.00  0.00    -0.468 OA
ENDBRANCH  31  34
ENDBRANCH  30  31
ENDBRANCH  29  30
ENDBRANCH  24  29
ENDBRANCH   1  24
TORSDOF 8
