REMARK  Name = ZINC06300604
REMARK  13 active torsions:
REMARK  status: ('A' for Active; 'I' for Inactive)
REMARK    1  A    between atoms: C_1  and  C_2
REMARK    2  A    between atoms: C_4  and  C_37
REMARK    3  A    between atoms: C_9  and  C_14
REMARK    4  A    between atoms: C_14  and  C_16
REMARK    5  A    between atoms: C_14  and  N_66
REMARK    6  A    between atoms: N_20  and  C_21
REMARK    7  A    between atoms: C_21  and  C_22
REMARK    8  A    between atoms: C_21  and  C_23
REMARK    9  A    between atoms: C_21  and  C_24
REMARK   10  A    between atoms: C_25  and  C_26
REMARK   11  A    between atoms: C_25  and  N_66
REMARK   12  A    between atoms: C_31  and  C_32
REMARK   13  A    between atoms: C_31  and  N_66
REMARK                            x       y       z     vdW  Elec       q    Type
REMARK                         _______ _______ _______ _____ _____    ______ ____
ROOT
ATOM      1  C   UNL     1       2.821   4.779   1.682  0.00  0.00    +0.040 C 
ENDROOT
BRANCH   1  10
ATOM      2  C   UNL     1       2.036   8.720   7.965  0.00  0.00    +0.044 C 
ATOM      3  C   UNL     1       2.613   7.549   7.211  0.00  0.00    -0.050 A 
ATOM      4  C   UNL     1       3.442   6.649   7.867  0.00  0.00    +0.008 A 
ATOM      5  C   UNL     1       3.980   5.571   7.198  0.00  0.00    -0.026 A 
ATOM      6  C   UNL     1       3.693   5.382   5.850  0.00  0.00    +0.052 A 
ATOM      7  C   UNL     1       2.853   6.298   5.188  0.00  0.00    -0.001 A 
ATOM      8  C   UNL     1       2.317   7.384   5.888  0.00  0.00    +0.013 A 
ATOM      9  C   UNL     1       2.561   6.093   3.768  0.00  0.00    +0.017 A 
ATOM     10  C   UNL     1       3.105   5.020   3.142  0.00  0.00    +0.011 A 
ATOM     11  C   UNL     1       3.941   4.132   3.852  0.00  0.00    +0.251 A 
ATOM     12  O   UNL     1       4.423   3.176   3.270  0.00  0.00    -0.268 OA
ATOM     13  N   UNL     1       4.219   4.314   5.155  0.00  0.00    -0.322 N 
ATOM     14  H   UNL     1       4.797   3.684   5.614  0.00  0.00    +0.169 HD
ATOM     15  C   UNL     1       4.876   4.601   7.923  0.00  0.00    +0.046 C 
ENDBRANCH   1  10
BRANCH   1  16
ATOM     16  C   UNL     1       4.098   4.918   0.892  0.00  0.00    +0.143 A 
ATOM     17  N   UNL     1       5.141   4.127   0.944  0.00  0.00    -0.115 NA
ATOM     18  N   UNL     1       6.025   4.579   0.123  0.00  0.00    -0.023 NA
ATOM     19  N   UNL     1       5.572   5.638  -0.451  0.00  0.00    -0.043 NA
ATOM     20  N   UNL     1       4.385   5.877  -0.007  0.00  0.00    -0.225 N 
BRANCH  20  21
ATOM     21  C   UNL     1       3.514   6.986  -0.405  0.00  0.00    +0.059 C 
ATOM     22  C   UNL     1       3.161   7.824   0.825  0.00  0.00    +0.036 C 
ATOM     23  C   UNL     1       4.239   7.863  -1.428  0.00  0.00    +0.036 C 
ATOM     24  C   UNL     1       2.232   6.430  -1.028  0.00  0.00    +0.036 C 
ENDBRANCH  20  21
ENDBRANCH   1  16
BRANCH   1  25
ATOM     25  N   UNL     1       2.303   3.405   1.514  0.00  0.00    +0.397 N 
ATOM     26  H   UNL     1       3.019   2.738   1.824  0.00  0.00    -0.079 HD
BRANCH  25  27
ATOM     27  C   UNL     1       1.993   3.152   0.091  0.00  0.00    -0.001 C 
BRANCH  27  28
ATOM     28  C   UNL     1       3.272   2.797  -0.624  0.00  0.00    +0.089 A 
ATOM     29  C   UNL     1       3.852   1.584  -0.642  0.00  0.00    +0.042 A 
ATOM     30  C   UNL     1       5.023   1.702  -1.426  0.00  0.00    +0.041 A 
ATOM     31  C   UNL     1       5.088   2.981  -1.840  0.00  0.00    +0.195 A 
ATOM     32  O   UNL     1       4.024   3.639  -1.351  0.00  0.00    -0.470 OA
ENDBRANCH  27  28
ENDBRANCH  25  27
BRANCH  25  33
ATOM     33  C   UNL     1       1.088   3.220   2.336  0.00  0.00    -0.034 C 
BRANCH  33  34
ATOM     34  C   UNL     1       0.848   1.743   2.517  0.00  0.00    -0.027 A 
ATOM     35  C   UNL     1       1.244   0.932   3.528  0.00  0.00    +0.009 A 
ATOM     36  C   UNL     1       0.905  -0.407   3.485  0.00  0.00    +0.008 A 
ATOM     37  C   UNL     1       0.186  -0.870   2.433  0.00  0.00    +0.045 A 
ATOM     38  S   UNL     1      -0.040   0.611   1.460  0.00  0.00    -0.103 S 
ENDBRANCH  33  34
ENDBRANCH  25  33
ENDBRANCH   1  25
TORSDOF 8
