REMARK  Name = ZINC63279935
REMARK  12 active torsions:
REMARK  status: ('A' for Active; 'I' for Inactive)
REMARK    1  A    between atoms: C_1  and  O_2
REMARK    2  A    between atoms: O_2  and  C_3
REMARK    3  A    between atoms: C_5  and  C_13
REMARK    4  A    between atoms: C_7  and  O_11
REMARK    5  A    between atoms: C_8  and  O_9
REMARK    6  A    between atoms: O_9  and  C_10
REMARK    7  A    between atoms: O_11  and  C_12
REMARK    8  A    between atoms: C_16  and  C_20
REMARK    9  A    between atoms: C_20  and  C_21
REMARK   10  A    between atoms: N_23  and  C_24
REMARK   11  A    between atoms: C_24  and  C_25
REMARK   12  A    between atoms: C_25  and  C_26
REMARK                            x       y       z     vdW  Elec       q    Type
REMARK                         _______ _______ _______ _____ _____    ______ ____
ROOT
ATOM      1  C   UNL     1      -4.871   0.264   0.038  0.00  0.00    +0.143 C 
ATOM      2  N   UNL     1      -6.001  -0.540   0.574  0.00  0.00    -0.297 NA
ATOM      3  C   UNL     1      -7.285  -0.172  -0.050  0.00  0.00    +0.073 C 
ATOM      4  C   UNL     1      -7.096  -0.143  -1.597  0.00  0.00    +0.090 C 
ATOM      5  S   UNL     1      -5.421   0.640  -1.678  0.00  0.00    -0.136 S 
ATOM      6  H   UNL     1      -5.821  -1.528   0.475  0.00  0.00    +0.124 HD
ENDROOT
BRANCH   1   9
ATOM      7  C   UNL     1      -1.267  -0.749   0.554  0.00  0.00    +0.166 A 
ATOM      8  C   UNL     1      -2.440  -0.010   0.561  0.00  0.00    +0.055 A 
ATOM      9  C   UNL     1      -3.598  -0.543   0.028  0.00  0.00    -0.013 A 
ATOM     10  C   UNL     1      -3.592  -1.814  -0.515  0.00  0.00    +0.055 A 
ATOM     11  C   UNL     1      -2.423  -2.559  -0.527  0.00  0.00    +0.166 A 
ATOM     12  C   UNL     1      -1.255  -2.025   0.004  0.00  0.00    +0.204 A 
BRANCH   7  14
ATOM     13  C   UNL     1      -0.213   1.094   1.628  0.00  0.00    +0.277 C 
ATOM     14  O   UNL     1      -0.128  -0.223   1.079  0.00  0.00    -0.491 OA
ENDBRANCH   7  14
BRANCH  12  15
ATOM     15  O   UNL     1      -0.104  -2.751  -0.011  0.00  0.00    -0.488 OA
ATOM     16  C   UNL     1       0.148  -3.590   1.119  0.00  0.00    +0.277 C 
ENDBRANCH  12  15
BRANCH  11  17
ATOM     17  O   UNL     1      -2.418  -3.810  -1.061  0.00  0.00    -0.491 OA
ATOM     18  C   UNL     1      -3.653  -4.293  -1.593  0.00  0.00    +0.277 C 
ENDBRANCH  11  17
ENDBRANCH   1   9
BRANCH   3  19
ATOM     19  C   UNL     1      -8.351  -1.206   0.317  0.00  0.00    +0.115 C 
BRANCH  19  20
ATOM     20  C   UNL     1      -8.631  -1.137   1.796  0.00  0.00    +0.215 C 
ATOM     21  O   UNL     1      -8.036  -0.338   2.489  0.00  0.00    -0.276 OA
ATOM     22  N   UNL     1      -9.542  -1.961   2.349  0.00  0.00    -0.315 N 
ATOM     23  H   UNL     1     -10.018  -2.600   1.795  0.00  0.00    +0.149 HD
BRANCH  22  24
ATOM     24  C   UNL     1      -9.813  -1.894   3.787  0.00  0.00    +0.108 C 
BRANCH  24  25
ATOM     25  C   UNL     1     -10.879  -2.928   4.154  0.00  0.00    +0.052 C 
BRANCH  25  26
ATOM     26  C   UNL     1     -11.159  -2.858   5.633  0.00  0.00    -0.040 C 
ATOM     27  C   UNL     1     -12.146  -2.164   6.243  0.00  0.00    +0.000 A 
ATOM     28  C   UNL     1     -13.215  -1.298   5.730  0.00  0.00    +0.030 A 
ATOM     29  C   UNL     1     -14.074  -0.727   6.606  0.00  0.00    +0.042 A 
ATOM     30  C   UNL     1     -13.968  -0.941   7.988  0.00  0.00    +0.022 A 
ATOM     31  C   UNL     1     -13.013  -1.724   8.533  0.00  0.00    +0.027 A 
ATOM     32  C   UNL     1     -12.057  -2.374   7.705  0.00  0.00    +0.043 A 
ATOM     33  N   UNL     1     -11.053  -3.168   7.989  0.00  0.00    -0.380 N 
ATOM     34  C   UNL     1     -10.395  -3.556   6.737  0.00  0.00    +0.144 C 
ATOM     35 CL   UNL     1     -15.339   0.298   6.003  0.00  0.00    -0.084 Cl
ATOM     36  H   UNL     1     -10.791  -3.453   8.878  0.00  0.00    +0.160 HD
ENDBRANCH  25  26
ENDBRANCH  24  25
ENDBRANCH  22  24
ENDBRANCH  19  20
ENDBRANCH   3  19
TORSDOF 9
