REMARK  Name = ZINC67305651
REMARK  5 active torsions:
REMARK  status: ('A' for Active; 'I' for Inactive)
REMARK    1  A    between atoms: C_4  and  C_7
REMARK    2  A    between atoms: C_7  and  C_8
REMARK    3  A    between atoms: C_8  and  C_10
REMARK    4  A    between atoms: C_8  and  N_15
REMARK    5  A    between atoms: C_16  and  C_18
REMARK                            x       y       z     vdW  Elec       q    Type
REMARK                         _______ _______ _______ _____ _____    ______ ____
ROOT
ATOM      1  N   UNL     1       4.560   0.347   1.934  0.00  0.00    -0.312 N 
ATOM      2  C   UNL     1       4.048   0.773   3.106  0.00  0.00    +0.216 C 
ATOM      3  O   UNL     1       3.340   0.039   3.761  0.00  0.00    -0.276 OA
ATOM      4  H   UNL     1       5.182   0.906   1.444  0.00  0.00    +0.149 HD
ENDROOT
BRANCH   2   5
ATOM      5  C   UNL     1       4.357   2.162   3.602  0.00  0.00    +0.075 C 
ATOM      6  C   UNL     1       5.869   2.316   3.780  0.00  0.00    +0.015 C 
ATOM      7  C   UNL     1       6.183   3.731   4.272  0.00  0.00    +0.036 C 
ATOM      8  C   UNL     1       5.470   3.981   5.596  0.00  0.00    +0.112 C 
ATOM      9  C   UNL     1       3.963   3.807   5.441  0.00  0.00    +0.036 C 
ATOM     10  C   UNL     1       3.659   2.391   4.944  0.00  0.00    +0.015 C 
ATOM     11  C   UNL     1       6.001   3.054   6.665  0.00  0.00    +0.244 C 
ATOM     12  O   UNL     1       5.963   1.842   6.671  0.00  0.00    -0.273 OA
ATOM     13  N   UNL     1       6.527   3.858   7.612  0.00  0.00    -0.238 N 
ATOM     14  C   UNL     1       6.400   5.151   7.286  0.00  0.00    +0.307 C 
ATOM     15  O   UNL     1       6.798   6.065   7.981  0.00  0.00    -0.252 OA
ATOM     16  N   UNL     1       5.783   5.324   6.102  0.00  0.00    -0.285 N 
ATOM     17  H   UNL     1       6.946   3.540   8.427  0.00  0.00    +0.159 HD
ATOM     18  H   UNL     1       5.584   6.169   5.669  0.00  0.00    +0.151 HD
ENDBRANCH   2   5
BRANCH   1  19
ATOM     19  C   UNL     1       4.175  -0.962   1.400  0.00  0.00    +0.080 C 
BRANCH  19  20
ATOM     20  C   UNL     1       5.412  -1.857   1.303  0.00  0.00    +0.010 C 
ATOM     21  C   UNL     1       5.013  -3.259   0.799  0.00  0.00    +0.005 C 
ATOM     22  C   UNL     1       5.929  -4.224   1.591  0.00  0.00    +0.000 C 
ATOM     23  C   UNL     1       5.988  -3.566   2.992  0.00  0.00    +0.000 C 
ATOM     24  C   UNL     1       6.033  -2.052   2.698  0.00  0.00    +0.005 C 
ENDBRANCH  19  20
BRANCH  19  25
ATOM     25  C   UNL     1       3.563  -0.786   0.009  0.00  0.00    +0.057 C 
BRANCH  25  29
ATOM     26  C   UNL     1      -0.081   1.420   0.324  0.00  0.00    +0.000 A 
ATOM     27  C   UNL     1       1.116   2.086   0.136  0.00  0.00    +0.000 A 
ATOM     28  C   UNL     1       2.295   1.372   0.035  0.00  0.00    +0.004 A 
ATOM     29  C   UNL     1       2.278  -0.007   0.121  0.00  0.00    -0.046 A 
ATOM     30  C   UNL     1       1.081  -0.673   0.309  0.00  0.00    +0.004 A 
ATOM     31  C   UNL     1      -0.099   0.041   0.409  0.00  0.00    +0.000 A 
ENDBRANCH  25  29
ENDBRANCH  19  25
ENDBRANCH   1  19
TORSDOF 5
