REMARK  Name = ZINC08962052
REMARK  7 active torsions:
REMARK  status: ('A' for Active; 'I' for Inactive)
REMARK    1  A    between atoms: C_1  and  C_2
REMARK    2  A    between atoms: C_5  and  C_27
REMARK    3  A    between atoms: C_6  and  C_8
REMARK    4  A    between atoms: C_8  and  S_9
REMARK    5  A    between atoms: S_9  and  N_12
REMARK    6  A    between atoms: N_12  and  C_13
REMARK    7  A    between atoms: C_23  and  C_26
REMARK                            x       y       z     vdW  Elec       q    Type
REMARK                         _______ _______ _______ _____ _____    ______ ____
ROOT
ATOM      1  N   UNL     1       1.502   1.108  -4.534  0.00  0.00    -0.220 N 
ATOM      2  H   UNL     1       1.690   0.593  -5.335  0.00  0.00    +0.173 HD
ENDROOT
BRANCH   1   3
ATOM      3  C   UNL     1       0.982   2.403  -4.641  0.00  0.00    +0.049 A 
ATOM      4  C   UNL     1      -0.349   2.588  -5.002  0.00  0.00    +0.028 A 
ATOM      5  C   UNL     1      -0.876   3.860  -5.103  0.00  0.00    +0.048 A 
ATOM      6  C   UNL     1      -0.076   4.963  -4.856  0.00  0.00    +0.133 A 
ATOM      7  C   UNL     1       1.270   4.783  -4.499  0.00  0.00    +0.080 A 
ATOM      8  C   UNL     1       1.795   3.497  -4.392  0.00  0.00    +0.041 A 
ATOM      9  C   UNL     1       2.108   5.971  -4.248  0.00  0.00    +0.248 C 
ATOM     10  O   UNL     1       3.208   6.071  -4.756  0.00  0.00    -0.270 OA
ATOM     11  N   UNL     1       1.630   6.949  -3.442  0.00  0.00    -0.308 N 
ATOM     12  C   UNL     1       0.350   6.758  -2.757  0.00  0.00    +0.148 C 
ATOM     13  C   UNL     1      -0.812   6.917  -3.728  0.00  0.00    +0.187 C 
ATOM     14  O   UNL     1      -0.575   6.222  -4.946  0.00  0.00    -0.487 OA
ATOM     15  C   UNL     1      -1.007   8.404  -4.031  0.00  0.00    +0.053 C 
ATOM     16  H   UNL     1       2.132   7.769  -3.319  0.00  0.00    +0.149 HD
ENDBRANCH   1   3
BRANCH   1  17
ATOM     17  S   UNL     1       1.798   0.454  -3.042  0.00  0.00    +0.047 S 
ATOM     18  O   UNL     1       2.605   1.417  -2.378  0.00  0.00    -0.155 OA
ATOM     19  O   UNL     1       2.297  -0.849  -3.309  0.00  0.00    -0.155 OA
BRANCH  17  20
ATOM     20  C   UNL     1       0.170   0.350  -2.248  0.00  0.00    +0.224 C 
BRANCH  20  26
ATOM     21  C   UNL     1       0.114  -3.907   0.382  0.00  0.00    +0.044 C 
ATOM     22  C   UNL     1       0.271  -2.410   0.326  0.00  0.00    -0.050 A 
ATOM     23  C   UNL     1       0.527  -1.698   1.484  0.00  0.00    +0.003 A 
ATOM     24  C   UNL     1       0.671  -0.324   1.433  0.00  0.00    +0.004 A 
ATOM     25  C   UNL     1       0.560   0.338   0.224  0.00  0.00    -0.046 A 
ATOM     26  C   UNL     1       0.298  -0.373  -0.932  0.00  0.00    -0.022 A 
ATOM     27  C   UNL     1       0.160  -1.747  -0.882  0.00  0.00    +0.009 A 
ATOM     28  C   UNL     1       0.716   1.836   0.169  0.00  0.00    +0.044 C 
ENDBRANCH  20  26
ENDBRANCH  17  20
ENDBRANCH   1  17
TORSDOF 4
