REMARK  Name = ZINC35452835
REMARK  7 active torsions:
REMARK  status: ('A' for Active; 'I' for Inactive)
REMARK    1  A    between atoms: C_1  and  C_2
REMARK    2  A    between atoms: C_2  and  C_3
REMARK    3  A    between atoms: C_2  and  C_4
REMARK    4  A    between atoms: C_4  and  C_5
REMARK    5  A    between atoms: C_5  and  N_6
REMARK    6  A    between atoms: N_6  and  C_7
REMARK    7  A    between atoms: C_12  and  N_13
REMARK                            x       y       z     vdW  Elec       q    Type
REMARK                         _______ _______ _______ _____ _____    ______ ____
ROOT
ATOM      1  C   UNL     1       0.139  -0.373   4.962  0.00  0.00    +0.050 A 
ATOM      2  C   UNL     1      -1.058   0.315   5.101  0.00  0.00    +0.051 A 
ATOM      3  C   UNL     1      -1.577   0.546   6.365  0.00  0.00    +0.078 A 
ATOM      4  C   UNL     1      -0.900   0.090   7.494  0.00  0.00    +0.144 A 
ATOM      5  C   UNL     1       0.294  -0.597   7.356  0.00  0.00    +0.072 A 
ATOM      6  C   UNL     1       0.813  -0.835   6.091  0.00  0.00    +0.049 A 
ATOM      7  O   UNL     1      -1.423   0.327   8.729  0.00  0.00    -0.481 OA
ATOM      8  C   UNL     1      -2.151   1.546   8.895  0.00  0.00    +0.325 C 
ATOM      9  C   UNL     1      -3.109   1.725   7.744  0.00  0.00    +0.255 C 
ATOM     10  O   UNL     1      -4.163   2.301   7.912  0.00  0.00    -0.272 OA
ATOM     11  N   UNL     1      -2.788   1.240   6.525  0.00  0.00    -0.280 N 
ATOM     12  H   UNL     1      -3.385   1.369   5.771  0.00  0.00    +0.155 HD
ENDROOT
BRANCH   6  13
ATOM     13  N   UNL     1       2.019  -1.535   5.949  0.00  0.00    -0.356 N 
ATOM     14  H   UNL     1       2.384  -1.698   5.065  0.00  0.00    +0.142 HD
ATOM     15  H   UNL     1       2.488  -1.856   6.735  0.00  0.00    +0.142 HD
ENDBRANCH   6  13
BRANCH   1  16
ATOM     16  N   UNL     1       0.667  -0.609   3.684  0.00  0.00    -0.342 N 
ATOM     17  H   UNL     1       1.502  -1.093   3.586  0.00  0.00    +0.146 HD
BRANCH  16  18
ATOM     18  C   UNL     1      -0.042  -0.124   2.497  0.00  0.00    +0.102 C 
BRANCH  18  19
ATOM     19  C   UNL     1       0.742  -0.511   1.242  0.00  0.00    +0.021 C 
BRANCH  19  21
ATOM     20  C   UNL     1      -0.019   1.526   0.010  0.00  0.00    +0.007 C 
ATOM     21  C   UNL     1       0.002  -0.004   0.002  0.00  0.00    -0.016 C 
ATOM     22  C   UNL     1       0.718  -0.497  -1.257  0.00  0.00    +0.007 C 
ENDBRANCH  19  21
ENDBRANCH  18  19
ENDBRANCH  16  18
ENDBRANCH   1  16
TORSDOF 5
