REMARK  Name = ZINC39684159
REMARK  9 active torsions:
REMARK  status: ('A' for Active; 'I' for Inactive)
REMARK    1  A    between atoms: C_1  and  C_2
REMARK    2  A    between atoms: C_7  and  C_11
REMARK    3  A    between atoms: C_11  and  C_12
REMARK    4  A    between atoms: C_12  and  N_13
REMARK    5  A    between atoms: C_14  and  C_16
REMARK    6  A    between atoms: C_27  and  C_29
REMARK    7  A    between atoms: C_33  and  N_35
REMARK    8  A    between atoms: N_35  and  C_36
REMARK    9  A    between atoms: N_35  and  C_37
REMARK                            x       y       z     vdW  Elec       q    Type
REMARK                         _______ _______ _______ _____ _____    ______ ____
ROOT
ATOM      1  C   UNL     1      -8.825   1.367  -5.632  0.00  0.00    +0.100 C 
ATOM      2  C   UNL     1     -10.087   2.028  -5.034  0.00  0.00    +0.121 C 
ATOM      3  N   UNL     1     -11.196   1.580  -5.909  0.00  0.00    -0.296 N 
ATOM      4  C   UNL     1     -10.879   0.164  -6.210  0.00  0.00    +0.115 C 
ATOM      5  C   UNL     1      -9.349   0.143  -6.402  0.00  0.00    -0.004 C 
ATOM      6  C   UNL     1      -8.762  -1.139  -5.820  0.00  0.00    -0.010 C 
ATOM      7  C   UNL     1      -9.251  -2.337  -6.639  0.00  0.00    -0.082 C 
ATOM      8  N   UNL     1      -8.838  -2.178  -8.038  0.00  0.00    +0.379 N 
ATOM      9  C   UNL     1      -9.481  -0.993  -8.618  0.00  0.00    -0.082 C 
ATOM     10  C   UNL     1      -9.002   0.262  -7.883  0.00  0.00    -0.010 C 
ATOM     11  C   UNL     1     -12.253   2.299  -6.335  0.00  0.00    +0.247 C 
ATOM     12  O   UNL     1     -12.309   3.491  -6.108  0.00  0.00    -0.270 OA
ATOM     13  H   UNL     1      -7.835  -2.070  -8.081  0.00  0.00    -0.086 HD
ATOM     14  H   UNL     1      -9.108  -2.996  -8.563  0.00  0.00    -0.086 HD
ENDROOT
BRANCH  11  15
ATOM     15  C   UNL     1     -13.345   1.636  -7.080  0.00  0.00    +0.039 A 
ATOM     16  C   UNL     1     -13.524   0.255  -6.980  0.00  0.00    +0.013 A 
ATOM     17  C   UNL     1     -14.543  -0.361  -7.675  0.00  0.00    +0.003 A 
ATOM     18  C   UNL     1     -15.392   0.384  -8.473  0.00  0.00    +0.023 A 
ATOM     19  C   UNL     1     -15.223   1.759  -8.579  0.00  0.00    +0.030 A 
ATOM     20  C   UNL     1     -14.205   2.389  -7.879  0.00  0.00    +0.036 A 
BRANCH  19  21
ATOM     21  N   UNL     1     -16.082   2.508  -9.387  0.00  0.00    -0.336 N 
ATOM     22  C   UNL     1     -17.161   1.844 -10.122  0.00  0.00    +0.129 C 
ATOM     23  C   UNL     1     -15.904   3.958  -9.499  0.00  0.00    +0.129 C 
ENDBRANCH  19  21
ENDBRANCH  11  15
BRANCH   1  25
ATOM     24  N   UNL     1      -6.559   0.906  -4.754  0.00  0.00    -0.315 N 
ATOM     25  C   UNL     1      -7.889   0.934  -4.534  0.00  0.00    +0.218 C 
ATOM     26  O   UNL     1      -8.331   0.610  -3.452  0.00  0.00    -0.275 OA
ATOM     27  H   UNL     1      -6.205   1.165  -5.619  0.00  0.00    +0.149 HD
BRANCH  24  28
ATOM     28  C   UNL     1      -5.649   0.486  -3.686  0.00  0.00    +0.109 C 
BRANCH  28  29
ATOM     29  C   UNL     1      -4.206   0.545  -4.194  0.00  0.00    +0.056 C 
BRANCH  29  36
ATOM     30  C   UNL     1      -0.514  -2.258   0.030  0.00  0.00    +0.046 C 
ATOM     31  C   UNL     1      -1.467  -2.336  -1.135  0.00  0.00    -0.027 A 
ATOM     32  C   UNL     1      -1.811  -3.559  -1.666  0.00  0.00    +0.005 A 
ATOM     33  C   UNL     1      -2.687  -3.645  -2.739  0.00  0.00    +0.001 A 
ATOM     34  C   UNL     1      -3.225  -2.514  -3.287  0.00  0.00    +0.010 A 
ATOM     35  C   UNL     1      -2.891  -1.264  -2.764  0.00  0.00    +0.003 A 
ATOM     36  C   UNL     1      -3.269   0.112  -3.095  0.00  0.00    -0.021 A 
ATOM     37  C   UNL     1      -2.623   0.914  -2.235  0.00  0.00    +0.087 A 
ATOM     38  N   UNL     1      -1.862   0.165  -1.380  0.00  0.00    -0.360 N 
ATOM     39  C   UNL     1      -2.007  -1.173  -1.673  0.00  0.00    +0.050 A 
ATOM     40  H   UNL     1      -1.305   0.522  -0.671  0.00  0.00    +0.165 HD
ENDBRANCH  29  36
ENDBRANCH  28  29
ENDBRANCH  24  28
ENDBRANCH   1  25
TORSDOF 6
