REMARK  Name = ZINC23056624
REMARK  6 active torsions:
REMARK  status: ('A' for Active; 'I' for Inactive)
REMARK    1  A    between atoms: C_1  and  C_2
REMARK    2  A    between atoms: N_11  and  C_15
REMARK    3  A    between atoms: C_15  and  C_16
REMARK    4  A    between atoms: N_18  and  C_19
REMARK    5  A    between atoms: C_22  and  O_25
REMARK    6  A    between atoms: O_25  and  C_26
REMARK                            x       y       z     vdW  Elec       q    Type
REMARK                         _______ _______ _______ _____ _____    ______ ____
ROOT
ATOM      1  C   UNL     1      -1.646   5.644  -0.265  0.00  0.00    +0.235 C 
ATOM      2  O   UNL     1      -2.728   5.098  -0.264  0.00  0.00    -0.274 OA
ATOM      3  N   UNL     1      -0.518   4.906  -0.302  0.00  0.00    -0.284 N 
ATOM      4  H   UNL     1       0.461   5.402  -0.374  0.00  0.00    +0.155 HD
ENDROOT
BRANCH   3   5
ATOM      5  C   UNL     1      -0.594   3.508  -0.248  0.00  0.00    +0.034 A 
ATOM      6  C   UNL     1      -1.650   2.846  -0.860  0.00  0.00    +0.027 A 
ATOM      7  C   UNL     1      -1.724   1.468  -0.807  0.00  0.00    +0.047 A 
ATOM      8  C   UNL     1      -0.744   0.745  -0.142  0.00  0.00    +0.121 A 
ATOM      9  C   UNL     1       0.309   1.407   0.473  0.00  0.00    +0.047 A 
ATOM     10  C   UNL     1       0.387   2.784   0.417  0.00  0.00    +0.027 A 
BRANCH   8  11
ATOM     11  O   UNL     1      -0.817  -0.611  -0.090  0.00  0.00    -0.489 OA
BRANCH  11  12
ATOM     12  C   UNL     1       0.276  -1.297   0.524  0.00  0.00    +0.173 C 
ATOM     13  C   UNL     1       1.389  -1.553  -0.512  0.00  0.00    +0.044 C 
ATOM     14  C   UNL     1       1.942  -2.951  -0.137  0.00  0.00    +0.004 C 
ATOM     15  C   UNL     1       0.665  -3.724   0.279  0.00  0.00    +0.004 C 
ATOM     16  C   UNL     1      -0.184  -2.677   1.028  0.00  0.00    +0.044 C 
ENDBRANCH  11  12
ENDBRANCH   8  11
ENDBRANCH   3   5
BRANCH   1  17
ATOM     17  C   UNL     1      -1.561   7.148  -0.226  0.00  0.00    +0.214 C 
BRANCH  17  27
ATOM     18  C   UNL     1      -3.936  10.857  -0.734  0.00  0.00    +0.010 C 
ATOM     19  C   UNL     1      -5.130  10.024  -1.204  0.00  0.00    +0.018 C 
ATOM     20  C   UNL     1      -5.232  10.093  -2.729  0.00  0.00    +0.006 C 
ATOM     21  C   UNL     1      -6.414   9.243  -3.200  0.00  0.00    +0.000 C 
ATOM     22  C   UNL     1      -6.197   7.788  -2.777  0.00  0.00    +0.003 C 
ATOM     23  C   UNL     1      -6.100   7.710  -1.252  0.00  0.00    +0.035 C 
ATOM     24  C   UNL     1      -4.941   8.575  -0.769  0.00  0.00    +0.115 C 
ATOM     25  C   UNL     1      -3.626   8.040  -1.288  0.00  0.00    +0.247 C 
ATOM     26  O   UNL     1      -3.285   7.927  -2.446  0.00  0.00    -0.273 OA
ATOM     27  N   UNL     1      -2.912   7.713  -0.191  0.00  0.00    -0.215 N 
ATOM     28  C   UNL     1      -3.589   7.973   0.934  0.00  0.00    +0.310 C 
ATOM     29  O   UNL     1      -3.153   7.767   2.050  0.00  0.00    -0.252 OA
ATOM     30  N   UNL     1      -4.809   8.489   0.691  0.00  0.00    -0.285 N 
ATOM     31  H   UNL     1      -5.635   8.822   1.338  0.00  0.00    +0.151 HD
ENDBRANCH  17  27
ENDBRANCH   1  17
TORSDOF 5
