REMARK  Name = ZINC00802648
REMARK  10 active torsions:
REMARK  status: ('A' for Active; 'I' for Inactive)
REMARK    1  A    between atoms: C_1  and  O_2
REMARK    2  A    between atoms: O_2  and  C_3
REMARK    3  A    between atoms: C_8  and  N_9
REMARK    4  A    between atoms: C_10  and  C_21
REMARK    5  A    between atoms: C_23  and  O_31
REMARK    6  A    between atoms: C_24  and  O_29
REMARK    7  A    between atoms: C_25  and  O_27
REMARK    8  A    between atoms: O_27  and  C_28
REMARK    9  A    between atoms: O_29  and  C_30
REMARK   10  A    between atoms: O_31  and  C_32
REMARK                            x       y       z     vdW  Elec       q    Type
REMARK                         _______ _______ _______ _____ _____    ______ ____
ROOT
ATOM      1  N   UNL     1      -0.004  -2.479  -0.173  0.00  0.00    -0.241 N 
ATOM      2  C   UNL     1       0.319  -2.766   1.225  0.00  0.00    +0.198 C 
ATOM      3  N   UNL     1       0.787  -4.150   1.365  0.00  0.00    -0.321 N 
ATOM      4  C   UNL     1       1.682  -4.652   0.427  0.00  0.00    +0.041 A 
ATOM      5  C   UNL     1       2.596  -5.642   0.749  0.00  0.00    +0.024 A 
ATOM      6  C   UNL     1       3.458  -6.117  -0.220  0.00  0.00    +0.002 A 
ATOM      7  C   UNL     1       3.416  -5.612  -1.510  0.00  0.00    +0.001 A 
ATOM      8  C   UNL     1       2.515  -4.623  -1.846  0.00  0.00    +0.015 A 
ATOM      9  C   UNL     1       1.643  -4.131  -0.878  0.00  0.00    +0.058 A 
ATOM     10  C   UNL     1       0.676  -3.062  -1.181  0.00  0.00    +0.254 C 
ATOM     11  O   UNL     1       0.495  -2.706  -2.329  0.00  0.00    -0.270 OA
ATOM     12  H   UNL     1       0.477  -4.704   2.098  0.00  0.00    +0.148 HD
ENDROOT
BRANCH   1  18
ATOM     13  C   UNL     1      -0.758  -0.245  -0.721  0.00  0.00    +0.141 A 
ATOM     14  C   UNL     1      -1.788   0.633  -1.019  0.00  0.00    +0.047 A 
ATOM     15  C   UNL     1      -3.093   0.179  -1.062  0.00  0.00    +0.004 A 
ATOM     16  C   UNL     1      -3.375  -1.151  -0.807  0.00  0.00    +0.002 A 
ATOM     17  C   UNL     1      -2.354  -2.033  -0.508  0.00  0.00    +0.027 A 
ATOM     18  C   UNL     1      -1.041  -1.586  -0.470  0.00  0.00    +0.080 A 
BRANCH  13  20
ATOM     19  C   UNL     1       0.731   1.605  -0.839  0.00  0.00    +0.277 C 
ATOM     20  O   UNL     1       0.526   0.200  -0.679  0.00  0.00    -0.493 OA
ENDBRANCH  13  20
ENDBRANCH   1  18
BRANCH   2  21
ATOM     21  C   UNL     1       1.402  -1.827   1.690  0.00  0.00    -0.002 A 
ATOM     22  C   UNL     1       2.581  -1.728   0.977  0.00  0.00    +0.056 A 
ATOM     23  C   UNL     1       3.580  -0.866   1.402  0.00  0.00    +0.166 A 
ATOM     24  C   UNL     1       3.394  -0.100   2.547  0.00  0.00    +0.204 A 
ATOM     25  C   UNL     1       2.206  -0.203   3.261  0.00  0.00    +0.166 A 
ATOM     26  C   UNL     1       1.210  -1.064   2.826  0.00  0.00    +0.056 A 
BRANCH  25  27
ATOM     27  O   UNL     1       2.019   0.544   4.382  0.00  0.00    -0.491 OA
ATOM     28  C   UNL     1       0.774   0.388   5.066  0.00  0.00    +0.277 C 
ENDBRANCH  25  27
BRANCH  24  29
ATOM     29  O   UNL     1       4.372   0.747   2.968  0.00  0.00    -0.488 OA
ATOM     30  C   UNL     1       4.335   2.083   2.463  0.00  0.00    +0.277 C 
ENDBRANCH  24  29
BRANCH  23  31
ATOM     31  O   UNL     1       4.741  -0.769   0.700  0.00  0.00    -0.491 OA
ATOM     32  C   UNL     1       4.822  -1.502  -0.524  0.00  0.00    +0.277 C 
ENDBRANCH  23  31
ENDBRANCH   2  21
TORSDOF 6
