REMARK  Name = ZINC60346215
REMARK  5 active torsions:
REMARK  status: ('A' for Active; 'I' for Inactive)
REMARK    1  A    between atoms: C_1  and  C_2
REMARK    2  A    between atoms: C_5  and  C_7
REMARK    3  A    between atoms: C_7  and  C_25
REMARK    4  A    between atoms: N_10  and  C_14
REMARK    5  A    between atoms: C_14  and  C_15
REMARK                            x       y       z     vdW  Elec       q    Type
REMARK                         _______ _______ _______ _____ _____    ______ ____
ROOT
ATOM      1  C   UNL     1       1.684  -3.245  -0.023  0.00  0.00    +0.168 C 
ATOM      2  C   UNL     1       2.928  -2.926  -0.828  0.00  0.00    +0.254 C 
ATOM      3  O   UNL     1       3.741  -2.054  -0.605  0.00  0.00    -0.272 OA
ATOM      4  N   UNL     1       2.943  -3.812  -1.843  0.00  0.00    -0.219 N 
ATOM      5  C   UNL     1       1.892  -4.639  -1.791  0.00  0.00    +0.310 C 
ATOM      6  O   UNL     1       1.688  -5.524  -2.599  0.00  0.00    -0.252 OA
ATOM      7  N   UNL     1       1.086  -4.381  -0.745  0.00  0.00    -0.279 N 
ATOM      8  C   UNL     1       2.053  -3.650   1.406  0.00  0.00    +0.050 C 
ATOM      9  H   UNL     1       0.271  -4.852  -0.512  0.00  0.00    +0.152 HD
ENDROOT
BRANCH   1  14
ATOM     10  C   UNL     1      -0.018   1.503   0.010  0.00  0.00    +0.086 C 
ATOM     11  C   UNL     1       0.002  -0.004   0.002  0.00  0.00    +0.102 A 
ATOM     12  C   UNL     1      -1.078  -0.805   0.003  0.00  0.00    +0.045 A 
ATOM     13  C   UNL     1      -0.601  -2.136  -0.007  0.00  0.00    +0.047 A 
ATOM     14  C   UNL     1       0.742  -2.069  -0.013  0.00  0.00    +0.137 A 
ATOM     15  O   UNL     1       1.102  -0.775  -0.013  0.00  0.00    -0.462 OA
ENDBRANCH   1  14
BRANCH   4  16
ATOM     16  C   UNL     1       3.981  -3.864  -2.875  0.00  0.00    +0.161 C 
BRANCH  16  17
ATOM     17  C   UNL     1       5.087  -4.785  -2.429  0.00  0.00    +0.027 A 
ATOM     18  C   UNL     1       5.207  -6.104  -2.643  0.00  0.00    +0.060 A 
ATOM     19  C   UNL     1       6.368  -6.808  -2.120  0.00  0.00    +0.008 A 
ATOM     20  C   UNL     1       6.693  -8.181  -2.225  0.00  0.00    +0.010 A 
ATOM     21  C   UNL     1       7.833  -8.670  -1.668  0.00  0.00    +0.001 A 
ATOM     22  C   UNL     1       8.715  -7.848  -0.979  0.00  0.00    +0.001 A 
ATOM     23  C   UNL     1       8.434  -6.503  -0.854  0.00  0.00    +0.016 A 
ATOM     24  C   UNL     1       7.282  -5.994  -1.415  0.00  0.00    +0.021 A 
ATOM     25  S   UNL     1       6.553  -4.379  -1.499  0.00  0.00    -0.090 S 
ATOM     26 CL   UNL     1       3.989  -6.962  -3.534  0.00  0.00    -0.082 Cl
ENDBRANCH  16  17
ENDBRANCH   4  16
TORSDOF 3
