REMARK  Name = ZINC36587518
REMARK  20 active torsions:
REMARK  status: ('A' for Active; 'I' for Inactive)
REMARK    1  A    between atoms: C_1  and  C_2
REMARK    2  A    between atoms: C_2  and  C_3
REMARK    3  A    between atoms: C_3  and  C_4
REMARK    4  A    between atoms: C_4  and  C_5
REMARK    5  A    between atoms: C_5  and  C_6
REMARK    6  A    between atoms: C_6  and  C_8
REMARK    7  A    between atoms: C_6  and  N_22
REMARK    8  A    between atoms: N_10  and  C_11
REMARK    9  A    between atoms: C_11  and  S_12
REMARK   10  A    between atoms: S_12  and  C_15
REMARK   11  A    between atoms: C_18  and  C_21
REMARK   12  A    between atoms: N_22  and  C_35
REMARK   13  A    between atoms: C_23  and  C_25
REMARK   14  A    between atoms: C_25  and  C_26
REMARK   15  A    between atoms: C_26  and  C_27
REMARK   16  A    between atoms: C_30  and  O_33
REMARK   17  A    between atoms: O_33  and  C_34
REMARK   18  A    between atoms: C_35  and  C_36
REMARK   19  A    between atoms: C_35  and  C_37
REMARK   20  A    between atoms: C_35  and  C_38
REMARK                            x       y       z     vdW  Elec       q    Type
REMARK                         _______ _______ _______ _____ _____    ______ ____
ROOT
ATOM      1  C   UNL     1      -3.628  -4.743   0.139  0.00  0.00    +0.162 C 
ENDROOT
BRANCH   1   2
ATOM      2  C   UNL     1      -4.823  -5.604   0.456  0.00  0.00    +0.235 C 
ATOM      3  O   UNL     1      -4.875  -6.205   1.508  0.00  0.00    -0.274 OA
ATOM      4  N   UNL     1      -5.834  -5.706  -0.429  0.00  0.00    -0.295 N 
ATOM      5  H   UNL     1      -5.793  -5.225  -1.271  0.00  0.00    +0.150 HD
BRANCH   4   6
ATOM      6  C   UNL     1      -6.996  -6.543  -0.121  0.00  0.00    +0.278 C 
BRANCH   6   7
ATOM      7  S   UNL     1      -8.307  -5.517   0.600  0.00  0.00    +0.013 S 
ATOM      8  O   UNL     1      -9.464  -6.303   0.847  0.00  0.00    -0.168 OA
ATOM      9  O   UNL     1      -7.770  -4.680   1.615  0.00  0.00    -0.168 OA
BRANCH   7  10
ATOM     10  C   UNL     1      -8.779  -4.413  -0.690  0.00  0.00    +0.090 A 
ATOM     11  C   UNL     1      -8.139  -3.196  -0.826  0.00  0.00    +0.027 A 
ATOM     12  C   UNL     1      -8.509  -2.330  -1.838  0.00  0.00    +0.005 A 
ATOM     13  C   UNL     1      -9.520  -2.682  -2.713  0.00  0.00    -0.050 A 
ATOM     14  C   UNL     1     -10.159  -3.899  -2.577  0.00  0.00    +0.005 A 
ATOM     15  C   UNL     1      -9.786  -4.767  -1.568  0.00  0.00    +0.027 A 
ATOM     16  C   UNL     1      -9.924  -1.737  -3.816  0.00  0.00    +0.044 C 
ENDBRANCH   7  10
ENDBRANCH   6   7
ENDBRANCH   4   6
ENDBRANCH   1   2
BRANCH   1  17
ATOM     17  N   UNL     1      -2.692  -4.773   1.265  0.00  0.00    -0.285 N 
ATOM     18  C   UNL     1      -1.408  -5.130   1.065  0.00  0.00    +0.217 C 
ATOM     19  O   UNL     1      -1.030  -5.436  -0.046  0.00  0.00    -0.276 OA
BRANCH  17  20
ATOM     20  C   UNL     1      -3.151  -4.414   2.610  0.00  0.00    +0.030 C 
ATOM     21  C   UNL     1      -3.286  -5.681   3.457  0.00  0.00    +0.031 C 
ATOM     22  C   UNL     1      -2.138  -3.471   3.260  0.00  0.00    +0.031 C 
ATOM     23  C   UNL     1      -4.510  -3.717   2.515  0.00  0.00    +0.031 C 
ENDBRANCH  17  20
BRANCH  18  24
ATOM     24  C   UNL     1      -0.442  -5.150   2.222  0.00  0.00    +0.100 C 
BRANCH  24  25
ATOM     25  C   UNL     1       0.875  -5.788   1.776  0.00  0.00    +0.044 C 
BRANCH  25  26
ATOM     26  C   UNL     1       1.841  -5.808   2.932  0.00  0.00    -0.047 A 
ATOM     27  C   UNL     1       2.691  -4.737   3.140  0.00  0.00    +0.007 A 
ATOM     28  C   UNL     1       3.577  -4.753   4.199  0.00  0.00    +0.046 A 
ATOM     29  C   UNL     1       3.614  -5.845   5.055  0.00  0.00    +0.120 A 
ATOM     30  C   UNL     1       2.760  -6.917   4.845  0.00  0.00    +0.046 A 
ATOM     31  C   UNL     1       1.872  -6.894   3.787  0.00  0.00    +0.007 A 
BRANCH  29  32
ATOM     32  O   UNL     1       4.486  -5.863   6.098  0.00  0.00    -0.495 OA
ATOM     33  C   UNL     1       4.468  -7.019   6.938  0.00  0.00    +0.277 C 
ENDBRANCH  29  32
ENDBRANCH  25  26
ENDBRANCH  24  25
ENDBRANCH  18  24
ENDBRANCH   1  17
BRANCH   1  34
ATOM     34  C   UNL     1      -4.087  -3.304  -0.105  0.00  0.00    +0.032 C 
BRANCH  34  35
ATOM     35  C   UNL     1      -2.867  -2.417  -0.366  0.00  0.00    +0.002 C 
BRANCH  35  36
ATOM     36  C   UNL     1      -3.326  -0.978  -0.610  0.00  0.00    -0.000 C 
BRANCH  36  38
ATOM     37  C   UNL     1      -2.565   1.347  -1.116  0.00  0.00    +0.004 C 
ATOM     38  C   UNL     1      -2.106  -0.092  -0.872  0.00  0.00    -0.003 C 
ENDBRANCH  36  38
ENDBRANCH  35  36
ENDBRANCH  34  35
ENDBRANCH   1  34
TORSDOF 14
