REMARK  Name = ZINC44924688
REMARK  6 active torsions:
REMARK  status: ('A' for Active; 'I' for Inactive)
REMARK    1  A    between atoms: C_1  and  C_2
REMARK    2  A    between atoms: C_2  and  C_4
REMARK    3  A    between atoms: C_2  and  N_9
REMARK    4  A    between atoms: N_9  and  C_10
REMARK    5  A    between atoms: C_13  and  C_17
REMARK    6  A    between atoms: C_15  and  N_16
REMARK                            x       y       z     vdW  Elec       q    Type
REMARK                         _______ _______ _______ _____ _____    ______ ____
ROOT
ATOM      1  C   UNL     1       2.083  -0.591  -1.215  0.00  0.00    +0.049 A 
ATOM      2  C   UNL     1       2.818  -0.264  -0.086  0.00  0.00    +0.025 A 
ATOM      3  C   UNL     1       4.196  -0.378  -0.100  0.00  0.00    +0.014 A 
ATOM      4  C   UNL     1       4.845  -0.819  -1.238  0.00  0.00    +0.057 A 
ATOM      5  C   UNL     1       4.121  -1.148  -2.369  0.00  0.00    +0.037 A 
ATOM      6  C   UNL     1       2.738  -1.041  -2.362  0.00  0.00    +0.046 A 
ENDROOT
BRANCH   4   7
ATOM      7  C   UNL     1       6.347  -0.941  -1.246  0.00  0.00    +0.417 C 
ATOM      8  F   UNL     1       6.853  -0.555  -0.000  0.00  0.00    -0.166 F 
ATOM      9  F   UNL     1       6.706  -2.268  -1.504  0.00  0.00    -0.166 F 
ATOM     10  F   UNL     1       6.877  -0.113  -2.241  0.00  0.00    -0.166 F 
ENDBRANCH   4   7
BRANCH   6  11
ATOM     11  N   UNL     1       2.002  -1.378  -3.504  0.00  0.00    -0.357 N 
ATOM     12  H   UNL     1       1.035  -1.300  -3.499  0.00  0.00    +0.142 HD
ATOM     13  H   UNL     1       2.459  -1.691  -4.301  0.00  0.00    +0.142 HD
ENDBRANCH   6  11
BRANCH   1  14
ATOM     14  N   UNL     1       0.688  -0.476  -1.203  0.00  0.00    -0.333 N 
ATOM     15  H   UNL     1       0.175  -0.710  -1.993  0.00  0.00    +0.147 HD
BRANCH  14  17
ATOM     16  C   UNL     1      -0.019   1.526   0.010  0.00  0.00    +0.036 C 
ATOM     17  C   UNL     1       0.002  -0.004   0.002  0.00  0.00    +0.139 C 
BRANCH  17  18
ATOM     18  C   UNL     1      -1.412  -0.526   0.013  0.00  0.00    +0.196 A 
ATOM     19  N   UNL     1      -2.048  -1.063   1.044  0.00  0.00    -0.109 NA
ATOM     20  N   UNL     1      -3.233  -1.380   0.647  0.00  0.00    -0.021 NA
ATOM     21  N   UNL     1      -3.361  -1.061  -0.593  0.00  0.00    -0.021 NA
ATOM     22  N   UNL     1      -2.260  -0.530  -1.005  0.00  0.00    -0.109 NA
ENDBRANCH  17  18
ENDBRANCH  14  17
ENDBRANCH   1  14
TORSDOF 5
