REMARK  Name = ZINC08634557
REMARK  11 active torsions:
REMARK  status: ('A' for Active; 'I' for Inactive)
REMARK    1  A    between atoms: C_1  and  C_2
REMARK    2  A    between atoms: C_2  and  O_3
REMARK    3  A    between atoms: O_3  and  C_4
REMARK    4  A    between atoms: C_4  and  C_6
REMARK    5  A    between atoms: C_7  and  C_35
REMARK    6  A    between atoms: C_8  and  C_29
REMARK    7  A    between atoms: C_10  and  N_11
REMARK    8  A    between atoms: C_12  and  C_14
REMARK    9  A    between atoms: C_14  and  N_15
REMARK   10  A    between atoms: C_18  and  C_22
REMARK   11  A    between atoms: C_18  and  C_23
REMARK                            x       y       z     vdW  Elec       q    Type
REMARK                         _______ _______ _______ _____ _____    ______ ____
ROOT
ATOM      1  N   UNL     1       0.284  -1.859   1.660  0.00  0.00    -0.278 N 
ATOM      2  C   UNL     1       0.303  -0.534   1.412  0.00  0.00    +0.236 C 
ATOM      3  O   UNL     1       0.235   0.255   2.330  0.00  0.00    -0.274 OA
ATOM      4  H   UNL     1       0.339  -2.490   0.926  0.00  0.00    +0.155 HD
ENDROOT
BRANCH   1   9
ATOM      5  C   UNL     1       0.146  -3.635   3.418  0.00  0.00    +0.091 A 
ATOM      6  C   UNL     1       0.048  -3.840   4.795  0.00  0.00    -0.020 A 
ATOM      7  C   UNL     1      -0.012  -2.742   5.595  0.00  0.00    +0.025 A 
ATOM      8  S   UNL     1       0.076  -1.398   4.427  0.00  0.00    -0.072 S 
ATOM      9  C   UNL     1       0.186  -2.318   2.962  0.00  0.00    +0.087 A 
ATOM     10  C   UNL     1       0.003  -5.231   5.375  0.00  0.00    +0.046 C 
BRANCH   7  11
ATOM     11  C   UNL     1      -0.123  -2.678   7.068  0.00  0.00    -0.011 A 
ATOM     12  C   UNL     1      -1.065  -3.462   7.735  0.00  0.00    +0.009 A 
ATOM     13  C   UNL     1      -1.160  -3.401   9.110  0.00  0.00    +0.001 A 
ATOM     14  C   UNL     1      -0.330  -2.557   9.826  0.00  0.00    +0.000 A 
ATOM     15  C   UNL     1       0.603  -1.774   9.171  0.00  0.00    +0.001 A 
ATOM     16  C   UNL     1       0.711  -1.829   7.797  0.00  0.00    +0.009 A 
ENDBRANCH   7  11
BRANCH   5  17
ATOM     17  C   UNL     1       0.208  -4.763   2.485  0.00  0.00    +0.342 C 
ATOM     18  O   UNL     1       1.284  -5.238   2.176  0.00  0.00    -0.245 OA
BRANCH  17  19
ATOM     19  O   UNL     1      -0.928  -5.276   1.970  0.00  0.00    -0.461 OA
BRANCH  19  21
ATOM     20  C   UNL     1      -2.176  -6.835   0.577  0.00  0.00    +0.048 C 
ATOM     21  C   UNL     1      -0.791  -6.393   1.053  0.00  0.00    +0.229 C 
ENDBRANCH  19  21
ENDBRANCH  17  19
ENDBRANCH   5  17
ENDBRANCH   1   9
BRANCH   2  22
ATOM     22  C   UNL     1       0.410  -0.034  -0.005  0.00  0.00    +0.214 C 
BRANCH  22  23
ATOM     23  N   UNL     1       0.411   1.431  -0.007  0.00  0.00    -0.215 N 
ATOM     24  C   UNL     1       1.523   2.188   0.075  0.00  0.00    +0.251 C 
ATOM     25  O   UNL     1       2.668   1.799   0.162  0.00  0.00    -0.272 OA
ATOM     26  C   UNL     1       1.045   3.625   0.036  0.00  0.00    +0.135 C 
ATOM     27  N   UNL     1      -0.419   3.500  -0.074  0.00  0.00    -0.281 N 
ATOM     28  C   UNL     1      -0.692   2.183  -0.097  0.00  0.00    +0.310 C 
ATOM     29  O   UNL     1      -1.815   1.728  -0.186  0.00  0.00    -0.252 OA
ATOM     30  C   UNL     1       1.431   4.356   1.323  0.00  0.00    +0.047 C 
ATOM     31  H   UNL     1      -1.060   4.226  -0.124  0.00  0.00    +0.152 HD
BRANCH  26  32
ATOM     32  C   UNL     1       1.608   4.339  -1.166  0.00  0.00    -0.016 A 
ATOM     33  C   UNL     1       2.840   3.971  -1.674  0.00  0.00    +0.006 A 
ATOM     34  C   UNL     1       3.354   4.623  -2.780  0.00  0.00    +0.000 A 
ATOM     35  C   UNL     1       2.641   5.649  -3.371  0.00  0.00    +0.000 A 
ATOM     36  C   UNL     1       1.412   6.020  -2.860  0.00  0.00    +0.000 A 
ATOM     37  C   UNL     1       0.895   5.365  -1.758  0.00  0.00    +0.006 A 
ENDBRANCH  26  32
ENDBRANCH  22  23
ENDBRANCH   2  22
TORSDOF 8
