REMARK  Name = ZINC06649756
REMARK  3 active torsions:
REMARK  status: ('A' for Active; 'I' for Inactive)
REMARK    1  A    between atoms: C_4  and  N_7
REMARK    2  A    between atoms: C_8  and  N_17
REMARK    3  A    between atoms: C_10  and  C_12
REMARK                            x       y       z     vdW  Elec       q    Type
REMARK                         _______ _______ _______ _____ _____    ______ ____
ROOT
ATOM      1  N   UNL     1      -4.638   4.707   0.166  0.00  0.00    -0.215 N 
ATOM      2  C   UNL     1      -3.665   3.820  -0.184  0.00  0.00    +0.144 A 
ATOM      3  C   UNL     1      -4.219   2.581  -0.193  0.00  0.00    +0.077 A 
ATOM      4  C   UNL     1      -5.574   2.712   0.172  0.00  0.00    +0.102 A 
ATOM      5  N   UNL     1      -5.821   3.990   0.383  0.00  0.00    -0.164 NA
ENDROOT
BRANCH   2   6
ATOM      6  N   UNL     1      -2.337   4.131  -0.484  0.00  0.00    -0.272 N 
ATOM      7  C   UNL     1      -1.911   5.075  -1.416  0.00  0.00    +0.074 A 
ATOM      8  C   UNL     1      -2.580   5.942  -2.267  0.00  0.00    +0.028 A 
ATOM      9  C   UNL     1      -1.863   6.779  -3.099  0.00  0.00    +0.002 A 
ATOM     10  C   UNL     1      -0.479   6.764  -3.078  0.00  0.00    +0.002 A 
ATOM     11  C   UNL     1       0.197   5.909  -2.230  0.00  0.00    +0.028 A 
ATOM     12  C   UNL     1      -0.515   5.061  -1.395  0.00  0.00    +0.065 A 
ATOM     13  N   UNL     1      -0.136   4.108  -0.453  0.00  0.00    -0.333 N 
ATOM     14  H   UNL     1       0.775   3.874  -0.217  0.00  0.00    +0.168 HD
ATOM     15  C   UNL     1      -1.250   3.568   0.076  0.00  0.00    +0.164 A 
ATOM     16  S   UNL     1      -1.280   2.349   1.278  0.00  0.00    -0.012 S 
ENDBRANCH   2   6
BRANCH   1  20
ATOM     17  C   UNL     1      -4.176   8.833   0.527  0.00  0.00    +0.000 A 
ATOM     18  C   UNL     1      -5.300   8.316  -0.092  0.00  0.00    +0.002 A 
ATOM     19  C   UNL     1      -5.456   6.949  -0.213  0.00  0.00    +0.028 A 
ATOM     20  C   UNL     1      -4.482   6.094   0.287  0.00  0.00    +0.068 A 
ATOM     21  C   UNL     1      -3.358   6.616   0.912  0.00  0.00    +0.028 A 
ATOM     22  C   UNL     1      -3.205   7.984   1.025  0.00  0.00    +0.002 A 
ENDBRANCH   1  20
BRANCH   4  23
ATOM     23  C   UNL     1      -6.552   1.609   0.291  0.00  0.00    +0.039 A 
ATOM     24  C   UNL     1      -7.876   1.663   0.633  0.00  0.00    +0.018 A 
ATOM     25  C   UNL     1      -8.597   0.489   0.679  0.00  0.00    +0.008 A 
ATOM     26  C   UNL     1      -7.975  -0.681   0.385  0.00  0.00    +0.046 A 
ATOM     27  S   UNL     1      -6.313  -0.140   0.019  0.00  0.00    -0.095 S 
ENDBRANCH   4  23
TORSDOF 3
