REMARK  Name = ZINC07439078
REMARK  8 active torsions:
REMARK  status: ('A' for Active; 'I' for Inactive)
REMARK    1  A    between atoms: C_1  and  C_2
REMARK    2  A    between atoms: C_5  and  C_25
REMARK    3  A    between atoms: C_6  and  C_8
REMARK    4  A    between atoms: C_8  and  O_10
REMARK    5  A    between atoms: O_10  and  C_11
REMARK    6  A    between atoms: C_11  and  C_13
REMARK    7  A    between atoms: C_11  and  C_14
REMARK    8  A    between atoms: N_16  and  C_17
REMARK                            x       y       z     vdW  Elec       q    Type
REMARK                         _______ _______ _______ _____ _____    ______ ____
ROOT
ATOM      1  C   UNL     1       3.696   6.025  -0.400  0.00  0.00    +0.259 C 
ATOM      2  C   UNL     1       4.390   5.725  -1.730  0.00  0.00    +0.062 C 
ENDROOT
BRANCH   1   3
ATOM      3  C   UNL     1       2.412   5.241  -0.316  0.00  0.00    +0.258 C 
ATOM      4  O   UNL     1       1.347   5.821  -0.288  0.00  0.00    -0.271 OA
ATOM      5  N   UNL     1       2.447   3.894  -0.270  0.00  0.00    -0.281 N 
ATOM      6  H   UNL     1       3.298   3.433  -0.210  0.00  0.00    +0.155 HD
BRANCH   5   7
ATOM      7  C   UNL     1       1.255   3.161  -0.309  0.00  0.00    +0.053 A 
ATOM      8  C   UNL     1       0.117   3.713  -0.884  0.00  0.00    +0.044 A 
ATOM      9  C   UNL     1      -1.058   2.987  -0.920  0.00  0.00    +0.043 A 
ATOM     10  C   UNL     1      -1.101   1.710  -0.389  0.00  0.00    +0.021 A 
ATOM     11  C   UNL     1       0.028   1.160   0.189  0.00  0.00    +0.023 A 
ATOM     12  C   UNL     1       1.207   1.881   0.228  0.00  0.00    +0.062 A 
ATOM     13 CL   UNL     1       2.626   1.187   0.949  0.00  0.00    -0.082 Cl
ATOM     14 CL   UNL     1      -2.480   3.676  -1.639  0.00  0.00    -0.083 Cl
ENDBRANCH   5   7
ENDBRANCH   1   3
BRANCH   1  15
ATOM     15  O   UNL     1       3.402   7.445  -0.317  0.00  0.00    -0.449 OA
BRANCH  15  16
ATOM     16  C   UNL     1       4.346   8.234   0.232  0.00  0.00    +0.340 C 
ATOM     17  O   UNL     1       5.385   7.749   0.631  0.00  0.00    -0.245 OA
BRANCH  16  23
ATOM     18  C   UNL     1       1.349  12.187  -0.300  0.00  0.00    +0.044 C 
ATOM     19  C   UNL     1       2.677  11.594   0.095  0.00  0.00    -0.050 A 
ATOM     20  C   UNL     1       3.685  12.415   0.570  0.00  0.00    +0.003 A 
ATOM     21  C   UNL     1       4.907  11.879   0.935  0.00  0.00    +0.004 A 
ATOM     22  C   UNL     1       5.128  10.522   0.828  0.00  0.00    -0.036 A 
ATOM     23  C   UNL     1       4.116   9.688   0.350  0.00  0.00    +0.062 A 
ATOM     24  C   UNL     1       2.886  10.236  -0.022  0.00  0.00    +0.018 A 
ATOM     25  C   UNL     1       6.461   9.940   1.225  0.00  0.00    +0.044 C 
ENDBRANCH  16  23
ENDBRANCH  15  16
ENDBRANCH   1  15
TORSDOF 5
