REMARK  Name = ZINC48166113
REMARK  4 active torsions:
REMARK  status: ('A' for Active; 'I' for Inactive)
REMARK    1  A    between atoms: C_5  and  C_6
REMARK    2  A    between atoms: N_8  and  C_9
REMARK    3  A    between atoms: C_9  and  C_10
REMARK    4  A    between atoms: N_12  and  C_13
REMARK                            x       y       z     vdW  Elec       q    Type
REMARK                         _______ _______ _______ _____ _____    ______ ____
ROOT
ATOM      1  C   UNL     1      -2.017  -3.209   0.005  0.00  0.00    +0.200 C 
ENDROOT
BRANCH   1   4
ATOM      2  C   UNL     1      -1.123  -0.943   0.008  0.00  0.00    +0.251 C 
ATOM      3  O   UNL     1      -2.265  -0.523   0.022  0.00  0.00    -0.270 OA
ATOM      4  N   UNL     1      -0.892  -2.271  -0.001  0.00  0.00    -0.302 N 
ATOM      5  H   UNL     1       0.018  -2.605  -0.012  0.00  0.00    +0.150 HD
BRANCH   2  10
ATOM      6  C   UNL     1      -0.017   1.383   0.010  0.00  0.00    +0.022 A 
ATOM      7  C   UNL     1       1.212   1.996   0.001  0.00  0.00    +0.024 A 
ATOM      8  C   UNL     1       2.332   1.230  -0.014  0.00  0.00    +0.056 A 
ATOM      9  S   UNL     1       1.751  -0.347  -0.017  0.00  0.00    -0.077 S 
ATOM     10  C   UNL     1       0.002  -0.004   0.002  0.00  0.00    +0.075 A 
ATOM     11 BR   UNL     1       4.134   1.804  -0.028  0.00  0.00    -0.043 Br
ENDBRANCH   2  10
ENDBRANCH   1   4
BRANCH   1  12
ATOM     12  C   UNL     1      -1.492  -4.622  -0.008  0.00  0.00    +0.230 C 
ATOM     13  O   UNL     1      -0.297  -4.825  -0.021  0.00  0.00    -0.274 OA
ATOM     14  N   UNL     1      -2.352  -5.660  -0.004  0.00  0.00    -0.311 N 
ATOM     15  H   UNL     1      -3.308  -5.498   0.006  0.00  0.00    +0.149 HD
BRANCH  14  16
ATOM     16  C   UNL     1      -1.842  -7.033  -0.017  0.00  0.00    +0.073 C 
ATOM     17  C   UNL     1      -1.495  -7.424  -1.468  0.00  0.00    +0.022 C 
ATOM     18  C   UNL     1      -0.529  -8.577  -1.435  0.00  0.00    +0.002 C 
ATOM     19  C   UNL     1      -1.236  -9.942  -1.539  0.00  0.00    +0.000 C 
ATOM     20  C   UNL     1      -2.522 -10.015  -0.694  0.00  0.00    +0.000 C 
ATOM     21  C   UNL     1      -2.359  -9.375   0.658  0.00  0.00    +0.002 C 
ATOM     22  C   UNL     1      -2.842  -7.913   0.571  0.00  0.00    +0.022 C 
ENDBRANCH  14  16
ENDBRANCH   1  12
TORSDOF 4
