REMARK  Name = ZINC13033255
REMARK  12 active torsions:
REMARK  status: ('A' for Active; 'I' for Inactive)
REMARK    1  A    between atoms: C_1  and  O_2
REMARK    2  A    between atoms: O_2  and  C_3
REMARK    3  A    between atoms: C_3  and  C_4
REMARK    4  A    between atoms: C_4  and  N_5
REMARK    5  A    between atoms: C_6  and  C_10
REMARK    6  A    between atoms: C_10  and  N_61
REMARK    7  A    between atoms: C_11  and  C_12
REMARK    8  A    between atoms: C_11  and  N_61
REMARK    9  A    between atoms: C_21  and  C_22
REMARK   10  A    between atoms: C_21  and  N_61
REMARK   11  A    between atoms: C_27  and  O_34
REMARK   12  A    between atoms: O_34  and  C_35
REMARK                            x       y       z     vdW  Elec       q    Type
REMARK                         _______ _______ _______ _____ _____    ______ ____
ROOT
ATOM      1  N   UNL     1      -1.391  -1.279   2.190  0.00  0.00    +0.390 N 
ATOM      2  H   UNL     1      -0.375  -1.137   2.138  0.00  0.00    -0.080 HD
ENDROOT
BRANCH   1   3
ATOM      3  C   UNL     1      -2.070  -0.091   1.630  0.00  0.00    +0.001 C 
BRANCH   3   5
ATOM      4  N   UNL     1      -0.459   1.867   1.902  0.00  0.00    -0.229 N 
ATOM      5  C   UNL     1      -1.522   1.143   2.299  0.00  0.00    +0.135 A 
ATOM      6  N   UNL     1      -1.987   1.719   3.380  0.00  0.00    -0.115 NA
ATOM      7  N   UNL     1      -1.248   2.744   3.634  0.00  0.00    -0.023 NA
ATOM      8  N   UNL     1      -0.320   2.833   2.747  0.00  0.00    -0.044 NA
BRANCH   4   9
ATOM      9  C   UNL     1       0.387   1.604   0.735  0.00  0.00    +0.175 C 
BRANCH   9  10
ATOM     10  C   UNL     1      -0.182   2.336  -0.482  0.00  0.00    +0.183 C 
BRANCH  10  12
ATOM     11  C   UNL     1       0.196   2.721  -2.817  0.00  0.00    +0.194 C 
ATOM     12  O   UNL     1       0.642   2.080  -1.621  0.00  0.00    -0.381 OA
ENDBRANCH  10  12
ENDBRANCH   9  10
ENDBRANCH   4   9
ENDBRANCH   3   5
ENDBRANCH   1   3
BRANCH   1  13
ATOM     13  C   UNL     1      -1.778  -1.462   3.604  0.00  0.00    -0.042 C 
BRANCH  13  14
ATOM     14  C   UNL     1      -0.819  -2.430   4.248  0.00  0.00    -0.060 A 
ATOM     15  C   UNL     1      -1.154  -3.768   4.350  0.00  0.00    +0.005 A 
ATOM     16  C   UNL     1      -0.276  -4.661   4.934  0.00  0.00    +0.050 A 
ATOM     17  C   UNL     1       0.939  -4.215   5.430  0.00  0.00    +0.166 A 
ATOM     18  C   UNL     1       1.274  -2.866   5.331  0.00  0.00    +0.166 A 
ATOM     19  C   UNL     1       0.391  -1.978   4.739  0.00  0.00    +0.051 A 
ATOM     20  O   UNL     1       2.508  -2.682   5.886  0.00  0.00    -0.453 OA
ATOM     21  C   UNL     1       2.747  -3.853   6.689  0.00  0.00    +0.466 C 
ATOM     22  O   UNL     1       1.962  -4.875   6.046  0.00  0.00    -0.453 OA
ENDBRANCH  13  14
ENDBRANCH   1  13
BRANCH   1  23
ATOM     23  C   UNL     1      -1.748  -2.481   1.408  0.00  0.00    -0.036 C 
BRANCH  23  24
ATOM     24  C   UNL     1      -0.954  -2.478   0.128  0.00  0.00    +0.001 A 
ATOM     25  C   UNL     1       0.236  -3.129   0.069  0.00  0.00    +0.017 A 
ATOM     26  C   UNL     1       0.982  -3.108  -1.188  0.00  0.00    -0.001 A 
ATOM     27  C   UNL     1       2.215  -3.762  -1.309  0.00  0.00    +0.013 A 
ATOM     28  C   UNL     1       2.888  -3.726  -2.494  0.00  0.00    +0.046 A 
ATOM     29  C   UNL     1       2.360  -3.042  -3.588  0.00  0.00    +0.122 A 
ATOM     30  C   UNL     1       1.143  -2.389  -3.490  0.00  0.00    +0.072 A 
ATOM     31  C   UNL     1       0.443  -2.416  -2.291  0.00  0.00    +0.053 A 
ATOM     32  N   UNL     1      -0.771  -1.774  -2.165  0.00  0.00    -0.322 N 
ATOM     33  H   UNL     1      -1.141  -1.298  -2.925  0.00  0.00    +0.169 HD
ATOM     34  C   UNL     1      -1.452  -1.804  -1.006  0.00  0.00    +0.251 A 
ATOM     35  O   UNL     1      -2.525  -1.230  -0.932  0.00  0.00    -0.268 OA
BRANCH  29  36
ATOM     36  O   UNL     1       3.044  -3.017  -4.761  0.00  0.00    -0.495 OA
ATOM     37  C   UNL     1       4.293  -3.710  -4.798  0.00  0.00    +0.277 C 
ENDBRANCH  29  36
ENDBRANCH  23  24
ENDBRANCH   1  23
TORSDOF 10
