REMARK  Name = ZINC06077541
REMARK  12 active torsions:
REMARK  status: ('A' for Active; 'I' for Inactive)
REMARK    1  A    between atoms: C_1  and  C_2
REMARK    2  A    between atoms: C_2  and  C_3
REMARK    3  A    between atoms: C_3  and  C_4
REMARK    4  A    between atoms: C_3  and  C_5
REMARK    5  A    between atoms: C_3  and  N_6
REMARK    6  A    between atoms: C_7  and  C_11
REMARK    7  A    between atoms: C_11  and  C_13
REMARK    8  A    between atoms: C_11  and  N_73
REMARK    9  A    between atoms: C_17  and  C_26
REMARK   10  A    between atoms: C_19  and  C_25
REMARK   11  A    between atoms: N_29  and  C_32
REMARK   12  A    between atoms: C_35  and  N_38
REMARK                            x       y       z     vdW  Elec       q    Type
REMARK                         _______ _______ _______ _____ _____    ______ ____
ROOT
ATOM      1  C   UNL     1       1.371   3.453   0.015  0.00  0.00    +0.039 C 
ENDROOT
BRANCH   1   2
ATOM      2  C   UNL     1       0.833   3.625  -1.382  0.00  0.00    +0.011 A 
ATOM      3  C   UNL     1      -0.201   4.473  -1.608  0.00  0.00    +0.017 A 
ATOM      4  C   UNL     1      -0.701   4.618  -2.976  0.00  0.00    -0.001 A 
ATOM      5  C   UNL     1      -1.764   5.478  -3.272  0.00  0.00    +0.013 A 
ATOM      6  C   UNL     1      -2.207   5.590  -4.559  0.00  0.00    -0.050 A 
ATOM      7  C   UNL     1      -1.610   4.859  -5.577  0.00  0.00    +0.008 A 
ATOM      8  C   UNL     1      -0.561   4.006  -5.310  0.00  0.00    -0.026 A 
ATOM      9  C   UNL     1      -0.094   3.875  -4.006  0.00  0.00    +0.052 A 
ATOM     10  N   UNL     1       0.954   3.030  -3.710  0.00  0.00    -0.322 N 
ATOM     11  H   UNL     1       1.382   2.499  -4.442  0.00  0.00    +0.169 HD
ATOM     12  C   UNL     1       1.410   2.907  -2.451  0.00  0.00    +0.251 A 
ATOM     13  O   UNL     1       2.341   2.154  -2.227  0.00  0.00    -0.268 OA
ATOM     14  C   UNL     1       0.076   3.218  -6.425  0.00  0.00    +0.046 C 
ATOM     15  C   UNL     1      -3.352   6.516  -4.877  0.00  0.00    +0.044 C 
ENDBRANCH   1   2
BRANCH   1  21
ATOM     16  C   UNL     1      -0.032   1.527   0.447  0.00  0.00    -0.058 C 
ATOM     17  C   UNL     1      -0.010   0.026   0.747  0.00  0.00    +0.086 C 
ATOM     18  N   UNL     1       0.697  -0.207   2.014  0.00  0.00    -0.333 N 
ATOM     19  C   UNL     1       2.076   0.297   1.945  0.00  0.00    +0.086 C 
ATOM     20  C   UNL     1       2.054   1.797   1.645  0.00  0.00    -0.058 C 
ATOM     21  N   UNL     1       1.361   2.015   0.358  0.00  0.00    +0.391 N 
ATOM     22  H   UNL     1       1.851   1.494  -0.378  0.00  0.00    -0.080 HD
BRANCH  18  23
ATOM     23  C   UNL     1       0.674  -1.560   2.359  0.00  0.00    +0.030 A 
ATOM     24  C   UNL     1       0.032  -2.477   1.536  0.00  0.00    +0.025 A 
ATOM     25  C   UNL     1       0.017  -3.815   1.877  0.00  0.00    +0.034 A 
ATOM     26  C   UNL     1       0.630  -4.241   3.041  0.00  0.00    +0.126 A 
ATOM     27  C   UNL     1       1.266  -3.330   3.864  0.00  0.00    +0.034 A 
ATOM     28  C   UNL     1       1.290  -1.991   3.527  0.00  0.00    +0.025 A 
BRANCH  26  29
ATOM     29  N   UNL     1       0.607  -5.676   3.405  0.00  0.00    +0.056 N 
ATOM     30  O   UNL     1       1.147  -6.052   4.430  0.00  0.00    -0.126 OA
ATOM     31  O   UNL     1       0.048  -6.479   2.681  0.00  0.00    -0.126 OA
ENDBRANCH  26  29
ENDBRANCH  18  23
ENDBRANCH   1  21
BRANCH   1  33
ATOM     32  N   UNL     1       3.220   5.061   0.722  0.00  0.00    -0.225 N 
ATOM     33  C   UNL     1       2.788   3.963   0.074  0.00  0.00    +0.143 A 
ATOM     34  N   UNL     1       3.837   3.427  -0.500  0.00  0.00    -0.115 NA
ATOM     35  N   UNL     1       4.861   4.155  -0.216  0.00  0.00    -0.023 NA
ATOM     36  N   UNL     1       4.493   5.141   0.525  0.00  0.00    -0.043 NA
BRANCH  32  37
ATOM     37  C   UNL     1       2.401   5.989   1.506  0.00  0.00    +0.061 C 
ATOM     38  C   UNL     1       1.287   6.555   0.624  0.00  0.00    +0.036 C 
ATOM     39  C   UNL     1       1.784   5.246   2.693  0.00  0.00    +0.036 C 
BRANCH  37  41
ATOM     40  C   UNL     1       2.421   8.102   2.838  0.00  0.00    +0.006 C 
ATOM     41  C   UNL     1       3.277   7.133   2.019  0.00  0.00    +0.026 C 
ENDBRANCH  37  41
ENDBRANCH  32  37
ENDBRANCH   1  33
TORSDOF 7
