REMARK  Name = ZINC15773764
REMARK  5 active torsions:
REMARK  status: ('A' for Active; 'I' for Inactive)
REMARK    1  A    between atoms: C_1  and  C_2
REMARK    2  A    between atoms: C_6  and  N_9
REMARK    3  A    between atoms: C_7  and  C_8
REMARK    4  A    between atoms: C_10  and  C_12
REMARK    5  A    between atoms: C_22  and  C_24
REMARK                            x       y       z     vdW  Elec       q    Type
REMARK                         _______ _______ _______ _____ _____    ______ ____
ROOT
ATOM      1  C   UNL     1       0.140   1.586  -0.082  0.00  0.00    +0.172 C 
ATOM      2  C   UNL     1      -0.454   2.234  -1.343  0.00  0.00    +0.069 C 
ATOM      3  C   UNL     1      -1.701   2.938  -0.858  0.00  0.00    -0.024 A 
ATOM      4  C   UNL     1      -2.641   3.689  -1.538  0.00  0.00    +0.005 A 
ATOM      5  C   UNL     1      -3.713   4.239  -0.860  0.00  0.00    +0.000 A 
ATOM      6  C   UNL     1      -3.842   4.037   0.502  0.00  0.00    +0.002 A 
ATOM      7  C   UNL     1      -2.907   3.289   1.185  0.00  0.00    +0.024 A 
ATOM      8  C   UNL     1      -1.822   2.730   0.507  0.00  0.00    +0.041 A 
ATOM      9  N   UNL     1      -0.773   1.949   1.005  0.00  0.00    -0.255 N 
ATOM     10  C   UNL     1      -0.624   1.583   2.294  0.00  0.00    +0.252 C 
ATOM     11  O   UNL     1      -1.499   1.829   3.101  0.00  0.00    -0.270 OA
ENDROOT
BRANCH  10  12
ATOM     12  C   UNL     1       0.604   0.882   2.726  0.00  0.00    +0.037 A 
ATOM     13  C   UNL     1       1.442   0.288   1.780  0.00  0.00    +0.013 A 
ATOM     14  C   UNL     1       2.588  -0.360   2.190  0.00  0.00    +0.001 A 
ATOM     15  C   UNL     1       2.904  -0.431   3.535  0.00  0.00    +0.000 A 
ATOM     16  C   UNL     1       2.075   0.151   4.478  0.00  0.00    +0.001 A 
ATOM     17  C   UNL     1       0.928   0.807   4.081  0.00  0.00    +0.013 A 
ENDBRANCH  10  12
BRANCH   1  19
ATOM     18  N   UNL     1       2.508   1.935  -0.706  0.00  0.00    -0.284 N 
ATOM     19  C   UNL     1       1.518   2.133   0.187  0.00  0.00    +0.238 C 
ATOM     20  O   UNL     1       1.736   2.750   1.208  0.00  0.00    -0.273 OA
ATOM     21  H   UNL     1       2.360   1.364  -1.475  0.00  0.00    +0.155 HD
BRANCH  18  27
ATOM     22  C   UNL     1       7.315   2.159  -1.710  0.00  0.00    +0.044 C 
ATOM     23  C   UNL     1       6.096   2.685  -0.998  0.00  0.00    -0.046 A 
ATOM     24  C   UNL     1       6.203   3.781  -0.162  0.00  0.00    +0.004 A 
ATOM     25  C   UNL     1       5.086   4.267   0.493  0.00  0.00    +0.002 A 
ATOM     26  C   UNL     1       3.858   3.660   0.311  0.00  0.00    +0.023 A 
ATOM     27  C   UNL     1       3.749   2.555  -0.523  0.00  0.00    +0.037 A 
ATOM     28  C   UNL     1       4.872   2.071  -1.180  0.00  0.00    -0.026 A 
ATOM     29  C   UNL     1       4.757   0.875  -2.091  0.00  0.00    +0.046 C 
ENDBRANCH  18  27
ENDBRANCH   1  19
TORSDOF 3
