REMARK  Name = ZINC20004836
REMARK  12 active torsions:
REMARK  status: ('A' for Active; 'I' for Inactive)
REMARK    1  A    between atoms: C_1  and  C_2
REMARK    2  A    between atoms: C_4  and  C_38
REMARK    3  A    between atoms: C_5  and  S_9
REMARK    4  A    between atoms: C_6  and  C_8
REMARK    5  A    between atoms: S_9  and  N_12
REMARK    6  A    between atoms: N_12  and  C_13
REMARK    7  A    between atoms: C_13  and  C_15
REMARK    8  A    between atoms: C_13  and  C_22
REMARK    9  A    between atoms: C_15  and  C_16
REMARK   10  A    between atoms: N_24  and  C_25
REMARK   11  A    between atoms: C_30  and  O_31
REMARK   12  A    between atoms: O_31  and  C_32
REMARK                            x       y       z     vdW  Elec       q    Type
REMARK                         _______ _______ _______ _____ _____    ______ ____
ROOT
ATOM      1  C   UNL     1       5.695  -0.657  -0.333  0.00  0.00    +0.167 C 
ENDROOT
BRANCH   1   2
ATOM      2  C   UNL     1       5.514  -1.212  -1.723  0.00  0.00    +0.236 C 
ATOM      3  O   UNL     1       5.465  -2.411  -1.896  0.00  0.00    -0.274 OA
ATOM      4  N   UNL     1       5.408  -0.375  -2.774  0.00  0.00    -0.281 N 
ATOM      5  H   UNL     1       5.406   0.713  -2.612  0.00  0.00    +0.155 HD
BRANCH   4   6
ATOM      6  C   UNL     1       5.299  -0.890  -4.072  0.00  0.00    +0.076 A 
ATOM      7  C   UNL     1       4.785  -2.163  -4.274  0.00  0.00    +0.027 A 
ATOM      8  C   UNL     1       4.673  -2.667  -5.556  0.00  0.00    +0.002 A 
ATOM      9  C   UNL     1       5.082  -1.911  -6.638  0.00  0.00    +0.004 A 
ATOM     10  C   UNL     1       5.600  -0.643  -6.445  0.00  0.00    +0.048 A 
ATOM     11  C   UNL     1       5.710  -0.128  -5.163  0.00  0.00    +0.150 A 
BRANCH  11  12
ATOM     12  O   UNL     1       6.219   1.118  -4.971  0.00  0.00    -0.454 OA
BRANCH  12  13
ATOM     13  C   UNL     1       7.519   1.225  -4.593  0.00  0.00    +0.129 A 
ATOM     14  C   UNL     1       8.317   0.092  -4.517  0.00  0.00    +0.046 A 
ATOM     15  C   UNL     1       9.640   0.204  -4.138  0.00  0.00    +0.004 A 
ATOM     16  C   UNL     1      10.168   1.443  -3.824  0.00  0.00    +0.000 A 
ATOM     17  C   UNL     1       9.374   2.573  -3.894  0.00  0.00    +0.004 A 
ATOM     18  C   UNL     1       8.052   2.467  -4.278  0.00  0.00    +0.046 A 
ENDBRANCH  12  13
ENDBRANCH  11  12
ENDBRANCH   4   6
ENDBRANCH   1   2
BRANCH   1  19
ATOM     19  N   UNL     1       5.784  -1.762   0.625  0.00  0.00    -0.178 NA
ATOM     20  H   UNL     1       6.126  -2.753   0.292  0.00  0.00    +0.149 HD
BRANCH  19  21
ATOM     21  S   UNL     1       5.141  -1.595   2.143  0.00  0.00    +0.060 S 
ATOM     22  O   UNL     1       5.616  -0.356   2.651  0.00  0.00    -0.153 OA
ATOM     23  O   UNL     1       5.361  -2.828   2.814  0.00  0.00    -0.153 OA
BRANCH  21  28
ATOM     24  C   UNL     1      -0.831  -1.022   1.503  0.00  0.00    +0.044 C 
ATOM     25  C   UNL     1       0.661  -1.165   1.658  0.00  0.00    -0.050 A 
ATOM     26  C   UNL     1       1.233  -2.422   1.710  0.00  0.00    +0.008 A 
ATOM     27  C   UNL     1       2.602  -2.554   1.858  0.00  0.00    -0.024 A 
ATOM     28  C   UNL     1       3.398  -1.428   1.955  0.00  0.00    +0.111 A 
ATOM     29  C   UNL     1       2.826  -0.170   1.903  0.00  0.00    -0.024 A 
ATOM     30  C   UNL     1       1.458  -0.039   1.755  0.00  0.00    +0.008 A 
ATOM     31  C   UNL     1       3.694   1.057   2.008  0.00  0.00    +0.046 C 
ATOM     32  C   UNL     1       3.225  -3.924   1.914  0.00  0.00    +0.046 C 
ENDBRANCH  21  28
ENDBRANCH  19  21
ENDBRANCH   1  19
BRANCH   1  33
ATOM     33  C   UNL     1       6.979   0.171  -0.277  0.00  0.00    +0.065 C 
BRANCH  33  34
ATOM     34  C   UNL     1       7.097   0.826   1.075  0.00  0.00    -0.045 A 
ATOM     35  C   UNL     1       6.558   2.082   1.284  0.00  0.00    +0.004 A 
ATOM     36  C   UNL     1       6.662   2.680   2.526  0.00  0.00    +0.000 A 
ATOM     37  C   UNL     1       7.313   2.027   3.556  0.00  0.00    +0.000 A 
ATOM     38  C   UNL     1       7.856   0.773   3.345  0.00  0.00    +0.000 A 
ATOM     39  C   UNL     1       7.748   0.173   2.105  0.00  0.00    +0.004 A 
ENDBRANCH  33  34
ENDBRANCH   1  33
TORSDOF 9
