REMARK  Name = ZINC17541772
REMARK  9 active torsions:
REMARK  status: ('A' for Active; 'I' for Inactive)
REMARK    1  A    between atoms: C_1  and  C_2
REMARK    2  A    between atoms: C_5  and  N_8
REMARK    3  A    between atoms: C_17  and  S_18
REMARK    4  A    between atoms: S_18  and  C_19
REMARK    5  A    between atoms: C_19  and  C_20
REMARK    6  A    between atoms: N_22  and  C_23
REMARK    7  A    between atoms: C_24  and  C_30
REMARK    8  A    between atoms: N_26  and  C_29
REMARK    9  A    between atoms: C_27  and  C_28
REMARK                            x       y       z     vdW  Elec       q    Type
REMARK                         _______ _______ _______ _____ _____    ______ ____
ROOT
ATOM      1  N   UNL     1       0.568  -3.202   0.432  0.00  0.00    -0.255 N 
ATOM      2  C   UNL     1       0.640  -1.851   0.393  0.00  0.00    +0.268 A 
ATOM      3  O   UNL     1       1.438  -1.225   1.070  0.00  0.00    -0.267 OA
ATOM      4  C   UNL     1      -0.279  -1.201  -0.493  0.00  0.00    +0.076 A 
ATOM      5  C   UNL     1      -0.404   0.230  -0.719  0.00  0.00    -0.023 A 
ATOM      6  C   UNL     1      -1.345   0.625  -1.605  0.00  0.00    -0.004 A 
ATOM      7  S   UNL     1      -2.104  -0.874  -2.178  0.00  0.00    -0.073 S 
ATOM      8  C   UNL     1      -1.160  -2.026  -1.230  0.00  0.00    +0.117 A 
ATOM      9  N   UNL     1      -1.181  -3.350  -1.146  0.00  0.00    -0.215 NA
ATOM     10  C   UNL     1      -0.318  -3.920  -0.316  0.00  0.00    +0.178 A 
ATOM     11  C   UNL     1      -1.675   2.028  -2.014  0.00  0.00    +0.043 C 
ATOM     12  C   UNL     1      -1.036   2.992  -1.004  0.00  0.00    +0.005 C 
ATOM     13  C   UNL     1       0.421   2.574  -0.783  0.00  0.00    +0.005 C 
ATOM     14  C   UNL     1       0.471   1.258  -0.006  0.00  0.00    +0.037 C 
ENDROOT
BRANCH   1  19
ATOM     15  C   UNL     1       4.110  -6.003   3.870  0.00  0.00    +0.044 C 
ATOM     16  C   UNL     1       3.169  -5.260   2.957  0.00  0.00    -0.050 A 
ATOM     17  C   UNL     1       3.507  -5.061   1.631  0.00  0.00    +0.005 A 
ATOM     18  C   UNL     1       2.647  -4.380   0.792  0.00  0.00    +0.026 A 
ATOM     19  C   UNL     1       1.442  -3.894   1.281  0.00  0.00    +0.052 A 
ATOM     20  C   UNL     1       1.108  -4.090   2.614  0.00  0.00    +0.026 A 
ATOM     21  C   UNL     1       1.970  -4.777   3.447  0.00  0.00    +0.005 A 
ENDBRANCH   1  19
BRANCH  10  22
ATOM     22  S   UNL     1      -0.314  -5.676  -0.176  0.00  0.00    -0.078 S 
BRANCH  22  23
ATOM     23  C   UNL     1      -1.634  -6.088  -1.344  0.00  0.00    +0.173 C 
BRANCH  23  24
ATOM     24  C   UNL     1      -1.815  -7.583  -1.391  0.00  0.00    +0.228 C 
ATOM     25  O   UNL     1      -1.119  -8.300  -0.703  0.00  0.00    -0.275 OA
ATOM     26  N   UNL     1      -2.749  -8.124  -2.198  0.00  0.00    -0.282 N 
ATOM     27  H   UNL     1      -3.263  -7.556  -2.794  0.00  0.00    +0.155 HD
BRANCH  26  28
ATOM     28  C   UNL     1      -2.980  -9.512  -2.176  0.00  0.00    +0.077 A 
ATOM     29  C   UNL     1      -2.007 -10.513  -2.313  0.00  0.00    +0.081 A 
ATOM     30  N   UNL     1      -2.601 -11.677  -2.237  0.00  0.00    -0.175 NA
ATOM     31  N   UNL     1      -3.974 -11.461  -2.060  0.00  0.00    -0.270 N 
ATOM     32  C   UNL     1      -4.184 -10.120  -2.026  0.00  0.00    +0.057 A 
ATOM     33  C   UNL     1      -5.514  -9.432  -1.851  0.00  0.00    +0.067 C 
ATOM     34  C   UNL     1      -5.000 -12.499  -1.935  0.00  0.00    +0.172 C 
ATOM     35  C   UNL     1      -0.530 -10.288  -2.508  0.00  0.00    +0.069 C 
ENDBRANCH  26  28
ENDBRANCH  23  24
ENDBRANCH  22  23
ENDBRANCH  10  22
TORSDOF 5
