REMARK  Name = ZINC10079479
REMARK  6 active torsions:
REMARK  status: ('A' for Active; 'I' for Inactive)
REMARK    1  A    between atoms: C_1  and  C_2
REMARK    2  A    between atoms: C_8  and  N_10
REMARK    3  A    between atoms: C_14  and  C_16
REMARK    4  A    between atoms: C_16  and  S_17
REMARK    5  A    between atoms: S_17  and  C_18
REMARK    6  A    between atoms: N_28  and  C_29
REMARK                            x       y       z     vdW  Elec       q    Type
REMARK                         _______ _______ _______ _____ _____    ______ ____
ROOT
ATOM      1  C   UNL     1       1.263  -2.767   1.163  0.00  0.00    +0.177 A 
ATOM      2  N   UNL     1       1.286  -4.075   1.230  0.00  0.00    -0.223 NA
ATOM      3  C   UNL     1       1.288  -4.840   0.120  0.00  0.00    +0.079 A 
ATOM      4  C   UNL     1       1.312  -6.236   0.193  0.00  0.00    +0.028 A 
ATOM      5  C   UNL     1       1.313  -6.973  -0.958  0.00  0.00    +0.002 A 
ATOM      6  C   UNL     1       1.290  -6.356  -2.202  0.00  0.00    +0.001 A 
ATOM      7  C   UNL     1       1.267  -4.993  -2.306  0.00  0.00    +0.015 A 
ATOM      8  C   UNL     1       1.266  -4.216  -1.148  0.00  0.00    +0.065 A 
ATOM      9  C   UNL     1       1.235  -2.748  -1.198  0.00  0.00    +0.267 A 
ATOM     10  O   UNL     1       1.209  -2.153  -2.260  0.00  0.00    -0.267 OA
ATOM     11  N   UNL     1       1.240  -2.082  -0.021  0.00  0.00    -0.253 N 
ENDROOT
BRANCH  11  12
ATOM     12  C   UNL     1       1.217  -0.680  -0.013  0.00  0.00    +0.087 A 
ATOM     13  C   UNL     1       2.406   0.035  -0.021  0.00  0.00    +0.029 A 
ATOM     14  C   UNL     1       2.380   1.417  -0.013  0.00  0.00    +0.002 A 
ATOM     15  C   UNL     1       1.171   2.087   0.002  0.00  0.00    +0.003 A 
ATOM     16  C   UNL     1      -0.017   1.379   0.010  0.00  0.00    +0.040 A 
ATOM     17  C   UNL     1       0.002  -0.004   0.002  0.00  0.00    +0.147 A 
ATOM     18  F   UNL     1      -1.158  -0.697   0.009  0.00  0.00    -0.203 F 
ENDBRANCH  11  12
BRANCH   1  19
ATOM     19  S   UNL     1       1.262  -1.848   2.666  0.00  0.00    -0.078 S 
BRANCH  19  20
ATOM     20  C   UNL     1       1.296  -3.204   3.864  0.00  0.00    +0.173 C 
BRANCH  20  25
ATOM     21  N   UNL     1       1.352  -3.797   8.634  0.00  0.00    -0.296 N 
ATOM     22  C   UNL     1       1.327  -2.967   7.573  0.00  0.00    +0.306 C 
ATOM     23  O   UNL     1       1.308  -1.763   7.743  0.00  0.00    -0.252 OA
ATOM     24  N   UNL     1       1.324  -3.471   6.323  0.00  0.00    -0.239 N 
ATOM     25  C   UNL     1       1.300  -2.641   5.261  0.00  0.00    +0.231 C 
ATOM     26  O   UNL     1       1.281  -1.440   5.431  0.00  0.00    -0.274 OA
ATOM     27  H   UNL     1       1.367  -4.757   8.499  0.00  0.00    +0.151 HD
ATOM     28  H   UNL     1       1.340  -4.431   6.187  0.00  0.00    +0.159 HD
BRANCH  21  35
ATOM     29  C   UNL     1       3.429  -4.542  10.510  0.00  0.00    +0.009 C 
ATOM     30  C   UNL     1       1.991  -4.259  10.949  0.00  0.00    +0.006 C 
ATOM     31  C   UNL     1       1.995  -3.687  12.368  0.00  0.00    +0.005 C 
ATOM     32  C   UNL     1       0.557  -3.404  12.807  0.00  0.00    +0.000 C 
ATOM     33  C   UNL     1      -0.079  -2.393  11.851  0.00  0.00    +0.002 C 
ATOM     34  C   UNL     1      -0.083  -2.966  10.432  0.00  0.00    +0.022 C 
ATOM     35  C   UNL     1       1.355  -3.248   9.993  0.00  0.00    +0.077 C 
ENDBRANCH  21  35
ENDBRANCH  20  25
ENDBRANCH  19  20
ENDBRANCH   1  19
TORSDOF 5
