REMARK  Name = ZINC63667281
REMARK  8 active torsions:
REMARK  status: ('A' for Active; 'I' for Inactive)
REMARK    1  A    between atoms: C_1  and  C_2
REMARK    2  A    between atoms: C_2  and  C_4
REMARK    3  A    between atoms: C_2  and  S_21
REMARK    4  A    between atoms: N_6  and  C_7
REMARK    5  A    between atoms: C_10  and  C_13
REMARK    6  A    between atoms: C_18  and  O_19
REMARK    7  A    between atoms: O_19  and  C_20
REMARK    8  A    between atoms: S_21  and  C_22
REMARK                            x       y       z     vdW  Elec       q    Type
REMARK                         _______ _______ _______ _____ _____    ______ ____
ROOT
ATOM      1  C   UNL     1      -1.412  -0.526   0.013  0.00  0.00    +0.261 C 
ATOM      2  O   UNL     1      -2.020  -0.848  -1.147  0.00  0.00    -0.270 OA
ATOM      3  N   UNL     1      -2.045  -0.665   1.141  0.00  0.00    -0.185 NA
ENDROOT
BRANCH   3   4
ATOM      4  C   UNL     1      -3.326  -1.137   1.151  0.00  0.00    +0.210 C 
ATOM      5  N   UNL     1      -4.055  -1.498   0.135  0.00  0.00    -0.159 NA
ATOM      6  N   UNL     1      -5.345  -1.964   0.261  0.00  0.00    -0.249 N 
ATOM      7  C   UNL     1      -5.860  -2.029   1.647  0.00  0.00    +0.187 C 
ATOM      8  S   UNL     1      -4.387  -1.411   2.560  0.00  0.00    -0.056 S 
ATOM      9  H   UNL     1      -5.878  -2.230  -0.504  0.00  0.00    +0.170 HD
BRANCH   7  10
ATOM     10  C   UNL     1      -7.049  -1.122   1.833  0.00  0.00    +0.026 A 
ATOM     11  C   UNL     1      -7.711  -0.615   0.731  0.00  0.00    +0.010 A 
ATOM     12  C   UNL     1      -8.802   0.217   0.901  0.00  0.00    +0.001 A 
ATOM     13  C   UNL     1      -9.233   0.545   2.174  0.00  0.00    +0.004 A 
ATOM     14  C   UNL     1      -8.575   0.041   3.279  0.00  0.00    +0.046 A 
ATOM     15  C   UNL     1      -7.483  -0.800   3.111  0.00  0.00    +0.126 A 
BRANCH  15  16
ATOM     16  O   UNL     1      -6.837  -1.302   4.196  0.00  0.00    -0.495 OA
ATOM     17  C   UNL     1      -7.339  -0.927   5.480  0.00  0.00    +0.277 C 
ENDBRANCH  15  16
ENDBRANCH   7  10
ENDBRANCH   3   4
BRANCH   1  19
ATOM     18  C   UNL     1      -0.019   1.526   0.010  0.00  0.00    +0.029 C 
ATOM     19  C   UNL     1       0.002  -0.004   0.002  0.00  0.00    +0.137 C 
BRANCH  19  20
ATOM     20  S   UNL     1       0.851  -0.589  -1.490  0.00  0.00    -0.102 S 
BRANCH  20  21
ATOM     21  C   UNL     1       2.558  -0.012  -1.279  0.00  0.00    +0.236 C 
ATOM     22  N   UNL     1       3.113  -0.529  -0.022  0.00  0.00    -0.355 N 
ATOM     23  C   UNL     1       3.422   0.495   0.719  0.00  0.00    +0.061 A 
ATOM     24  C   UNL     1       4.006   0.617   2.062  0.00  0.00    +0.027 A 
ATOM     25  C   UNL     1       4.219   1.840   2.587  0.00  0.00    +0.002 A 
ATOM     26  C   UNL     1       3.904   3.026   1.898  0.00  0.00    +0.002 A 
ATOM     27  C   UNL     1       3.365   3.027   0.662  0.00  0.00    +0.027 A 
ATOM     28  C   UNL     1       3.088   1.750  -0.009  0.00  0.00    +0.061 A 
ATOM     29  N   UNL     1       2.585   1.452  -1.172  0.00  0.00    -0.355 N 
ATOM     30  H   UNL     1       3.227  -1.463   0.214  0.00  0.00    +0.162 HD
ATOM     31  H   UNL     1       2.284   2.082  -1.845  0.00  0.00    +0.162 HD
ENDBRANCH  20  21
ENDBRANCH  19  20
ENDBRANCH   1  19
TORSDOF 6
