REMARK  Name = ZINC05564597
REMARK  8 active torsions:
REMARK  status: ('A' for Active; 'I' for Inactive)
REMARK    1  A    between atoms: C_1  and  C_2
REMARK    2  A    between atoms: C_5  and  C_8
REMARK    3  A    between atoms: C_10  and  C_13
REMARK    4  A    between atoms: C_13  and  O_15
REMARK    5  A    between atoms: O_15  and  C_16
REMARK    6  A    between atoms: C_16  and  C_18
REMARK    7  A    between atoms: C_16  and  C_24
REMARK    8  A    between atoms: N_29  and  C_30
REMARK                            x       y       z     vdW  Elec       q    Type
REMARK                         _______ _______ _______ _____ _____    ______ ____
ROOT
ATOM      1  C   UNL     1      -0.018   1.503   0.010  0.00  0.00    +0.293 C 
ENDROOT
BRANCH   1   2
ATOM      2  C   UNL     1      -0.747   2.002  -1.211  0.00  0.00    +0.266 C 
ATOM      3  O   UNL     1      -0.151   2.635  -2.056  0.00  0.00    -0.271 OA
ATOM      4  N   UNL     1      -2.061   1.744  -1.363  0.00  0.00    -0.237 N 
ATOM      5  C   UNL     1      -2.713   2.191  -2.455  0.00  0.00    +0.306 C 
ATOM      6  O   UNL     1      -2.116   2.826  -3.302  0.00  0.00    -0.252 OA
ATOM      7  N   UNL     1      -4.027   1.934  -2.608  0.00  0.00    -0.302 N 
ATOM      8  C   UNL     1      -4.736   2.419  -3.794  0.00  0.00    +0.129 C 
ATOM      9  H   UNL     1      -2.538   1.238  -0.687  0.00  0.00    +0.159 HD
ATOM     10  H   UNL     1      -4.504   1.427  -1.931  0.00  0.00    +0.150 HD
ENDBRANCH   1   2
BRANCH   1  11
ATOM     11  C   UNL     1       0.002  -0.004   0.002  0.00  0.00    +0.002 A 
ATOM     12  C   UNL     1       0.982  -0.678  -0.702  0.00  0.00    +0.008 A 
ATOM     13  C   UNL     1       1.003  -2.060  -0.706  0.00  0.00    +0.000 A 
ATOM     14  C   UNL     1       0.039  -2.768  -0.013  0.00  0.00    +0.000 A 
ATOM     15  C   UNL     1      -0.944  -2.094   0.687  0.00  0.00    +0.000 A 
ATOM     16  C   UNL     1      -0.963  -0.712   0.694  0.00  0.00    +0.008 A 
ENDBRANCH   1  11
BRANCH   1  17
ATOM     17  O   UNL     1       1.344   2.005   0.000  0.00  0.00    -0.442 OA
BRANCH  17  18
ATOM     18  C   UNL     1       1.929   2.211   1.197  0.00  0.00    +0.359 C 
ATOM     19  O   UNL     1       1.318   1.976   2.221  0.00  0.00    -0.243 OA
BRANCH  18  22
ATOM     20  C   UNL     1       5.222   3.434   0.227  0.00  0.00    +0.109 A 
ATOM     21  N   UNL     1       3.988   2.974   0.154  0.00  0.00    -0.232 NA
ATOM     22  C   UNL     1       3.309   2.719   1.263  0.00  0.00    +0.155 A 
ATOM     23  C   UNL     1       3.922   2.934   2.485  0.00  0.00    +0.082 A 
ATOM     24  S   UNL     1       5.483   3.514   1.991  0.00  0.00    -0.075 S 
BRANCH  20  29
ATOM     25  C   UNL     1       8.836   4.806  -4.037  0.00  0.00    +0.044 C 
ATOM     26  C   UNL     1       7.890   4.447  -2.921  0.00  0.00    -0.050 A 
ATOM     27  C   UNL     1       8.294   4.583  -1.605  0.00  0.00    +0.004 A 
ATOM     28  C   UNL     1       7.432   4.256  -0.578  0.00  0.00    +0.011 A 
ATOM     29  C   UNL     1       6.151   3.787  -0.869  0.00  0.00    +0.007 A 
ATOM     30  C   UNL     1       5.752   3.646  -2.199  0.00  0.00    +0.011 A 
ATOM     31  C   UNL     1       6.621   3.982  -3.216  0.00  0.00    +0.004 A 
ENDBRANCH  20  29
ENDBRANCH  18  22
ENDBRANCH  17  18
ENDBRANCH   1  17
TORSDOF 6
