REMARK  Name = ZINC49060725
REMARK  6 active torsions:
REMARK  status: ('A' for Active; 'I' for Inactive)
REMARK    1  A    between atoms: C_1  and  O_2
REMARK    2  A    between atoms: O_2  and  C_3
REMARK    3  A    between atoms: C_6  and  N_10
REMARK    4  A    between atoms: C_7  and  N_9
REMARK    5  A    between atoms: N_10  and  S_11
REMARK    6  A    between atoms: S_11  and  C_14
REMARK                            x       y       z     vdW  Elec       q    Type
REMARK                         _______ _______ _______ _____ _____    ______ ____
ROOT
ATOM      1  C   UNL     1       0.997  -0.912  -0.717  0.00  0.00    +0.122 A 
ATOM      2  C   UNL     1       1.447  -0.053  -1.709  0.00  0.00    +0.047 A 
ATOM      3  C   UNL     1       1.933  -0.562  -2.899  0.00  0.00    +0.030 A 
ATOM      4  C   UNL     1       1.971  -1.933  -3.104  0.00  0.00    +0.069 A 
ATOM      5  C   UNL     1       1.519  -2.798  -2.108  0.00  0.00    +0.051 A 
ATOM      6  C   UNL     1       1.037  -2.284  -0.914  0.00  0.00    +0.070 A 
ENDROOT
BRANCH   5   7
ATOM      7  N   UNL     1       1.555  -4.182  -2.312  0.00  0.00    -0.356 N 
ATOM      8  H   UNL     1       1.895  -4.541  -3.147  0.00  0.00    +0.142 HD
ATOM      9  H   UNL     1       1.240  -4.783  -1.619  0.00  0.00    +0.142 HD
ENDBRANCH   5   7
BRANCH   1  11
ATOM     10  C   UNL     1       0.506   1.015   0.588  0.00  0.00    +0.277 C 
ATOM     11  O   UNL     1       0.519  -0.407   0.452  0.00  0.00    -0.495 OA
ENDBRANCH   1  11
BRANCH   4  12
ATOM     12  N   UNL     1       2.463  -2.449  -4.312  0.00  0.00    -0.214 N 
ATOM     13  H   UNL     1       2.067  -3.247  -4.696  0.00  0.00    +0.174 HD
BRANCH  12  14
ATOM     14  S   UNL     1       3.720  -1.696  -5.083  0.00  0.00    +0.080 S 
ATOM     15  O   UNL     1       4.071  -2.519  -6.188  0.00  0.00    -0.149 OA
ATOM     16  O   UNL     1       3.345  -0.334  -5.237  0.00  0.00    -0.149 OA
BRANCH  14  17
ATOM     17  C   UNL     1       5.096  -1.718  -3.982  0.00  0.00    +0.160 A 
ATOM     18  C   UNL     1       6.343  -1.218  -4.163  0.00  0.00    +0.052 A 
ATOM     19  C   UNL     1       7.272  -1.351  -3.149  0.00  0.00    +0.025 A 
ATOM     20  C   UNL     1       6.909  -1.978  -2.003  0.00  0.00    +0.048 A 
ATOM     21  S   UNL     1       5.206  -2.397  -2.335  0.00  0.00    -0.076 S 
ATOM     22 BR   UNL     1       6.804  -0.352  -5.780  0.00  0.00    -0.048 Br
ENDBRANCH  14  17
ENDBRANCH  12  14
ENDBRANCH   4  12
TORSDOF 5
