REMARK  Name = ZINC13880847
REMARK  4 active torsions:
REMARK  status: ('A' for Active; 'I' for Inactive)
REMARK    1  A    between atoms: C_6  and  C_11
REMARK    2  A    between atoms: C_11  and  N_12
REMARK    3  A    between atoms: C_14  and  C_21
REMARK    4  A    between atoms: N_27  and  C_28
REMARK                            x       y       z     vdW  Elec       q    Type
REMARK                         _______ _______ _______ _____ _____    ______ ____
ROOT
ATOM      1  N   UNL     1       5.084  -2.283   1.456  0.00  0.00    -0.342 N 
ATOM      2  C   UNL     1       6.010  -1.635   2.209  0.00  0.00    +0.095 A 
ATOM      3  C   UNL     1       6.369  -2.418   3.271  0.00  0.00    +0.001 A 
ATOM      4  C   UNL     1       5.587  -3.664   3.154  0.00  0.00    +0.007 A 
ATOM      5  C   UNL     1       4.797  -3.517   2.002  0.00  0.00    +0.050 A 
ATOM      6  C   UNL     1       3.936  -4.545   1.630  0.00  0.00    +0.026 A 
ATOM      7  C   UNL     1       3.863  -5.690   2.393  0.00  0.00    +0.002 A 
ATOM      8  C   UNL     1       4.641  -5.832   3.532  0.00  0.00    +0.001 A 
ATOM      9  C   UNL     1       5.506  -4.829   3.912  0.00  0.00    +0.010 A 
ENDROOT
BRANCH   3  10
ATOM     10  C   UNL     1       7.337  -2.087   4.316  0.00  0.00    +0.030 C 
ATOM     11  C   UNL     1       8.492  -1.442   3.994  0.00  0.00    +0.078 C 
ATOM     12  C   UNL     1       9.016  -1.116   2.708  0.00  0.00    +0.256 C 
ATOM     13  O   UNL     1       8.414  -1.419   1.694  0.00  0.00    -0.269 OA
ATOM     14  N   UNL     1      10.172  -0.478   2.644  0.00  0.00    -0.260 N 
ATOM     15  C   UNL     1      10.842  -0.142   3.804  0.00  0.00    +0.166 C 
ATOM     16  N   UNL     1      11.989   0.485   3.940  0.00  0.00    -0.226 NA
ATOM     17  S   UNL     1       9.751  -0.771   5.070  0.00  0.00    -0.049 S 
ATOM     18  H   UNL     1      10.550  -0.246   1.782  0.00  0.00    +0.157 HD
BRANCH  16  19
ATOM     19  C   UNL     1      12.680   0.898   2.833  0.00  0.00    +0.067 A 
ATOM     20  C   UNL     1      12.829   0.042   1.740  0.00  0.00    +0.030 A 
ATOM     21  C   UNL     1      13.527   0.463   0.627  0.00  0.00    +0.040 A 
ATOM     22  C   UNL     1      14.079   1.733   0.592  0.00  0.00    +0.124 A 
ATOM     23  C   UNL     1      13.934   2.588   1.673  0.00  0.00    +0.040 A 
ATOM     24  C   UNL     1      13.233   2.180   2.789  0.00  0.00    +0.030 A 
ATOM     25  F   UNL     1      14.761   2.140  -0.501  0.00  0.00    -0.205 F 
ENDBRANCH  16  19
ENDBRANCH   3  10
BRANCH   1  26
ATOM     26  C   UNL     1       4.471  -1.745   0.239  0.00  0.00    +0.157 C 
BRANCH  26  32
ATOM     27  C   UNL     1      -0.497   2.047   1.865  0.00  0.00    +0.001 A 
ATOM     28  C   UNL     1       0.678   2.796   1.881  0.00  0.00    +0.001 A 
ATOM     29  C   UNL     1       1.875   2.227   1.572  0.00  0.00    +0.008 A 
ATOM     30  C   UNL     1       1.931   0.864   1.233  0.00  0.00    -0.018 A 
ATOM     31  C   UNL     1       3.148   0.241   0.909  0.00  0.00    +0.014 A 
ATOM     32  C   UNL     1       3.164  -1.080   0.586  0.00  0.00    -0.027 A 
ATOM     33  C   UNL     1       1.988  -1.829   0.570  0.00  0.00    +0.006 A 
ATOM     34  C   UNL     1       0.791  -1.260   0.878  0.00  0.00    +0.009 A 
ATOM     35  C   UNL     1       0.736   0.103   1.217  0.00  0.00    -0.018 A 
ATOM     36  C   UNL     1      -0.482   0.726   1.541  0.00  0.00    +0.008 A 
ENDBRANCH  26  32
ENDBRANCH   1  26
TORSDOF 4
