REMARK  Name = ZINC40280488
REMARK  2 active torsions:
REMARK  status: ('A' for Active; 'I' for Inactive)
REMARK    1  A    between atoms: C_6  and  C_7
REMARK    2  A    between atoms: C_7  and  C_9
REMARK                            x       y       z     vdW  Elec       q    Type
REMARK                         _______ _______ _______ _____ _____    ______ ____
ROOT
ATOM      1  C   UNL     1      -0.017   1.378   0.010  0.00  0.00    +0.008 A 
ATOM      2  C   UNL     1       1.170   2.091   0.002  0.00  0.00    +0.050 A 
ATOM      3  C   UNL     1       2.377   1.413  -0.013  0.00  0.00    +0.162 A 
ATOM      4  C   UNL     1       2.396   0.025  -0.020  0.00  0.00    +0.162 A 
ATOM      5  C   UNL     1       1.207  -0.684  -0.013  0.00  0.00    +0.054 A 
ATOM      6  C   UNL     1       0.002  -0.004   0.002  0.00  0.00    -0.028 A 
ATOM      7  O   UNL     1       3.591  -0.632  -0.034  0.00  0.00    -0.488 OA
ATOM      8  C   UNL     1       4.358  -0.510  -1.234  0.00  0.00    +0.232 C 
ATOM      9  C   UNL     1       5.186   0.764  -1.217  0.00  0.00    +0.082 C 
ATOM     10  C   UNL     1       4.323   2.016  -1.220  0.00  0.00    +0.232 C 
ATOM     11  O   UNL     1       3.554   2.104  -0.019  0.00  0.00    -0.488 OA
ENDROOT
BRANCH   6  12
ATOM     12  C   UNL     1      -1.294  -0.773   0.010  0.00  0.00    +0.115 C 
ATOM     13 BR   UNL     1      -2.386  -0.201   1.542  0.00  0.00    -0.080 Br
BRANCH  12  14
ATOM     14  C   UNL     1      -2.056  -0.502  -1.288  0.00  0.00    +0.136 C 
ATOM     15  C   UNL     1      -3.384  -1.289  -1.291  0.00  0.00    +0.035 C 
ATOM     16  C   UNL     1      -3.484  -1.761  -2.767  0.00  0.00    +0.031 C 
ATOM     17  C   UNL     1      -1.990  -1.991  -3.105  0.00  0.00    +0.160 C 
ATOM     18  O   UNL     1      -1.283  -0.950  -2.408  0.00  0.00    -0.375 OA
ENDBRANCH  12  14
ENDBRANCH   6  12
TORSDOF 2
