REMARK  Name = ZINC00939342
REMARK  9 active torsions:
REMARK  status: ('A' for Active; 'I' for Inactive)
REMARK    1  A    between atoms: C_1  and  C_2
REMARK    2  A    between atoms: C_3  and  N_15
REMARK    3  A    between atoms: N_6  and  C_9
REMARK    4  A    between atoms: N_7  and  C_8
REMARK    5  A    between atoms: N_15  and  C_16
REMARK    6  A    between atoms: C_16  and  N_18
REMARK    7  A    between atoms: N_18  and  N_19
REMARK    8  A    between atoms: C_20  and  C_21
REMARK    9  A    between atoms: C_24  and  C_26
REMARK                            x       y       z     vdW  Elec       q    Type
REMARK                         _______ _______ _______ _____ _____    ______ ____
ROOT
ATOM      1  C   UNL     1      -0.493   0.654  -0.883  0.00  0.00    +0.154 C 
ATOM      2  S   UNL     1       0.782  -0.292  -1.524  0.00  0.00    -0.017 S 
ENDROOT
BRANCH   1   3
ATOM      3  N   UNL     1      -0.227   1.844  -0.310  0.00  0.00    -0.290 N 
ATOM      4  H   UNL     1      -0.954   2.411  -0.009  0.00  0.00    +0.154 HD
BRANCH   3   7
ATOM      5  C   UNL     1       1.048   2.651   2.361  0.00  0.00    +0.067 C 
ATOM      6  C   UNL     1       1.704   2.630   1.005  0.00  0.00    +0.059 A 
ATOM      7  C   UNL     1       1.108   2.268  -0.153  0.00  0.00    +0.121 A 
ATOM      8  C   UNL     1       2.106   2.403  -1.215  0.00  0.00    +0.293 A 
ATOM      9  O   UNL     1       1.941   2.171  -2.399  0.00  0.00    -0.264 OA
ATOM     10  N   UNL     1       3.244   2.833  -0.632  0.00  0.00    -0.216 N 
ATOM     11  N   UNL     1       3.004   2.973   0.740  0.00  0.00    -0.282 N 
ATOM     12  C   UNL     1       3.984   3.419   1.733  0.00  0.00    +0.171 C 
BRANCH  10  13
ATOM     13  C   UNL     1       4.453   3.095  -1.285  0.00  0.00    +0.067 A 
ATOM     14  C   UNL     1       5.116   4.296  -1.067  0.00  0.00    +0.028 A 
ATOM     15  C   UNL     1       6.312   4.549  -1.708  0.00  0.00    +0.002 A 
ATOM     16  C   UNL     1       6.845   3.613  -2.576  0.00  0.00    +0.000 A 
ATOM     17  C   UNL     1       6.185   2.419  -2.799  0.00  0.00    +0.002 A 
ATOM     18  C   UNL     1       4.991   2.157  -2.157  0.00  0.00    +0.028 A 
ENDBRANCH  10  13
ENDBRANCH   3   7
ENDBRANCH   1   3
BRANCH   1  19
ATOM     19  N   UNL     1      -1.763   0.208  -0.953  0.00  0.00    -0.218 N 
ATOM     20  H   UNL     1      -1.955  -0.649  -1.365  0.00  0.00    +0.176 HD
BRANCH  19  21
ATOM     21  N   UNL     1      -2.807   0.982  -0.428  0.00  0.00    -0.185 NA
ATOM     22  C   UNL     1      -4.033   0.552  -0.495  0.00  0.00    +0.176 C 
BRANCH  22  23
ATOM     23  C   UNL     1      -5.124   1.361   0.053  0.00  0.00    +0.148 A 
ATOM     24  C   UNL     1      -6.460   1.028   0.044  0.00  0.00    +0.051 A 
ATOM     25  C   UNL     1      -7.143   2.080   0.671  0.00  0.00    +0.050 A 
ATOM     26  C   UNL     1      -6.209   3.007   1.027  0.00  0.00    +0.136 A 
ATOM     27  O   UNL     1      -4.995   2.563   0.649  0.00  0.00    -0.454 OA
BRANCH  26  28
ATOM     28  C   UNL     1      -6.484   4.286   1.712  0.00  0.00    +0.017 A 
ATOM     29  C   UNL     1      -7.794   4.635   2.046  0.00  0.00    +0.012 A 
ATOM     30  C   UNL     1      -8.043   5.829   2.691  0.00  0.00    +0.016 A 
ATOM     31  C   UNL     1      -6.998   6.685   2.996  0.00  0.00    +0.018 A 
ATOM     32  C   UNL     1      -5.698   6.347   2.663  0.00  0.00    +0.016 A 
ATOM     33  C   UNL     1      -5.434   5.154   2.023  0.00  0.00    +0.012 A 
ATOM     34 BR   UNL     1      -7.350   8.324   3.872  0.00  0.00    -0.050 Br
ENDBRANCH  26  28
ENDBRANCH  22  23
ENDBRANCH  19  21
ENDBRANCH   1  19
TORSDOF 7
