REMARK  Name = ZINC63831623
REMARK  8 active torsions:
REMARK  status: ('A' for Active; 'I' for Inactive)
REMARK    1  A    between atoms: C_1  and  O_2
REMARK    2  A    between atoms: O_2  and  C_3
REMARK    3  A    between atoms: C_6  and  C_9
REMARK    4  A    between atoms: C_9  and  C_11
REMARK    5  A    between atoms: C_9  and  C_28
REMARK    6  A    between atoms: C_11  and  N_12
REMARK    7  A    between atoms: C_13  and  C_15
REMARK    8  A    between atoms: C_15  and  N_16
REMARK                            x       y       z     vdW  Elec       q    Type
REMARK                         _______ _______ _______ _____ _____    ______ ____
ROOT
ATOM      1  C   UNL     1       2.587  -2.550   4.310  0.00  0.00    +0.064 C 
ENDROOT
BRANCH   1   2
ATOM      2  C   UNL     1       1.604  -3.434   5.035  0.00  0.00    -0.033 C 
ATOM      3  C   UNL     1       1.228  -3.340   6.330  0.00  0.00    -0.000 A 
ATOM      4  C   UNL     1       1.607  -2.424   7.412  0.00  0.00    +0.010 A 
ATOM      5  C   UNL     1       1.048  -2.583   8.633  0.00  0.00    +0.001 A 
ATOM      6  C   UNL     1       0.119  -3.600   8.891  0.00  0.00    +0.002 A 
ATOM      7  C   UNL     1      -0.279  -4.481   7.949  0.00  0.00    +0.026 A 
ATOM      8  C   UNL     1       0.244  -4.405   6.628  0.00  0.00    +0.043 A 
ATOM      9  N   UNL     1       0.020  -5.129   5.558  0.00  0.00    -0.380 N 
ATOM     10  C   UNL     1       0.834  -4.601   4.458  0.00  0.00    +0.145 C 
ATOM     11  H   UNL     1      -0.585  -5.885   5.503  0.00  0.00    +0.160 HD
ENDBRANCH   1   2
BRANCH   1  15
ATOM     12  C   UNL     1       0.626  -0.618   1.042  0.00  0.00    +0.120 A 
ATOM     13  C   UNL     1       1.202   0.138   2.051  0.00  0.00    +0.046 A 
ATOM     14  C   UNL     1       1.835  -0.488   3.107  0.00  0.00    +0.008 A 
ATOM     15  C   UNL     1       1.895  -1.869   3.158  0.00  0.00    -0.038 A 
ATOM     16  C   UNL     1       1.322  -2.625   2.152  0.00  0.00    +0.008 A 
ATOM     17  C   UNL     1       0.682  -2.003   1.098  0.00  0.00    +0.046 A 
BRANCH  12  19
ATOM     18  C   UNL     1      -0.017   1.425   0.010  0.00  0.00    +0.277 C 
ATOM     19  O   UNL     1       0.002  -0.004   0.002  0.00  0.00    -0.495 OA
ENDBRANCH  12  19
ENDBRANCH   1  15
BRANCH   1  20
ATOM     20  C   UNL     1       3.743  -3.400   3.781  0.00  0.00    +0.116 C 
BRANCH  20  21
ATOM     21  N   UNL     1       4.489  -3.967   4.907  0.00  0.00    -0.313 N 
ATOM     22  C   UNL     1       5.557  -4.756   4.680  0.00  0.00    +0.231 C 
ATOM     23  O   UNL     1       5.902  -4.997   3.542  0.00  0.00    -0.274 OA
ATOM     24  H   UNL     1       4.213  -3.774   5.817  0.00  0.00    +0.149 HD
BRANCH  22  25
ATOM     25  C   UNL     1       6.324  -5.339   5.839  0.00  0.00    +0.213 C 
BRANCH  25  26
ATOM     26  N   UNL     1       7.431  -6.153   5.332  0.00  0.00    -0.215 N 
ATOM     27  C   UNL     1       7.339  -7.470   5.053  0.00  0.00    +0.247 C 
ATOM     28  O   UNL     1       6.362  -8.178   5.170  0.00  0.00    -0.273 OA
ATOM     29  C   UNL     1       8.710  -7.876   4.564  0.00  0.00    +0.113 C 
ATOM     30  C   UNL     1       8.633  -8.388   3.130  0.00  0.00    +0.035 C 
ATOM     31  C   UNL     1      10.035  -8.766   2.644  0.00  0.00    +0.003 C 
ATOM     32  C   UNL     1      10.616  -9.846   3.559  0.00  0.00    +0.000 C 
ATOM     33  C   UNL     1      10.709  -9.309   4.989  0.00  0.00    +0.003 C 
ATOM     34  C   UNL     1       9.310  -8.934   5.483  0.00  0.00    +0.035 C 
ATOM     35  N   UNL     1       9.493  -6.636   4.626  0.00  0.00    -0.285 N 
ATOM     36  C   UNL     1       8.659  -5.681   5.082  0.00  0.00    +0.310 C 
ATOM     37  O   UNL     1       8.986  -4.523   5.251  0.00  0.00    -0.252 OA
ATOM     38  H   UNL     1      10.426  -6.525   4.383  0.00  0.00    +0.151 HD
ENDBRANCH  25  26
ENDBRANCH  22  25
ENDBRANCH  20  21
ENDBRANCH   1  20
TORSDOF 7
