REMARK  Name = ZINC67033213
REMARK  7 active torsions:
REMARK  status: ('A' for Active; 'I' for Inactive)
REMARK    1  A    between atoms: C_1  and  C_2
REMARK    2  A    between atoms: C_5  and  N_24
REMARK    3  A    between atoms: C_7  and  C_8
REMARK    4  A    between atoms: N_10  and  C_11
REMARK    5  A    between atoms: C_16  and  O_17
REMARK    6  A    between atoms: O_17  and  C_18
REMARK    7  A    between atoms: C_18  and  C_19
REMARK                            x       y       z     vdW  Elec       q    Type
REMARK                         _______ _______ _______ _____ _____    ______ ____
ROOT
ATOM      1  C   UNL     1       0.230   0.019   2.482  0.00  0.00    +0.249 C 
ATOM      2  O   UNL     1       0.122   1.230   2.503  0.00  0.00    -0.270 OA
ATOM      3  N   UNL     1       0.465  -0.656   3.624  0.00  0.00    -0.279 N 
ATOM      4  H   UNL     1       0.632  -1.611   3.598  0.00  0.00    +0.155 HD
ENDROOT
BRANCH   1  11
ATOM      5  C   UNL     1      -0.093   1.496   0.015  0.00  0.00    +0.044 C 
ATOM      6  C   UNL     1      -0.053  -0.011   0.007  0.00  0.00    -0.038 A 
ATOM      7  C   UNL     1      -0.164  -0.700  -1.183  0.00  0.00    +0.006 A 
ATOM      8  C   UNL     1      -0.127  -2.083  -1.192  0.00  0.00    +0.033 A 
ATOM      9  C   UNL     1       0.022  -2.784  -0.008  0.00  0.00    +0.127 A 
ATOM     10  C   UNL     1       0.134  -2.108   1.188  0.00  0.00    +0.046 A 
ATOM     11  C   UNL     1       0.104  -0.712   1.204  0.00  0.00    +0.042 A 
BRANCH   9  12
ATOM     12  N   UNL     1       0.061  -4.264  -0.027  0.00  0.00    +0.056 N 
ATOM     13  O   UNL     1      -0.038  -4.858  -1.075  0.00  0.00    -0.126 OA
ATOM     14  O   UNL     1       0.191  -4.878   1.006  0.00  0.00    -0.126 OA
ENDBRANCH   9  12
ENDBRANCH   1  11
BRANCH   3  15
ATOM     15  C   UNL     1       0.469   0.021   4.850  0.00  0.00    +0.077 A 
ATOM     16  C   UNL     1      -0.234   1.210   4.990  0.00  0.00    +0.047 A 
ATOM     17  C   UNL     1      -0.229   1.876   6.202  0.00  0.00    +0.043 A 
ATOM     18  C   UNL     1       0.476   1.361   7.276  0.00  0.00    +0.024 A 
ATOM     19  C   UNL     1       1.177   0.177   7.143  0.00  0.00    +0.049 A 
ATOM     20  C   UNL     1       1.173  -0.499   5.934  0.00  0.00    +0.142 A 
ATOM     21 CL   UNL     1      -1.107   3.363   6.376  0.00  0.00    -0.083 Cl
BRANCH  20  22
ATOM     22  O   UNL     1       1.858  -1.667   5.803  0.00  0.00    -0.481 OA
BRANCH  22  23
ATOM     23  C   UNL     1       2.558  -2.141   6.956  0.00  0.00    +0.342 C 
BRANCH  23  24
ATOM     24  C   UNL     1       3.263  -3.456   6.620  0.00  0.00    +0.424 C 
ATOM     25  F   UNL     1       4.172  -3.244   5.577  0.00  0.00    -0.167 F 
ATOM     26  F   UNL     1       3.948  -3.920   7.748  0.00  0.00    -0.167 F 
ATOM     27  F   UNL     1       2.315  -4.406   6.226  0.00  0.00    -0.167 F 
ENDBRANCH  23  24
ENDBRANCH  22  23
ENDBRANCH  20  22
ENDBRANCH   3  15
TORSDOF 6
