REMARK  Name = ZINC12600706
REMARK  10 active torsions:
REMARK  status: ('A' for Active; 'I' for Inactive)
REMARK    1  A    between atoms: C_1  and  C_2
REMARK    2  A    between atoms: C_7  and  N_12
REMARK    3  A    between atoms: C_9  and  C_11
REMARK    4  A    between atoms: C_13  and  C_15
REMARK    5  A    between atoms: C_15  and  S_16
REMARK    6  A    between atoms: S_16  and  C_17
REMARK    7  A    between atoms: C_20  and  C_32
REMARK    8  A    between atoms: N_21  and  C_22
REMARK    9  A    between atoms: C_25  and  S_28
REMARK   10  A    between atoms: S_28  and  C_29
REMARK                            x       y       z     vdW  Elec       q    Type
REMARK                         _______ _______ _______ _____ _____    ______ ____
ROOT
ATOM      1  C   UNL     1      -0.376  -5.014   0.971  0.00  0.00    +0.197 A 
ATOM      2  N   UNL     1      -0.178  -6.245   0.553  0.00  0.00    -0.122 NA
ATOM      3  N   UNL     1       0.354  -6.235  -0.616  0.00  0.00    -0.128 NA
ATOM      4  C   UNL     1       0.524  -4.998  -1.022  0.00  0.00    +0.171 A 
ATOM      5  N   UNL     1       0.059  -4.176  -0.019  0.00  0.00    -0.270 N 
ENDROOT
BRANCH   5   6
ATOM      6  C   UNL     1       0.040  -2.773  -0.013  0.00  0.00    +0.051 A 
ATOM      7  C   UNL     1      -1.172  -2.096   0.002  0.00  0.00    +0.027 A 
ATOM      8  C   UNL     1      -1.192  -0.716   0.010  0.00  0.00    +0.017 A 
ATOM      9  C   UNL     1       0.002  -0.004   0.002  0.00  0.00    +0.013 A 
ATOM     10  C   UNL     1       1.215  -0.683  -0.019  0.00  0.00    +0.017 A 
ATOM     11  C   UNL     1       1.233  -2.063  -0.020  0.00  0.00    +0.027 A 
BRANCH   9  12
ATOM     12  S   UNL     1      -0.022   1.758   0.012  0.00  0.00    -0.056 S 
BRANCH  12  13
ATOM     13  C   UNL     1       1.732   2.220  -0.003  0.00  0.00    +0.404 C 
ATOM     14  F   UNL     1       2.362   1.696   1.131  0.00  0.00    -0.197 F 
ATOM     15  F   UNL     1       2.340   1.708  -1.153  0.00  0.00    -0.197 F 
ENDBRANCH  12  13
ENDBRANCH   9  12
ENDBRANCH   5   6
BRANCH   4  16
ATOM     16  C   UNL     1       1.106  -4.568  -2.311  0.00  0.00    +0.038 A 
ATOM     17  C   UNL     1       1.821  -5.473  -3.106  0.00  0.00    +0.014 A 
ATOM     18  C   UNL     1       2.345  -5.020  -4.304  0.00  0.00    +0.020 A 
ATOM     19  C   UNL     1       2.148  -3.702  -4.675  0.00  0.00    +0.111 A 
ATOM     20  N   UNL     1       1.470  -2.872  -3.905  0.00  0.00    -0.263 NA
ATOM     21  C   UNL     1       0.948  -3.256  -2.759  0.00  0.00    +0.122 A 
ENDBRANCH   4  16
BRANCH   1  22
ATOM     22  S   UNL     1      -1.073  -4.533   2.516  0.00  0.00    -0.076 S 
BRANCH  22  23
ATOM     23  C   UNL     1      -1.380  -6.162   3.243  0.00  0.00    +0.173 C 
BRANCH  23  25
ATOM     24  N   UNL     1      -2.311  -7.080   5.343  0.00  0.00    -0.312 N 
ATOM     25  C   UNL     1      -1.994  -5.995   4.609  0.00  0.00    +0.224 C 
ATOM     26  O   UNL     1      -2.203  -4.884   5.048  0.00  0.00    -0.275 OA
ATOM     27  H   UNL     1      -2.144  -7.969   4.991  0.00  0.00    +0.149 HD
BRANCH  24  33
ATOM     28  C   UNL     1      -5.261  -6.774   8.409  0.00  0.00    +0.008 C 
ATOM     29  C   UNL     1      -4.342  -7.996   8.409  0.00  0.00    -0.009 C 
ATOM     30  C   UNL     1      -3.233  -7.801   9.445  0.00  0.00    +0.003 C 
ATOM     31  C   UNL     1      -2.422  -6.552   9.094  0.00  0.00    +0.002 C 
ATOM     32  C   UNL     1      -1.799  -6.722   7.707  0.00  0.00    +0.022 C 
ATOM     33  C   UNL     1      -2.907  -6.917   6.671  0.00  0.00    +0.076 C 
ATOM     34  C   UNL     1      -3.719  -8.166   7.022  0.00  0.00    +0.009 C 
ATOM     35  C   UNL     1      -4.827  -8.362   5.985  0.00  0.00    +0.009 C 
ENDBRANCH  24  33
ENDBRANCH  23  25
ENDBRANCH  22  23
ENDBRANCH   1  22
TORSDOF 8
