REMARK  Name = ZINC12776032
REMARK  16 active torsions:
REMARK  status: ('A' for Active; 'I' for Inactive)
REMARK    1  A    between atoms: C_1  and  C_2
REMARK    2  A    between atoms: C_2  and  O_3
REMARK    3  A    between atoms: O_3  and  C_4
REMARK    4  A    between atoms: C_4  and  C_5
REMARK    5  A    between atoms: C_5  and  C_6
REMARK    6  A    between atoms: C_6  and  N_7
REMARK    7  A    between atoms: C_11  and  C_34
REMARK    8  A    between atoms: C_12  and  C_33
REMARK    9  A    between atoms: C_16  and  S_17
REMARK   10  A    between atoms: S_17  and  C_18
REMARK   11  A    between atoms: C_18  and  C_19
REMARK   12  A    between atoms: C_20  and  C_28
REMARK   13  A    between atoms: C_21  and  C_27
REMARK   14  A    between atoms: C_28  and  O_30
REMARK   15  A    between atoms: O_30  and  C_31
REMARK   16  A    between atoms: C_31  and  C_32
REMARK                            x       y       z     vdW  Elec       q    Type
REMARK                         _______ _______ _______ _____ _____    ______ ____
ROOT
ATOM      1  N   UNL     1       0.300  -1.400  -0.403  0.00  0.00    -0.287 N 
ATOM      2  C   UNL     1       1.104  -0.320  -0.417  0.00  0.00    +0.263 A 
ATOM      3  O   UNL     1       2.309  -0.449  -0.546  0.00  0.00    -0.267 OA
ATOM      4  C   UNL     1       0.525   0.981  -0.280  0.00  0.00    +0.075 A 
ATOM      5  C   UNL     1       1.175   2.280  -0.265  0.00  0.00    -0.026 A 
ATOM      6  C   UNL     1       0.428   3.384  -0.122  0.00  0.00    -0.008 A 
ATOM      7  S   UNL     1      -1.232   2.748   0.004  0.00  0.00    -0.073 S 
ATOM      8  C   UNL     1      -0.875   1.016  -0.138  0.00  0.00    +0.117 A 
ATOM      9  N   UNL     1      -1.611  -0.089  -0.132  0.00  0.00    -0.216 NA
ATOM     10  C   UNL     1      -1.051  -1.275  -0.261  0.00  0.00    +0.173 A 
ATOM     11  C   UNL     1       0.884   4.820  -0.080  0.00  0.00    +0.052 C 
ATOM     12  C   UNL     1       2.671   2.384  -0.408  0.00  0.00    +0.045 C 
ENDROOT
BRANCH   1  13
ATOM     13  C   UNL     1       0.888  -2.735  -0.543  0.00  0.00    +0.129 C 
BRANCH  13  14
ATOM     14  C   UNL     1       1.236  -3.287   0.841  0.00  0.00    +0.050 C 
BRANCH  14  15
ATOM     15  C   UNL     1       1.849  -4.681   0.694  0.00  0.00    +0.161 C 
BRANCH  15  16
ATOM     16  O   UNL     1       2.174  -5.196   1.986  0.00  0.00    -0.380 OA
BRANCH  16  18
ATOM     17  C   UNL     1       3.062  -6.950   3.393  0.00  0.00    +0.034 C 
ATOM     18  C   UNL     1       2.757  -6.501   1.962  0.00  0.00    +0.156 C 
ENDBRANCH  16  18
ENDBRANCH  15  16
ENDBRANCH  14  15
ENDBRANCH  13  14
ENDBRANCH   1  13
BRANCH  10  19
ATOM     19  S   UNL     1      -2.061  -2.719  -0.248  0.00  0.00    -0.082 S 
BRANCH  19  20
ATOM     20  C   UNL     1      -3.691  -1.960  -0.039  0.00  0.00    +0.128 C 
BRANCH  20  21
ATOM     21  C   UNL     1      -4.745  -3.037  -0.000  0.00  0.00    +0.034 C 
ATOM     22  C   UNL     1      -5.231  -3.448   1.191  0.00  0.00    +0.074 C 
ATOM     23  C   UNL     1      -6.290  -4.532   1.184  0.00  0.00    +0.110 C 
ATOM     24  N   UNL     1      -6.704  -5.052  -0.130  0.00  0.00    -0.292 N 
ATOM     25  C   UNL     1      -6.125  -4.540  -1.234  0.00  0.00    +0.304 C 
ATOM     26  O   UNL     1      -6.460  -4.963  -2.323  0.00  0.00    -0.253 OA
ATOM     27  N   UNL     1      -5.196  -3.578  -1.170  0.00  0.00    -0.272 N 
ATOM     28  C   UNL     1      -5.766  -5.707   2.013  0.00  0.00    +0.033 C 
ATOM     29  H   UNL     1      -7.377  -5.747  -0.199  0.00  0.00    +0.151 HD
ATOM     30  H   UNL     1      -4.821  -3.249  -2.002  0.00  0.00    +0.156 HD
BRANCH  22  31
ATOM     31  C   UNL     1      -4.769  -2.884   2.403  0.00  0.00    +0.338 C 
ATOM     32  O   UNL     1      -3.821  -2.121   2.397  0.00  0.00    -0.245 OA
BRANCH  31  33
ATOM     33  O   UNL     1      -5.378  -3.194   3.567  0.00  0.00    -0.462 OA
BRANCH  33  34
ATOM     34  C   UNL     1      -4.858  -2.588   4.752  0.00  0.00    +0.229 C 
ATOM     35  C   UNL     1      -5.671  -3.055   5.961  0.00  0.00    +0.048 C 
ENDBRANCH  33  34
ENDBRANCH  31  33
ENDBRANCH  22  31
ENDBRANCH  20  21
ENDBRANCH  19  20
ENDBRANCH  10  19
TORSDOF 11
