REMARK  Name = ZINC37136694
REMARK  4 active torsions:
REMARK  status: ('A' for Active; 'I' for Inactive)
REMARK    1  A    between atoms: C_1  and  N_2
REMARK    2  A    between atoms: C_7  and  N_12
REMARK    3  A    between atoms: N_12  and  C_13
REMARK    4  A    between atoms: C_16  and  N_19
REMARK                            x       y       z     vdW  Elec       q    Type
REMARK                         _______ _______ _______ _____ _____    ______ ____
ROOT
ATOM      1  C   UNL     1       0.642  -5.177  -0.134  0.00  0.00    +0.028 A 
ATOM      2  C   UNL     1      -0.590  -5.072   0.498  0.00  0.00    +0.025 A 
ATOM      3  C   UNL     1      -0.958  -6.000   1.452  0.00  0.00    +0.025 A 
ATOM      4  C   UNL     1      -0.097  -7.038   1.779  0.00  0.00    +0.035 A 
ATOM      5  C   UNL     1       1.135  -7.144   1.147  0.00  0.00    +0.025 A 
ATOM      6  C   UNL     1       1.501  -6.219   0.189  0.00  0.00    +0.025 A 
ENDROOT
BRANCH   4   7
ATOM      7  N   UNL     1      -0.470  -7.980   2.748  0.00  0.00    -0.270 N 
ATOM      8  C   UNL     1      -1.764  -8.333   2.881  0.00  0.00    +0.301 C 
ATOM      9  O   UNL     1      -2.594  -7.908   2.100  0.00  0.00    -0.253 OA
ATOM     10  N   UNL     1      -2.139  -9.156   3.881  0.00  0.00    -0.313 N 
ATOM     11  H   UNL     1       0.203  -8.378   3.322  0.00  0.00    +0.156 HD
ATOM     12  H   UNL     1      -1.477  -9.494   4.504  0.00  0.00    +0.146 HD
ATOM     13  H   UNL     1      -3.070  -9.409   3.977  0.00  0.00    +0.146 HD
ENDBRANCH   4   7
BRANCH   1  14
ATOM     14  N   UNL     1       1.015  -4.237  -1.101  0.00  0.00    -0.337 N 
ATOM     15  H   UNL     1       1.874  -4.312  -1.545  0.00  0.00    +0.147 HD
BRANCH  14  22
ATOM     16  C   UNL     1       0.683   1.493   0.346  0.00  0.00    +0.172 C 
ATOM     17  N   UNL     1       0.552   0.035   0.280  0.00  0.00    -0.271 N 
ATOM     18  C   UNL     1       0.372  -0.693  -0.835  0.00  0.00    +0.044 A 
ATOM     19  C   UNL     1       0.302  -1.999  -0.472  0.00  0.00    +0.013 A 
ATOM     20  C   UNL     1       0.441  -2.069   0.913  0.00  0.00    +0.140 A 
ATOM     21  N   UNL     1       0.597  -0.849   1.368  0.00  0.00    -0.179 NA
ATOM     22  C   UNL     1       0.108  -3.138  -1.442  0.00  0.00    +0.104 C 
ATOM     23  C   UNL     1       0.421  -2.628  -2.854  0.00  0.00    +0.027 C 
ATOM     24  C   UNL     1      -0.343  -1.326  -3.109  0.00  0.00    +0.008 C 
ATOM     25  C   UNL     1       0.260  -0.203  -2.257  0.00  0.00    +0.055 C 
ENDBRANCH  14  22
ENDBRANCH   1  14
TORSDOF 3
