REMARK  Name = ZINC63134615
REMARK  9 active torsions:
REMARK  status: ('A' for Active; 'I' for Inactive)
REMARK    1  A    between atoms: C_1  and  C_2
REMARK    2  A    between atoms: C_2  and  C_3
REMARK    3  A    between atoms: C_3  and  C_4
REMARK    4  A    between atoms: C_4  and  C_5
REMARK    5  A    between atoms: C_5  and  C_6
REMARK    6  A    between atoms: C_6  and  N_7
REMARK    7  A    between atoms: C_14  and  O_31
REMARK    8  A    between atoms: C_16  and  C_19
REMARK    9  A    between atoms: N_21  and  C_22
REMARK                            x       y       z     vdW  Elec       q    Type
REMARK                         _______ _______ _______ _____ _____    ______ ____
ROOT
ATOM      1  N   UNL     1       2.162  -4.523  -3.738  0.00  0.00    -0.270 N 
ATOM      2  C   UNL     1       1.431  -4.753  -4.907  0.00  0.00    +0.042 A 
ATOM      3  C   UNL     1       0.171  -4.190  -5.066  0.00  0.00    +0.024 A 
ATOM      4  C   UNL     1      -0.545  -4.420  -6.224  0.00  0.00    +0.002 A 
ATOM      5  C   UNL     1      -0.009  -5.210  -7.225  0.00  0.00    +0.000 A 
ATOM      6  C   UNL     1       1.245  -5.771  -7.070  0.00  0.00    +0.008 A 
ATOM      7  C   UNL     1       1.966  -5.545  -5.915  0.00  0.00    +0.003 A 
ATOM      8  C   UNL     1       3.333  -6.154  -5.742  0.00  0.00    +0.167 C 
ATOM      9  C   UNL     1       4.220  -5.202  -4.941  0.00  0.00    +0.198 C 
ATOM     10  C   UNL     1       3.491  -4.728  -3.713  0.00  0.00    +0.235 C 
ATOM     11  O   UNL     1       4.109  -4.534  -2.688  0.00  0.00    -0.274 OA
ENDROOT
BRANCH   9  12
ATOM     12  C   UNL     1       4.576  -4.012  -5.795  0.00  0.00    +0.260 C 
ATOM     13  O   UNL     1       5.627  -4.076  -6.638  0.00  0.00    -0.270 OA
ATOM     14  N   UNL     1       3.875  -2.931  -5.720  0.00  0.00    -0.205 NA
BRANCH  14  15
ATOM     15  C   UNL     1       4.220  -1.774  -6.550  0.00  0.00    +0.302 C 
ATOM     16  N   UNL     1       4.460  -0.599  -5.702  0.00  0.00    -0.345 N 
ATOM     17  C   UNL     1       3.591   0.309  -6.040  0.00  0.00    +0.062 A 
ATOM     18  C   UNL     1       3.334   1.674  -5.559  0.00  0.00    +0.027 A 
ATOM     19  C   UNL     1       2.341   2.398  -6.111  0.00  0.00    +0.002 A 
ATOM     20  C   UNL     1       1.524   1.902  -7.142  0.00  0.00    +0.002 A 
ATOM     21  C   UNL     1       1.673   0.664  -7.656  0.00  0.00    +0.027 A 
ATOM     22  C   UNL     1       2.727  -0.216  -7.131  0.00  0.00    +0.062 A 
ATOM     23  N   UNL     1       3.095  -1.429  -7.427  0.00  0.00    -0.345 N 
ATOM     24  H   UNL     1       5.141  -0.516  -5.016  0.00  0.00    +0.163 HD
ATOM     25  H   UNL     1       2.698  -2.001  -8.103  0.00  0.00    +0.163 HD
ENDBRANCH  14  15
ENDBRANCH   9  12
BRANCH   8  26
ATOM     26  O   UNL     1       3.216  -7.396  -5.045  0.00  0.00    -0.386 OA
ATOM     27  H   UNL     1       2.666  -8.051  -5.496  0.00  0.00    +0.210 HD
ENDBRANCH   8  26
BRANCH   1  28
ATOM     28  C   UNL     1       1.476  -4.051  -2.532  0.00  0.00    +0.114 C 
BRANCH  28  29
ATOM     29  C   UNL     1       1.455  -2.521  -2.524  0.00  0.00    +0.019 C 
BRANCH  29  30
ATOM     30  C   UNL     1       0.739  -2.027  -1.265  0.00  0.00    +0.002 C 
BRANCH  30  31
ATOM     31  C   UNL     1       0.718  -0.497  -1.257  0.00  0.00    -0.000 C 
BRANCH  31  33
ATOM     32  C   UNL     1      -0.019   1.526   0.010  0.00  0.00    +0.004 C 
ATOM     33  C   UNL     1       0.002  -0.004   0.002  0.00  0.00    -0.003 C 
ENDBRANCH  31  33
ENDBRANCH  30  31
ENDBRANCH  29  30
ENDBRANCH  28  29
ENDBRANCH   1  28
TORSDOF 8
