REMARK  Name = ZINC64006723
REMARK  11 active torsions:
REMARK  status: ('A' for Active; 'I' for Inactive)
REMARK    1  A    between atoms: C_1  and  C_2
REMARK    2  A    between atoms: C_4  and  C_22
REMARK    3  A    between atoms: C_6  and  C_9
REMARK    4  A    between atoms: C_14  and  N_15
REMARK    5  A    between atoms: N_15  and  S_16
REMARK    6  A    between atoms: S_16  and  N_19
REMARK    7  A    between atoms: N_19  and  C_20
REMARK    8  A    between atoms: N_19  and  C_21
REMARK    9  A    between atoms: C_22  and  N_23
REMARK   10  A    between atoms: C_24  and  C_26
REMARK   11  A    between atoms: C_26  and  C_27
REMARK                            x       y       z     vdW  Elec       q    Type
REMARK                         _______ _______ _______ _____ _____    ______ ____
ROOT
ATOM      1  C   UNL     1      -0.103   1.366  -0.145  0.00  0.00    +0.044 C 
ATOM      2  C   UNL     1       0.077  -0.153  -0.171  0.00  0.00    +0.164 C 
ATOM      3  C   UNL     1      -1.265  -0.841  -0.286  0.00  0.00    +0.062 C 
ATOM      4  N   UNL     1      -1.292  -1.821   0.537  0.00  0.00    -0.253 NA
ATOM      5  C   UNL     1      -0.019  -1.894   1.263  0.00  0.00    +0.269 C 
ATOM      6  O   UNL     1       0.625  -0.616   1.080  0.00  0.00    -0.342 OA
ENDROOT
BRANCH   5   7
ATOM      7  C   UNL     1      -0.271  -2.145   2.727  0.00  0.00    +0.025 A 
ATOM      8  C   UNL     1      -1.543  -1.999   3.245  0.00  0.00    +0.010 A 
ATOM      9  C   UNL     1      -1.774  -2.228   4.589  0.00  0.00    +0.001 A 
ATOM     10  C   UNL     1      -0.734  -2.606   5.418  0.00  0.00    +0.002 A 
ATOM     11  C   UNL     1       0.540  -2.754   4.907  0.00  0.00    +0.025 A 
ATOM     12  C   UNL     1       0.775  -2.529   3.557  0.00  0.00    +0.057 A 
BRANCH  12  13
ATOM     13  N   UNL     1       2.062  -2.683   3.035  0.00  0.00    -0.206 N 
ATOM     14  H   UNL     1       2.372  -2.096   2.329  0.00  0.00    +0.175 HD
BRANCH  13  15
ATOM     15  S   UNL     1       3.057  -3.869   3.623  0.00  0.00    +0.111 S 
ATOM     16  O   UNL     1       4.219  -3.866   2.805  0.00  0.00    -0.138 OA
ATOM     17  O   UNL     1       3.116  -3.689   5.031  0.00  0.00    -0.138 OA
BRANCH  15  18
ATOM     18  N   UNL     1       2.298  -5.318   3.363  0.00  0.00    -0.170 NA
ATOM     19  C   UNL     1       2.525  -6.050   2.114  0.00  0.00    +0.132 C 
ATOM     20  C   UNL     1       1.401  -5.869   4.381  0.00  0.00    +0.132 C 
ENDBRANCH  15  18
ENDBRANCH  13  15
ENDBRANCH  12  13
ENDBRANCH   5   7
BRANCH   3  21
ATOM     21  C   UNL     1      -2.383  -0.440  -1.214  0.00  0.00    +0.157 C 
BRANCH  21  22
ATOM     22  N   UNL     1      -3.518  -1.348  -1.032  0.00  0.00    -0.310 N 
ATOM     23  C   UNL     1      -4.639  -1.181  -1.761  0.00  0.00    +0.217 C 
ATOM     24  O   UNL     1      -4.707  -0.278  -2.569  0.00  0.00    -0.275 OA
ATOM     25  H   UNL     1      -3.463  -2.070  -0.386  0.00  0.00    +0.149 HD
BRANCH  23  26
ATOM     26  C   UNL     1      -5.806  -2.115  -1.574  0.00  0.00    +0.129 C 
BRANCH  26  27
ATOM     27  C   UNL     1      -6.924  -1.714  -2.502  0.00  0.00    -0.033 C 
ATOM     28  C   UNL     1      -7.185  -2.222  -3.728  0.00  0.00    -0.001 A 
ATOM     29  C   UNL     1      -6.531  -3.259  -4.534  0.00  0.00    +0.010 A 
ATOM     30  C   UNL     1      -7.034  -3.556  -5.754  0.00  0.00    +0.001 A 
ATOM     31  C   UNL     1      -8.162  -2.900  -6.266  0.00  0.00    +0.002 A 
ATOM     32  C   UNL     1      -8.816  -1.936  -5.585  0.00  0.00    +0.026 A 
ATOM     33  C   UNL     1      -8.374  -1.543  -4.292  0.00  0.00    +0.043 A 
ATOM     34  N   UNL     1      -8.831  -0.651  -3.447  0.00  0.00    -0.380 N 
ATOM     35  C   UNL     1      -7.985  -0.666  -2.248  0.00  0.00    +0.145 C 
ATOM     36  H   UNL     1      -9.601  -0.079  -3.589  0.00  0.00    +0.160 HD
ENDBRANCH  26  27
ENDBRANCH  23  26
ENDBRANCH  21  22
ENDBRANCH   3  21
TORSDOF 8
