REMARK  Name = ZINC01366164
REMARK  5 active torsions:
REMARK  status: ('A' for Active; 'I' for Inactive)
REMARK    1  A    between atoms: C_1  and  C_2
REMARK    2  A    between atoms: C_3  and  C_17
REMARK    3  A    between atoms: C_8  and  C_10
REMARK    4  A    between atoms: C_24  and  C_32
REMARK    5  A    between atoms: C_27  and  C_29
REMARK                            x       y       z     vdW  Elec       q    Type
REMARK                         _______ _______ _______ _____ _____    ______ ____
ROOT
ATOM      1  C   UNL     1       1.915   7.395  -3.523  0.00  0.00    +0.054 C 
ATOM      2  C   UNL     1       0.772   8.318  -3.187  0.00  0.00    +0.016 A 
ATOM      3  C   UNL     1      -0.211   8.184  -2.245  0.00  0.00    +0.083 A 
ATOM      4  N   UNL     1      -1.130   9.129  -2.126  0.00  0.00    -0.224 NA
ATOM      5  C   UNL     1      -1.111  10.205  -2.892  0.00  0.00    +0.165 A 
ATOM      6  S   UNL     1       0.325   9.891  -3.909  0.00  0.00    -0.057 S 
ATOM      7  N   UNL     1      -1.978  11.289  -2.906  0.00  0.00    -0.261 N 
ATOM      8  C   UNL     1      -1.784  12.295  -3.781  0.00  0.00    +0.252 C 
ATOM      9  O   UNL     1      -0.849  12.254  -4.558  0.00  0.00    -0.270 OA
ATOM     10  H   UNL     1      -2.724  11.322  -2.287  0.00  0.00    +0.157 HD
ENDROOT
BRANCH   3  11
ATOM     11  C   UNL     1      -0.250   6.987  -1.370  0.00  0.00    +0.002 A 
ATOM     12  C   UNL     1       0.140   5.743  -1.864  0.00  0.00    +0.012 A 
ATOM     13  C   UNL     1       0.102   4.635  -1.049  0.00  0.00    +0.024 A 
ATOM     14  C   UNL     1      -0.325   4.744   0.277  0.00  0.00    +0.040 A 
ATOM     15  C   UNL     1      -0.712   5.984   0.764  0.00  0.00    -0.024 A 
ATOM     16  C   UNL     1      -0.676   7.099  -0.048  0.00  0.00    +0.015 A 
ATOM     17  C   UNL     1      -1.125   5.825   2.210  0.00  0.00    +0.059 C 
ATOM     18  C   UNL     1      -0.936   4.328   2.505  0.00  0.00    +0.083 C 
ATOM     19  N   UNL     1      -0.435   3.750   1.255  0.00  0.00    -0.268 N 
ATOM     20  C   UNL     1      -0.131   2.450   1.073  0.00  0.00    +0.223 C 
ATOM     21  O   UNL     1       0.365   2.084   0.028  0.00  0.00    -0.275 OA
ATOM     22  C   UNL     1       0.087   4.136   3.626  0.00  0.00    +0.029 C 
BRANCH  20  23
ATOM     23  C   UNL     1      -0.407   1.451   2.166  0.00  0.00    +0.076 C 
ATOM     24  C   UNL     1      -0.257  -0.033   1.823  0.00  0.00    +0.013 C 
ATOM     25  C   UNL     1       0.780   0.655   2.713  0.00  0.00    +0.013 C 
ENDBRANCH  20  23
ENDBRANCH   3  11
BRANCH   8  26
ATOM     26  C   UNL     1      -2.706  13.448  -3.797  0.00  0.00    +0.072 A 
ATOM     27  C   UNL     1      -3.785  13.496  -2.911  0.00  0.00    +0.016 A 
ATOM     28  C   UNL     1      -4.640  14.578  -2.927  0.00  0.00    +0.001 A 
ATOM     29  C   UNL     1      -4.439  15.611  -3.827  0.00  0.00    +0.003 A 
ATOM     30  C   UNL     1      -3.378  15.570  -4.712  0.00  0.00    +0.039 A 
ATOM     31  C   UNL     1      -2.508  14.495  -4.704  0.00  0.00    +0.135 A 
ATOM     32  F   UNL     1      -1.471  14.455  -5.569  0.00  0.00    -0.205 F 
ENDBRANCH   8  26
TORSDOF 3
