REMARK  Name = ZINC40825989
REMARK  6 active torsions:
REMARK  status: ('A' for Active; 'I' for Inactive)
REMARK    1  A    between atoms: C_1  and  C_2
REMARK    2  A    between atoms: C_6  and  C_7
REMARK    3  A    between atoms: C_14  and  C_16
REMARK    4  A    between atoms: N_21  and  N_22
REMARK    5  A    between atoms: N_22  and  S_23
REMARK    6  A    between atoms: S_23  and  C_26
REMARK                            x       y       z     vdW  Elec       q    Type
REMARK                         _______ _______ _______ _____ _____    ______ ____
ROOT
ATOM      1  C   UNL     1       0.132   1.485  -0.005  0.00  0.00    +0.048 C 
ATOM      2  C   UNL     1      -0.208   0.017  -0.000  0.00  0.00    +0.009 A 
ATOM      3  C   UNL     1      -0.453  -0.792  -1.116  0.00  0.00    +0.042 A 
ATOM      4  C   UNL     1      -0.723  -2.059  -0.656  0.00  0.00    +0.115 A 
ATOM      5  O   UNL     1      -0.647  -2.039   0.673  0.00  0.00    -0.454 OA
ATOM      6  C   UNL     1      -0.332  -0.793   1.095  0.00  0.00    +0.193 A 
ATOM      7  C   UNL     1      -1.043  -3.213  -1.571  0.00  0.00    +0.075 C 
ATOM      8  C   UNL     1      -1.516  -2.674  -2.924  0.00  0.00    +0.014 C 
ATOM      9  C   UNL     1      -0.503  -1.674  -3.491  0.00  0.00    +0.058 C 
ATOM     10  C   UNL     1      -0.451  -0.470  -2.561  0.00  0.00    +0.071 C 
ATOM     11  N   UNL     1      -0.406   0.748  -3.002  0.00  0.00    -0.170 NA
ENDROOT
BRANCH   6  12
ATOM     12  C   UNL     1      -0.157  -0.379   2.491  0.00  0.00    +0.282 C 
ATOM     13  O   UNL     1      -0.013   0.798   2.763  0.00  0.00    -0.267 OA
ATOM     14  N   UNL     1      -0.155  -1.302   3.473  0.00  0.00    -0.292 N 
ATOM     15  C   UNL     1      -0.151  -2.736   3.151  0.00  0.00    +0.108 C 
ATOM     16  C   UNL     1       1.018  -3.402   3.885  0.00  0.00    +0.019 C 
ATOM     17  C   UNL     1       0.918  -3.093   5.381  0.00  0.00    +0.003 C 
ATOM     18  C   UNL     1       1.010  -1.581   5.598  0.00  0.00    +0.022 C 
ATOM     19  C   UNL     1      -0.152  -0.895   4.884  0.00  0.00    +0.073 C 
ATOM     20  C   UNL     1       0.015   0.623   4.979  0.00  0.00    +0.028 C 
ENDBRANCH   6  12
BRANCH  11  21
ATOM     21  N   UNL     1      -0.407   0.995  -4.382  0.00  0.00    -0.136 N 
ATOM     22  H   UNL     1      -0.440   0.254  -5.007  0.00  0.00    +0.197 HD
BRANCH  21  23
ATOM     23  S   UNL     1      -0.350   2.551  -4.945  0.00  0.00    +0.086 S 
ATOM     24  O   UNL     1      -0.218   2.467  -6.357  0.00  0.00    -0.149 OA
ATOM     25  O   UNL     1      -1.419   3.248  -4.320  0.00  0.00    -0.149 OA
BRANCH  23  26
ATOM     26  C   UNL     1       1.141   3.270  -4.341  0.00  0.00    +0.110 A 
ATOM     27  C   UNL     1       1.149   3.922  -3.122  0.00  0.00    +0.031 A 
ATOM     28  C   UNL     1       2.318   4.486  -2.648  0.00  0.00    +0.040 A 
ATOM     29  C   UNL     1       3.481   4.397  -3.393  0.00  0.00    +0.124 A 
ATOM     30  C   UNL     1       3.472   3.744  -4.614  0.00  0.00    +0.040 A 
ATOM     31  C   UNL     1       2.303   3.176  -5.084  0.00  0.00    +0.031 A 
ATOM     32  F   UNL     1       4.624   4.949  -2.930  0.00  0.00    -0.205 F 
ENDBRANCH  23  26
ENDBRANCH  21  23
ENDBRANCH  11  21
TORSDOF 4
