REMARK  Name = ZINC39637045
REMARK  10 active torsions:
REMARK  status: ('A' for Active; 'I' for Inactive)
REMARK    1  A    between atoms: C_1  and  O_2
REMARK    2  A    between atoms: O_2  and  C_3
REMARK    3  A    between atoms: C_5  and  C_13
REMARK    4  A    between atoms: C_7  and  O_11
REMARK    5  A    between atoms: C_8  and  O_9
REMARK    6  A    between atoms: O_9  and  C_10
REMARK    7  A    between atoms: O_11  and  C_12
REMARK    8  A    between atoms: C_13  and  N_14
REMARK    9  A    between atoms: C_15  and  C_17
REMARK   10  A    between atoms: C_28  and  C_30
REMARK                            x       y       z     vdW  Elec       q    Type
REMARK                         _______ _______ _______ _____ _____    ______ ____
ROOT
ATOM      1  C   UNL     1       6.698   1.070  -4.210  0.00  0.00    +0.100 C 
ATOM      2  C   UNL     1       6.408   2.253  -3.259  0.00  0.00    +0.121 C 
ATOM      3  N   UNL     1       7.507   3.214  -3.512  0.00  0.00    -0.300 N 
ATOM      4  C   UNL     1       7.713   3.161  -4.979  0.00  0.00    +0.115 C 
ATOM      5  C   UNL     1       7.554   1.670  -5.338  0.00  0.00    -0.004 C 
ATOM      6  C   UNL     1       8.919   0.990  -5.384  0.00  0.00    -0.010 C 
ATOM      7  C   UNL     1       9.731   1.564  -6.548  0.00  0.00    -0.082 C 
ATOM      8  N   UNL     1       9.008   1.342  -7.807  0.00  0.00    +0.379 N 
ATOM      9  C   UNL     1       7.737   2.076  -7.791  0.00  0.00    -0.082 C 
ATOM     10  C   UNL     1       6.841   1.524  -6.678  0.00  0.00    -0.010 C 
ATOM     11  C   UNL     1       8.169   3.967  -2.612  0.00  0.00    +0.219 C 
ATOM     12  O   UNL     1       7.938   3.840  -1.428  0.00  0.00    -0.275 OA
ATOM     13  H   UNL     1       9.572   1.667  -8.579  0.00  0.00    -0.086 HD
ATOM     14  H   UNL     1       8.825   0.357  -7.919  0.00  0.00    -0.086 HD
ENDROOT
BRANCH  11  15
ATOM     15  C   UNL     1       9.197   4.967  -3.076  0.00  0.00    +0.079 C 
ATOM     16  C   UNL     1      10.209   5.225  -1.953  0.00  0.00    +0.017 C 
ATOM     17  C   UNL     1      11.335   6.100  -2.507  0.00  0.00    +0.027 C 
ATOM     18  C   UNL     1      10.762   7.286  -3.226  0.00  0.00    -0.031 C 
ATOM     19  C   UNL     1       9.533   7.367  -3.627  0.00  0.00    -0.030 C 
ATOM     20  C   UNL     1       8.508   6.288  -3.425  0.00  0.00    +0.039 C 
ENDBRANCH  11  15
BRANCH   1  22
ATOM     21  N   UNL     1       5.337  -0.779  -5.132  0.00  0.00    -0.311 N 
ATOM     22  C   UNL     1       5.411   0.516  -4.766  0.00  0.00    +0.218 C 
ATOM     23  O   UNL     1       4.442   1.236  -4.884  0.00  0.00    -0.275 OA
ATOM     24  H   UNL     1       6.112  -1.354  -5.038  0.00  0.00    +0.149 HD
BRANCH  21  25
ATOM     25  C   UNL     1       4.087  -1.317  -5.673  0.00  0.00    +0.139 C 
BRANCH  25  28
ATOM     26  C   UNL     1       4.165  -5.081  -5.343  0.00  0.00    +0.165 A 
ATOM     27  C   UNL     1       3.999  -3.737  -5.045  0.00  0.00    +0.054 A 
ATOM     28  C   UNL     1       4.268  -2.777  -6.001  0.00  0.00    -0.023 A 
ATOM     29  C   UNL     1       4.703  -3.151  -7.259  0.00  0.00    +0.054 A 
ATOM     30  C   UNL     1       4.871  -4.493  -7.565  0.00  0.00    +0.165 A 
ATOM     31  C   UNL     1       4.607  -5.462  -6.604  0.00  0.00    +0.204 A 
BRANCH  26  33
ATOM     32  C   UNL     1       3.448  -5.562  -3.127  0.00  0.00    +0.277 C 
ATOM     33  O   UNL     1       3.899  -6.026  -4.401  0.00  0.00    -0.491 OA
ENDBRANCH  26  33
BRANCH  31  34
ATOM     34  O   UNL     1       4.776  -6.779  -6.899  0.00  0.00    -0.488 OA
ATOM     35  C   UNL     1       3.651  -7.472  -7.444  0.00  0.00    +0.277 C 
ENDBRANCH  31  34
BRANCH  30  36
ATOM     36  O   UNL     1       5.299  -4.861  -8.803  0.00  0.00    -0.491 OA
ATOM     37  C   UNL     1       5.556  -3.811  -9.738  0.00  0.00    +0.277 C 
ENDBRANCH  30  36
ENDBRANCH  25  28
ENDBRANCH  21  25
ENDBRANCH   1  22
TORSDOF 7
