REMARK  Name = ZINC18281072
REMARK  9 active torsions:
REMARK  status: ('A' for Active; 'I' for Inactive)
REMARK    1  A    between atoms: C_1  and  C_2
REMARK    2  A    between atoms: C_2  and  C_4
REMARK    3  A    between atoms: C_2  and  N_14
REMARK    4  A    between atoms: C_15  and  C_17
REMARK    5  A    between atoms: C_17  and  N_18
REMARK    6  A    between atoms: C_21  and  C_25
REMARK    7  A    between atoms: C_21  and  C_26
REMARK    8  A    between atoms: C_29  and  O_32
REMARK    9  A    between atoms: O_32  and  C_33
REMARK                            x       y       z     vdW  Elec       q    Type
REMARK                         _______ _______ _______ _____ _____    ______ ____
ROOT
ATOM      1  C   UNL     1       1.633  -1.869   0.026  0.00  0.00    +0.213 C 
ENDROOT
BRANCH   1   2
ATOM      2  N   UNL     1       1.089  -0.509   0.073  0.00  0.00    -0.215 N 
ATOM      3  C   UNL     1      -0.227  -0.219   0.070  0.00  0.00    +0.251 C 
ATOM      4  O   UNL     1      -1.149  -1.004   0.031  0.00  0.00    -0.272 OA
ATOM      5  C   UNL     1      -0.313   1.293   0.126  0.00  0.00    +0.135 C 
ATOM      6  N   UNL     1       1.097   1.720   0.157  0.00  0.00    -0.281 N 
ATOM      7  C   UNL     1       1.839   0.598   0.122  0.00  0.00    +0.310 C 
ATOM      8  O   UNL     1       3.054   0.591   0.135  0.00  0.00    -0.252 OA
ATOM      9  C   UNL     1      -1.040   1.744   1.395  0.00  0.00    +0.047 C 
ATOM     10  H   UNL     1       1.426   2.631   0.195  0.00  0.00    +0.152 HD
BRANCH   5  11
ATOM     11  C   UNL     1      -1.002   1.831  -1.101  0.00  0.00    -0.015 A 
ATOM     12  C   UNL     1      -1.958   1.068  -1.746  0.00  0.00    +0.010 A 
ATOM     13  C   UNL     1      -2.596   1.561  -2.868  0.00  0.00    +0.046 A 
ATOM     14  C   UNL     1      -2.268   2.818  -3.354  0.00  0.00    +0.120 A 
ATOM     15  C   UNL     1      -1.305   3.580  -2.708  0.00  0.00    +0.046 A 
ATOM     16  C   UNL     1      -0.674   3.085  -1.583  0.00  0.00    +0.010 A 
BRANCH  14  17
ATOM     17  O   UNL     1      -2.889   3.303  -4.462  0.00  0.00    -0.495 OA
ATOM     18  C   UNL     1      -3.870   2.464  -5.074  0.00  0.00    +0.277 C 
ENDBRANCH  14  17
ENDBRANCH   5  11
ENDBRANCH   1   2
BRANCH   1  20
ATOM     19  N   UNL     1       2.328  -3.501  -1.698  0.00  0.00    -0.307 N 
ATOM     20  C   UNL     1       1.834  -2.281  -1.410  0.00  0.00    +0.231 C 
ATOM     21  O   UNL     1       1.552  -1.514  -2.306  0.00  0.00    -0.274 OA
ATOM     22  H   UNL     1       2.553  -4.115  -0.981  0.00  0.00    +0.149 HD
BRANCH  19  24
ATOM     23  C   UNL     1       1.229  -4.512  -3.635  0.00  0.00    +0.033 C 
ATOM     24  C   UNL     1       2.523  -3.901  -3.093  0.00  0.00    +0.101 C 
BRANCH  24  25
ATOM     25  C   UNL     1       3.631  -4.920  -3.173  0.00  0.00    -0.020 A 
ATOM     26  C   UNL     1       3.901  -5.722  -2.107  0.00  0.00    +0.006 A 
ATOM     27  C   UNL     1       4.918  -6.674  -2.165  0.00  0.00    +0.001 A 
ATOM     28  C   UNL     1       5.678  -6.820  -3.285  0.00  0.00    +0.008 A 
ATOM     29  C   UNL     1       5.433  -6.005  -4.403  0.00  0.00    -0.018 A 
ATOM     30  C   UNL     1       4.395  -5.042  -4.346  0.00  0.00    -0.013 A 
ATOM     31  C   UNL     1       4.150  -4.227  -5.465  0.00  0.00    +0.009 A 
ATOM     32  C   UNL     1       4.911  -4.373  -6.584  0.00  0.00    +0.001 A 
ATOM     33  C   UNL     1       5.932  -5.320  -6.639  0.00  0.00    +0.001 A 
ATOM     34  C   UNL     1       6.197  -6.127  -5.576  0.00  0.00    +0.008 A 
ENDBRANCH  24  25
ENDBRANCH  19  24
ENDBRANCH   1  20
TORSDOF 6
