REMARK  Name = ZINC13065027
REMARK  14 active torsions:
REMARK  status: ('A' for Active; 'I' for Inactive)
REMARK    1  A    between atoms: C_1  and  C_2
REMARK    2  A    between atoms: C_2  and  C_3
REMARK    3  A    between atoms: C_3  and  C_5
REMARK    4  A    between atoms: C_3  and  N_71
REMARK    5  A    between atoms: N_9  and  C_10
REMARK    6  A    between atoms: C_10  and  C_11
REMARK    7  A    between atoms: C_10  and  C_12
REMARK    8  A    between atoms: C_10  and  C_13
REMARK    9  A    between atoms: C_13  and  C_14
REMARK   10  A    between atoms: C_15  and  C_16
REMARK   11  A    between atoms: C_15  and  N_71
REMARK   12  A    between atoms: C_21  and  C_29
REMARK   13  A    between atoms: C_22  and  C_28
REMARK   14  A    between atoms: C_30  and  N_71
REMARK                            x       y       z     vdW  Elec       q    Type
REMARK                         _______ _______ _______ _____ _____    ______ ____
ROOT
ATOM      1  N   UNL     1       1.058  -1.973  -0.433  0.00  0.00    +0.391 N 
ATOM      2  H   UNL     1       1.817  -1.318  -0.656  0.00  0.00    -0.080 HD
ENDROOT
BRANCH   1   3
ATOM      3  C   UNL     1       0.884  -2.908  -1.564  0.00  0.00    -0.067 C 
ATOM      4  C   UNL     1       2.101  -3.852  -1.650  0.00  0.00    -0.015 C 
ATOM      5  C   UNL     1       2.347  -4.017  -3.171  0.00  0.00    -0.002 C 
ATOM      6  C   UNL     1       2.048  -2.601  -3.722  0.00  0.00    -0.002 C 
ATOM      7  C   UNL     1       0.850  -2.113  -2.881  0.00  0.00    -0.015 C 
ENDBRANCH   1   3
BRANCH   1   8
ATOM      8  C   UNL     1      -0.188  -1.209  -0.213  0.00  0.00    +0.003 C 
BRANCH   8   9
ATOM      9  C   UNL     1       0.174   0.157   0.312  0.00  0.00    +0.139 A 
ATOM     10  N   UNL     1       1.068   0.430   1.231  0.00  0.00    -0.115 NA
ATOM     11  N   UNL     1       1.085   1.707   1.403  0.00  0.00    -0.023 NA
ATOM     12  N   UNL     1       0.224   2.255   0.618  0.00  0.00    -0.043 NA
ATOM     13  N   UNL     1      -0.354   1.333  -0.075  0.00  0.00    -0.225 N 
BRANCH  13  14
ATOM     14  C   UNL     1      -1.392   1.528  -1.090  0.00  0.00    +0.061 C 
ATOM     15  C   UNL     1      -0.853   1.110  -2.459  0.00  0.00    +0.036 C 
ATOM     16  C   UNL     1      -2.613   0.675  -0.741  0.00  0.00    +0.036 C 
BRANCH  14  17
ATOM     17  C   UNL     1      -1.796   3.003  -1.129  0.00  0.00    +0.026 C 
ATOM     18  C   UNL     1      -2.880   3.207  -2.189  0.00  0.00    +0.006 C 
ENDBRANCH  14  17
ENDBRANCH  13  14
ENDBRANCH   8   9
BRANCH   8  20
ATOM     19  C   UNL     1      -1.532  -3.268   0.225  0.00  0.00    +0.002 C 
ATOM     20  C   UNL     1      -1.080  -1.926   0.802  0.00  0.00    -0.011 C 
ENDBRANCH   8  20
ENDBRANCH   1   8
BRANCH   1  21
ATOM     21  C   UNL     1       1.415  -2.721   0.791  0.00  0.00    -0.036 C 
BRANCH  21  22
ATOM     22  C   UNL     1       2.025  -1.764   1.782  0.00  0.00    +0.001 A 
ATOM     23  C   UNL     1       1.340  -1.424   2.902  0.00  0.00    +0.017 A 
ATOM     24  C   UNL     1       1.960  -0.491   3.844  0.00  0.00    -0.001 A 
ATOM     25  C   UNL     1       1.303  -0.103   5.017  0.00  0.00    +0.010 A 
ATOM     26  C   UNL     1       1.909   0.768   5.876  0.00  0.00    +0.004 A 
ATOM     27  C   UNL     1       3.172   1.273   5.597  0.00  0.00    -0.046 A 
ATOM     28  C   UNL     1       3.838   0.905   4.447  0.00  0.00    -0.024 A 
ATOM     29  C   UNL     1       3.241   0.018   3.558  0.00  0.00    +0.052 A 
ATOM     30  N   UNL     1       3.885  -0.368   2.401  0.00  0.00    -0.322 N 
ATOM     31  H   UNL     1       4.767  -0.017   2.205  0.00  0.00    +0.169 HD
ATOM     32  C   UNL     1       3.309  -1.229   1.544  0.00  0.00    +0.251 A 
ATOM     33  O   UNL     1       3.909  -1.552   0.534  0.00  0.00    -0.268 OA
ATOM     34  C   UNL     1       5.208   1.461   4.156  0.00  0.00    +0.046 C 
ATOM     35  C   UNL     1       3.822   2.233   6.560  0.00  0.00    +0.044 C 
ENDBRANCH  21  22
ENDBRANCH   1  21
TORSDOF 8
