REMARK  Name = ZINC02797201
REMARK  10 active torsions:
REMARK  status: ('A' for Active; 'I' for Inactive)
REMARK    1  A    between atoms: C_1  and  C_2
REMARK    2  A    between atoms: C_2  and  O_3
REMARK    3  A    between atoms: O_3  and  C_4
REMARK    4  A    between atoms: C_4  and  C_6
REMARK    5  A    between atoms: C_10  and  N_11
REMARK    6  A    between atoms: N_11  and  C_12
REMARK    7  A    between atoms: C_12  and  N_14
REMARK    8  A    between atoms: C_15  and  C_17
REMARK    9  A    between atoms: C_20  and  C_22
REMARK   10  A    between atoms: C_22  and  N_23
REMARK                            x       y       z     vdW  Elec       q    Type
REMARK                         _______ _______ _______ _____ _____    ______ ____
ROOT
ATOM      1  C   UNL     1       2.555   5.904   6.513  0.00  0.00    +0.142 C 
ATOM      2  S   UNL     1       3.999   5.525   7.350  0.00  0.00    -0.018 S 
ENDROOT
BRANCH   1   3
ATOM      3  N   UNL     1       2.418   5.562   5.216  0.00  0.00    -0.261 N 
ATOM      4  C   UNL     1       3.418   4.921   4.579  0.00  0.00    +0.285 C 
ATOM      5  O   UNL     1       4.445   4.652   5.174  0.00  0.00    -0.266 OA
ATOM      6  H   UNL     1       1.600   5.777   4.742  0.00  0.00    +0.157 HD
BRANCH   4   7
ATOM      7  C   UNL     1       3.270   4.550   3.169  0.00  0.00    +0.190 A 
ATOM      8  C   UNL     1       4.200   3.901   2.407  0.00  0.00    +0.055 A 
ATOM      9  C   UNL     1       3.642   3.752   1.129  0.00  0.00    +0.047 A 
ATOM     10  C   UNL     1       2.410   4.309   1.165  0.00  0.00    +0.127 A 
ATOM     11  O   UNL     1       2.192   4.793   2.394  0.00  0.00    -0.453 OA
BRANCH  10  12
ATOM     12  C   UNL     1       1.445   4.379   0.010  0.00  0.00    +0.217 C 
BRANCH  12  13
ATOM     13  N   UNL     1       0.594   3.186   0.013  0.00  0.00    -0.263 N 
ATOM     14  C   UNL     1      -0.757   3.174   0.025  0.00  0.00    +0.128 A 
ATOM     15  C   UNL     1      -1.157   1.881   0.017  0.00  0.00    +0.078 A 
ATOM     16  C   UNL     1      -0.013   1.076   0.008  0.00  0.00    +0.154 A 
ATOM     17  N   UNL     1       1.037   1.857   0.002  0.00  0.00    -0.178 NA
ATOM     18 CL   UNL     1      -2.800   1.320   0.022  0.00  0.00    -0.080 Cl
ENDBRANCH  12  13
ENDBRANCH  10  12
ENDBRANCH   4   7
ENDBRANCH   1   3
BRANCH   1  19
ATOM     19  N   UNL     1       1.555   6.544   7.150  0.00  0.00    -0.290 N 
ATOM     20  H   UNL     1       0.737   6.759   6.675  0.00  0.00    +0.154 HD
BRANCH  19  25
ATOM     21  C   UNL     1       0.789   7.557   9.300  0.00  0.00    +0.091 A 
ATOM     22  C   UNL     1       1.184   7.804  10.678  0.00  0.00    -0.021 A 
ATOM     23  C   UNL     1       2.416   7.363  11.010  0.00  0.00    -0.004 A 
ATOM     24  S   UNL     1       3.048   6.623   9.530  0.00  0.00    -0.077 S 
ATOM     25  C   UNL     1       1.695   6.896   8.482  0.00  0.00    +0.086 A 
ATOM     26  C   UNL     1       3.089   7.481  12.343  0.00  0.00    +0.043 C 
ATOM     27  C   UNL     1       2.321   8.512  13.183  0.00  0.00    +0.005 C 
ATOM     28  C   UNL     1       0.824   8.197  13.102  0.00  0.00    +0.005 C 
ATOM     29  C   UNL     1       0.302   8.511  11.699  0.00  0.00    +0.037 C 
BRANCH  21  30
ATOM     30  C   UNL     1      -0.517   7.987   8.796  0.00  0.00    +0.342 C 
ATOM     31  O   UNL     1      -1.474   7.241   8.875  0.00  0.00    -0.245 OA
BRANCH  30  32
ATOM     32  O   UNL     1      -0.658   9.210   8.245  0.00  0.00    -0.461 OA
BRANCH  32  34
ATOM     33  C   UNL     1      -1.945  10.980   7.179  0.00  0.00    +0.048 C 
ATOM     34  C   UNL     1      -1.981   9.568   7.767  0.00  0.00    +0.229 C 
ENDBRANCH  32  34
ENDBRANCH  30  32
ENDBRANCH  21  30
ENDBRANCH  19  25
ENDBRANCH   1  19
TORSDOF 9
