REMARK  Name = ZINC20114805
REMARK  12 active torsions:
REMARK  status: ('A' for Active; 'I' for Inactive)
REMARK    1  A    between atoms: C_1  and  C_2
REMARK    2  A    between atoms: C_2  and  O_3
REMARK    3  A    between atoms: O_3  and  C_4
REMARK    4  A    between atoms: C_4  and  C_6
REMARK    5  A    between atoms: C_9  and  N_12
REMARK    6  A    between atoms: C_15  and  C_26
REMARK    7  A    between atoms: N_17  and  C_20
REMARK    8  A    between atoms: C_20  and  C_21
REMARK    9  A    between atoms: C_21  and  N_22
REMARK   10  A    between atoms: C_23  and  C_25
REMARK   11  A    between atoms: C_26  and  C_27
REMARK   12  A    between atoms: N_29  and  C_30
REMARK                            x       y       z     vdW  Elec       q    Type
REMARK                         _______ _______ _______ _____ _____    ______ ____
ROOT
ATOM      1  N   UNL     1       3.921  -3.924  -5.249  0.00  0.00    -0.220 N 
ATOM      2  C   UNL     1       4.243  -3.079  -6.248  0.00  0.00    +0.246 C 
ATOM      3  O   UNL     1       4.292  -1.869  -6.197  0.00  0.00    -0.273 OA
ATOM      4  C   UNL     1       4.533  -3.957  -7.449  0.00  0.00    +0.171 C 
ATOM      5  N   UNL     1       4.313  -5.322  -6.941  0.00  0.00    -0.298 N 
ATOM      6  C   UNL     1       3.960  -5.200  -5.649  0.00  0.00    +0.147 C 
ATOM      7  S   UNL     1       3.599  -6.528  -4.630  0.00  0.00    -0.018 S 
ENDROOT
BRANCH   1  11
ATOM      8  C   UNL     1       2.913  -2.710  -1.390  0.00  0.00    +0.059 A 
ATOM      9  C   UNL     1       1.952  -3.309  -2.210  0.00  0.00    +0.017 A 
ATOM     10  C   UNL     1       2.287  -3.703  -3.486  0.00  0.00    +0.025 A 
ATOM     11  C   UNL     1       3.583  -3.517  -3.955  0.00  0.00    +0.043 A 
ATOM     12  C   UNL     1       4.543  -2.926  -3.141  0.00  0.00    +0.025 A 
ATOM     13  C   UNL     1       4.214  -2.524  -1.866  0.00  0.00    +0.017 A 
BRANCH   8  14
ATOM     14  C   UNL     1       2.556  -2.281  -0.025  0.00  0.00    +0.339 C 
ATOM     15  O   UNL     1       3.394  -1.766   0.688  0.00  0.00    -0.245 OA
BRANCH  14  16
ATOM     16  O   UNL     1       1.301  -2.461   0.431  0.00  0.00    -0.461 OA
BRANCH  16  18
ATOM     17  C   UNL     1      -0.443  -2.300   2.123  0.00  0.00    +0.048 C 
ATOM     18  C   UNL     1       1.021  -2.015   1.785  0.00  0.00    +0.229 C 
ENDBRANCH  16  18
ENDBRANCH  14  16
ENDBRANCH   8  14
ENDBRANCH   1  11
BRANCH   5  19
ATOM     19  C   UNL     1       4.451  -6.570  -7.696  0.00  0.00    +0.126 C 
BRANCH  19  20
ATOM     20  C   UNL     1       3.149  -6.861  -8.444  0.00  0.00    +0.123 C 
BRANCH  20  21
ATOM     21  N   UNL     1       3.287  -8.109  -9.199  0.00  0.00    -0.314 N 
ATOM     22  C   UNL     1       2.258  -8.566  -9.939  0.00  0.00    +0.210 C 
ATOM     23  O   UNL     1       1.217  -7.945  -9.980  0.00  0.00    -0.276 OA
ATOM     24  C   UNL     1       2.400  -9.850 -10.716  0.00  0.00    +0.109 C 
ATOM     25  H   UNL     1       4.231  -8.672  -9.162  0.00  0.00    +0.149 HD
ENDBRANCH  20  21
ENDBRANCH  19  20
ENDBRANCH   5  19
BRANCH   4  26
ATOM     26  C   UNL     1       5.980  -3.782  -7.913  0.00  0.00    +0.128 C 
BRANCH  26  27
ATOM     27  C   UNL     1       6.139  -2.433  -8.565  0.00  0.00    +0.219 C 
ATOM     28  O   UNL     1       5.168  -1.730  -8.748  0.00  0.00    -0.275 OA
ATOM     29  N   UNL     1       7.361  -2.007  -8.944  0.00  0.00    -0.285 N 
ATOM     30  H   UNL     1       8.231  -2.672  -8.841  0.00  0.00    +0.155 HD
BRANCH  29  31
ATOM     31  C   UNL     1       7.521  -0.718  -9.467  0.00  0.00    +0.034 A 
ATOM     32  C   UNL     1       6.536  -0.168 -10.276  0.00  0.00    +0.026 A 
ATOM     33  C   UNL     1       6.694   1.105 -10.787  0.00  0.00    +0.040 A 
ATOM     34  C   UNL     1       7.840   1.829 -10.503  0.00  0.00    +0.124 A 
ATOM     35  C   UNL     1       8.826   1.280  -9.701  0.00  0.00    +0.040 A 
ATOM     36  C   UNL     1       8.669   0.009  -9.183  0.00  0.00    +0.026 A 
ATOM     37  F   UNL     1       7.996   3.072 -11.009  0.00  0.00    -0.205 F 
ENDBRANCH  29  31
ENDBRANCH  26  27
ENDBRANCH   4  26
TORSDOF 10
