REMARK  Name = ZINC05651353
REMARK  7 active torsions:
REMARK  status: ('A' for Active; 'I' for Inactive)
REMARK    1  A    between atoms: C_1  and  C_2
REMARK    2  A    between atoms: C_2  and  C_3
REMARK    3  A    between atoms: C_14  and  C_15
REMARK    4  A    between atoms: C_14  and  O_17
REMARK    5  A    between atoms: O_17  and  C_18
REMARK    6  A    between atoms: C_18  and  C_20
REMARK    7  A    between atoms: N_26  and  O_27
REMARK                            x       y       z     vdW  Elec       q    Type
REMARK                         _______ _______ _______ _____ _____    ______ ____
ROOT
ATOM      1  C   UNL     1       0.718  -0.497  -1.257  0.00  0.00    +0.025 C 
ATOM      2  C   UNL     1       2.125   0.094  -1.381  0.00  0.00    +0.012 C 
ATOM      3  C   UNL     1       3.057  -0.517  -0.339  0.00  0.00    +0.005 C 
ATOM      4  C   UNL     1       3.176  -2.022  -0.604  0.00  0.00    -0.000 C 
ATOM      5  C   UNL     1       1.796  -2.656  -0.444  0.00  0.00    -0.003 C 
ATOM      6  C   UNL     1       0.771  -2.033  -1.323  0.00  0.00    +0.004 C 
ATOM      7  C   UNL     1       1.050  -2.320  -2.810  0.00  0.00    +0.009 C 
ATOM      8  C   UNL     1       0.188  -1.269  -3.547  0.00  0.00    +0.062 C 
ATOM      9  C   UNL     1      -0.051  -0.119  -2.551  0.00  0.00    +0.179 C 
ATOM     10  C   UNL     1       1.888  -4.160  -0.725  0.00  0.00    +0.008 C 
ATOM     11  C   UNL     1       2.776  -4.817   0.333  0.00  0.00    +0.031 C 
ATOM     12  C   UNL     1       4.123  -4.116   0.340  0.00  0.00    -0.064 C 
ATOM     13  C   UNL     1       5.213  -4.872   0.286  0.00  0.00    +0.026 C 
ATOM     14  C   UNL     1       6.546  -4.243   0.306  0.00  0.00    +0.080 C 
ATOM     15  N   UNL     1       7.596  -4.856  -0.141  0.00  0.00    -0.092 NA
ATOM     16  C   UNL     1       6.622  -2.841   0.878  0.00  0.00    +0.059 C 
ATOM     17  C   UNL     1       5.527  -2.014   0.205  0.00  0.00    +0.014 C 
ATOM     18  C   UNL     1       4.165  -2.618   0.406  0.00  0.00    +0.019 C 
ENDROOT
BRANCH   1  20
ATOM     19  C   UNL     1      -0.019   1.526   0.010  0.00  0.00    +0.004 C 
ATOM     20  C   UNL     1       0.002  -0.004   0.002  0.00  0.00    +0.009 C 
ENDBRANCH   1  20
BRANCH   9  21
ATOM     21  C   UNL     1       0.473   1.142  -3.100  0.00  0.00    -0.058 C 
ATOM     22  C   UNL     1       0.891   2.148  -3.538  0.00  0.00    +0.008 C 
ENDBRANCH   9  21
BRANCH  15  23
ATOM     23  O   UNL     1       8.859  -4.216  -0.103  0.00  0.00    -0.409 OA
ATOM     24  H   UNL     1       9.582  -4.751  -0.458  0.00  0.00    +0.328 HD
ENDBRANCH  15  23
BRANCH   9  25
ATOM     25  O   UNL     1      -1.447   0.008  -2.273  0.00  0.00    -0.445 OA
BRANCH  25  26
ATOM     26  C   UNL     1      -2.246   0.334  -3.301  0.00  0.00    +0.305 C 
ATOM     27  O   UNL     1      -1.775   0.505  -4.401  0.00  0.00    -0.251 OA
ATOM     28  C   UNL     1      -3.729   0.486  -3.084  0.00  0.00    +0.136 C 
ENDBRANCH  25  26
ENDBRANCH   9  25
TORSDOF 5
