REMARK  Name = ZINC39229640
REMARK  5 active torsions:
REMARK  status: ('A' for Active; 'I' for Inactive)
REMARK    1  A    between atoms: C_4  and  C_7
REMARK    2  A    between atoms: C_17  and  C_20
REMARK    3  A    between atoms: N_22  and  C_23
REMARK    4  A    between atoms: C_23  and  C_24
REMARK    5  A    between atoms: C_24  and  C_25
REMARK                            x       y       z     vdW  Elec       q    Type
REMARK                         _______ _______ _______ _____ _____    ______ ____
ROOT
ATOM      1  C   UNL     1       3.899  -0.750  -0.262  0.00  0.00    -0.023 C 
ATOM      2  C   UNL     1       4.148  -1.056   1.218  0.00  0.00    +0.095 C 
ATOM      3  N   UNL     1       5.266  -2.007   1.316  0.00  0.00    -0.318 N 
ATOM      4  C   UNL     1       5.216  -3.223   0.489  0.00  0.00    +0.087 C 
ATOM      5  C   UNL     1       4.917  -2.815  -0.957  0.00  0.00    -0.062 C 
ATOM      6  N   UNL     1       3.691  -2.007  -0.993  0.00  0.00    +0.386 N 
ATOM      7  C   UNL     1       6.335  -1.765   2.162  0.00  0.00    +0.121 A 
ATOM      8  C   UNL     1       6.255  -0.729   3.091  0.00  0.00    +0.044 A 
ATOM      9  C   UNL     1       7.313  -0.492   3.926  0.00  0.00    +0.018 A 
ATOM     10  C   UNL     1       8.449  -1.309   3.815  0.00  0.00    +0.055 A 
ATOM     11  C   UNL     1       8.460  -2.329   2.862  0.00  0.00    +0.126 A 
ATOM     12  N   UNL     1       7.418  -2.526   2.082  0.00  0.00    -0.240 NA
ATOM     13  H   UNL     1       2.937  -2.523  -0.564  0.00  0.00    -0.085 HD
ATOM     14  H   UNL     1       3.453  -1.802  -1.952  0.00  0.00    -0.085 HD
ENDROOT
BRANCH   1  18
ATOM     15  C   UNL     1       0.428   1.709  -0.646  0.00  0.00    +0.000 A 
ATOM     16  C   UNL     1       1.687   2.277  -0.704  0.00  0.00    +0.000 A 
ATOM     17  C   UNL     1       2.810   1.481  -0.580  0.00  0.00    +0.002 A 
ATOM     18  C   UNL     1       2.674   0.117  -0.397  0.00  0.00    -0.060 A 
ATOM     19  C   UNL     1       1.415  -0.450  -0.338  0.00  0.00    +0.002 A 
ATOM     20  C   UNL     1       0.292   0.346  -0.464  0.00  0.00    +0.000 A 
ENDBRANCH   1  18
BRANCH  10  21
ATOM     21  C   UNL     1       9.615  -1.092   4.693  0.00  0.00    +0.246 C 
ATOM     22  O   UNL     1       9.596  -0.201   5.519  0.00  0.00    -0.270 OA
ATOM     23  N   UNL     1      10.701  -1.882   4.578  0.00  0.00    -0.311 N 
ATOM     24  H   UNL     1      10.716  -2.593   3.918  0.00  0.00    +0.149 HD
BRANCH  23  25
ATOM     25  C   UNL     1      11.859  -1.667   5.449  0.00  0.00    +0.109 C 
BRANCH  25  26
ATOM     26  C   UNL     1      12.946  -2.691   5.115  0.00  0.00    +0.054 C 
BRANCH  26  27
ATOM     27  C   UNL     1      14.137  -2.470   6.012  0.00  0.00    -0.042 A 
ATOM     28  C   UNL     1      15.144  -1.608   5.620  0.00  0.00    +0.007 A 
ATOM     29  C   UNL     1      16.238  -1.401   6.439  0.00  0.00    +0.050 A 
ATOM     30  C   UNL     1      16.328  -2.058   7.655  0.00  0.00    +0.166 A 
ATOM     31  C   UNL     1      15.313  -2.927   8.050  0.00  0.00    +0.166 A 
ATOM     32  C   UNL     1      14.217  -3.125   7.226  0.00  0.00    +0.053 A 
ATOM     33  O   UNL     1      15.632  -3.444   9.272  0.00  0.00    -0.453 OA
ATOM     34  C   UNL     1      17.042  -3.200   9.437  0.00  0.00    +0.466 C 
ATOM     35  O   UNL     1      17.283  -2.032   8.630  0.00  0.00    -0.453 OA
ENDBRANCH  26  27
ENDBRANCH  25  26
ENDBRANCH  23  25
ENDBRANCH  10  21
TORSDOF 5
