REMARK  Name = ZINC39446759
REMARK  3 active torsions:
REMARK  status: ('A' for Active; 'I' for Inactive)
REMARK    1  A    between atoms: C_1  and  C_2
REMARK    2  A    between atoms: C_10  and  C_11
REMARK    3  A    between atoms: C_11  and  N_13
REMARK                            x       y       z     vdW  Elec       q    Type
REMARK                         _______ _______ _______ _____ _____    ______ ____
ROOT
ATOM      1  C   UNL     1       1.835   0.557   1.625  0.00  0.00    +0.253 C 
ATOM      2  O   UNL     1       2.865   0.727   1.002  0.00  0.00    -0.272 OA
ENDROOT
BRANCH   1   3
ATOM      3  N   UNL     1       1.578   1.297   2.700  0.00  0.00    -0.146 NA
ATOM      4  C   UNL     1       2.398   2.289   3.036  0.00  0.00    +0.198 A 
ATOM      5  N   UNL     1       3.578   2.575   2.426  0.00  0.00    -0.326 N 
ATOM      6  H   UNL     1       3.962   2.093   1.677  0.00  0.00    +0.169 HD
ATOM      7  C   UNL     1       4.140   3.679   3.060  0.00  0.00    +0.065 A 
ATOM      8  C   UNL     1       5.315   4.389   2.859  0.00  0.00    +0.028 A 
ATOM      9  C   UNL     1       5.612   5.468   3.668  0.00  0.00    +0.002 A 
ATOM     10  C   UNL     1       4.744   5.844   4.678  0.00  0.00    +0.002 A 
ATOM     11  C   UNL     1       3.572   5.143   4.886  0.00  0.00    +0.028 A 
ATOM     12  C   UNL     1       3.264   4.058   4.079  0.00  0.00    +0.065 A 
ATOM     13  N   UNL     1       2.185   3.180   4.039  0.00  0.00    -0.326 N 
ATOM     14  H   UNL     1       1.415   3.200   4.628  0.00  0.00    +0.169 HD
ENDBRANCH   1   3
BRANCH   1  24
ATOM     15  C   UNL     1      -0.182   1.582   0.232  0.00  0.00    +0.014 C 
ATOM     16  C   UNL     1      -0.116   0.059   0.107  0.00  0.00    +0.039 C 
ATOM     17  C   UNL     1      -1.506  -0.508   0.258  0.00  0.00    -0.030 A 
ATOM     18  C   UNL     1      -2.498  -0.554  -0.724  0.00  0.00    +0.005 A 
ATOM     19  C   UNL     1      -3.740  -1.085  -0.458  0.00  0.00    +0.000 A 
ATOM     20  C   UNL     1      -4.041  -1.591   0.794  0.00  0.00    +0.001 A 
ATOM     21  C   UNL     1      -3.072  -1.564   1.780  0.00  0.00    +0.015 A 
ATOM     22  C   UNL     1      -1.824  -1.036   1.507  0.00  0.00    +0.012 A 
ATOM     23  S   UNL     1      -0.363  -0.882   2.510  0.00  0.00    -0.112 S 
ATOM     24  C   UNL     1       0.849  -0.493   1.181  0.00  0.00    +0.146 C 
ENDBRANCH   1  24
TORSDOF 2
