REMARK  Name = ZINC04719248
REMARK  8 active torsions:
REMARK  status: ('A' for Active; 'I' for Inactive)
REMARK    1  A    between atoms: C_1  and  C_2
REMARK    2  A    between atoms: C_7  and  O_8
REMARK    3  A    between atoms: O_8  and  C_9
REMARK    4  A    between atoms: C_9  and  C_10
REMARK    5  A    between atoms: C_10  and  N_11
REMARK    6  A    between atoms: N_11  and  C_12
REMARK    7  A    between atoms: C_14  and  N_21
REMARK    8  A    between atoms: C_17  and  N_18
REMARK                            x       y       z     vdW  Elec       q    Type
REMARK                         _______ _______ _______ _____ _____    ______ ____
ROOT
ATOM      1  C   UNL     1      -1.600   1.587   6.029  0.00  0.00    +0.060 A 
ATOM      2  C   UNL     1      -0.681   1.717   7.061  0.00  0.00    +0.048 A 
ATOM      3  C   UNL     1      -0.764   2.796   7.929  0.00  0.00    +0.032 A 
ATOM      4  C   UNL     1      -1.768   3.744   7.763  0.00  0.00    +0.025 A 
ATOM      5  C   UNL     1      -2.681   3.611   6.736  0.00  0.00    +0.036 A 
ATOM      6  C   UNL     1      -2.597   2.541   5.866  0.00  0.00    +0.147 A 
ENDROOT
BRANCH   3   7
ATOM      7  N   UNL     1       0.159   2.930   8.969  0.00  0.00    -0.330 N 
ATOM      8  C   UNL     1       0.005   3.991   9.974  0.00  0.00    +0.105 C 
ATOM      9  C   UNL     1       0.027   3.356  11.368  0.00  0.00    +0.019 C 
ATOM     10  C   UNL     1       1.301   2.522  11.524  0.00  0.00    +0.003 C 
ATOM     11  C   UNL     1       1.309   1.400  10.483  0.00  0.00    +0.019 C 
ATOM     12  C   UNL     1       1.298   2.009   9.082  0.00  0.00    +0.105 C 
ENDBRANCH   3   7
BRANCH   6  13
ATOM     13  N   UNL     1      -3.574   2.407   4.762  0.00  0.00    +0.058 N 
ATOM     14  O   UNL     1      -3.216   1.991   3.685  0.00  0.00    -0.126 OA
ATOM     15  O   UNL     1      -4.730   2.714   4.937  0.00  0.00    -0.126 OA
ENDBRANCH   6  13
BRANCH   1  16
ATOM     16  N   UNL     1      -1.520   0.503   5.154  0.00  0.00    -0.339 N 
ATOM     17  H   UNL     1      -2.210   0.366   4.486  0.00  0.00    +0.146 HD
BRANCH  16  18
ATOM     18  C   UNL     1      -0.392  -0.429   5.242  0.00  0.00    +0.142 C 
BRANCH  18  19
ATOM     19  C   UNL     1      -0.544  -1.517   4.178  0.00  0.00    +0.247 C 
BRANCH  19  20
ATOM     20  O   UNL     1      -0.448  -0.930   2.879  0.00  0.00    -0.490 OA
BRANCH  20  27
ATOM     21  C   UNL     1      -0.261   0.211   0.302  0.00  0.00    +0.047 C 
ATOM     22  C   UNL     1      -0.479  -1.263   0.524  0.00  0.00    -0.009 A 
ATOM     23  C   UNL     1      -0.590  -2.116  -0.557  0.00  0.00    +0.007 A 
ATOM     24  C   UNL     1      -0.791  -3.469  -0.354  0.00  0.00    +0.000 A 
ATOM     25  C   UNL     1      -0.881  -3.972   0.931  0.00  0.00    +0.004 A 
ATOM     26  C   UNL     1      -0.770  -3.123   2.015  0.00  0.00    +0.046 A 
ATOM     27  C   UNL     1      -0.563  -1.766   1.814  0.00  0.00    +0.123 A 
ENDBRANCH  20  27
ENDBRANCH  19  20
ENDBRANCH  18  19
ENDBRANCH  16  18
ENDBRANCH   1  16
TORSDOF 7
