REMARK  Name = ZINC06144290
REMARK  10 active torsions:
REMARK  status: ('A' for Active; 'I' for Inactive)
REMARK    1  A    between atoms: C_1  and  C_2
REMARK    2  A    between atoms: C_7  and  C_9
REMARK    3  A    between atoms: C_7  and  C_10
REMARK    4  A    between atoms: C_13  and  C_15
REMARK    5  A    between atoms: C_15  and  O_16
REMARK    6  A    between atoms: O_16  and  C_17
REMARK    7  A    between atoms: C_17  and  C_19
REMARK    8  A    between atoms: C_22  and  N_25
REMARK    9  A    between atoms: N_25  and  S_26
REMARK   10  A    between atoms: S_26  and  C_29
REMARK                            x       y       z     vdW  Elec       q    Type
REMARK                         _______ _______ _______ _____ _____    ______ ____
ROOT
ATOM      1  C   UNL     1       2.577  -4.304  -6.517  0.00  0.00    +0.059 A 
ATOM      2  C   UNL     1       1.773  -5.447  -6.464  0.00  0.00    +0.017 A 
ATOM      3  C   UNL     1       1.885  -6.407  -7.436  0.00  0.00    +0.025 A 
ATOM      4  C   UNL     1       2.797  -6.246  -8.475  0.00  0.00    +0.048 A 
ATOM      5  C   UNL     1       3.600  -5.110  -8.531  0.00  0.00    +0.025 A 
ATOM      6  C   UNL     1       3.489  -4.143  -7.565  0.00  0.00    +0.017 A 
ENDROOT
BRANCH   1   7
ATOM      7  C   UNL     1       2.460  -3.269  -5.474  0.00  0.00    +0.340 C 
ATOM      8  O   UNL     1       3.156  -2.275  -5.524  0.00  0.00    -0.245 OA
BRANCH   7   9
ATOM      9  O   UNL     1       1.581  -3.427  -4.465  0.00  0.00    -0.452 OA
BRANCH   9  10
ATOM     10  C   UNL     1       1.520  -2.384  -3.489  0.00  0.00    +0.328 C 
BRANCH  10  22
ATOM     11  C   UNL     1       0.308   1.503   0.128  0.00  0.00    +0.013 C 
ATOM     12  C   UNL     1       0.358  -0.033   0.122  0.00  0.00    -0.014 C 
ATOM     13  C   UNL     1      -1.057  -0.670   0.174  0.00  0.00    +0.030 C 
ATOM     14  C   UNL     1      -0.717  -2.095  -0.330  0.00  0.00    +0.077 C 
ATOM     15  C   UNL     1      -0.033  -2.830   0.821  0.00  0.00    +0.029 C 
ATOM     16  C   UNL     1       1.190  -2.115   1.366  0.00  0.00    -0.033 C 
ATOM     17  C   UNL     1       1.156  -0.600   1.295  0.00  0.00    +0.014 C 
ATOM     18  C   UNL     1       1.314  -2.501   2.862  0.00  0.00    +0.011 C 
ATOM     19  C   UNL     1       2.454  -2.648   0.676  0.00  0.00    +0.011 C 
ATOM     20  N   UNL     1       0.257  -1.889  -1.420  0.00  0.00    -0.295 N 
ATOM     21  C   UNL     1       0.924  -0.597  -1.200  0.00  0.00    +0.115 C 
ATOM     22  C   UNL     1       0.489  -2.732  -2.447  0.00  0.00    +0.254 C 
ATOM     23  O   UNL     1      -0.133  -3.770  -2.531  0.00  0.00    -0.272 OA
ENDBRANCH  10  22
ENDBRANCH   9  10
ENDBRANCH   7   9
ENDBRANCH   1   7
BRANCH   4  24
ATOM     24  N   UNL     1       2.909  -7.222  -9.459  0.00  0.00    -0.216 N 
ATOM     25  H   UNL     1       2.958  -8.159  -9.209  0.00  0.00    +0.174 HD
BRANCH  24  26
ATOM     26  S   UNL     1       2.956  -6.787 -11.056  0.00  0.00    +0.072 S 
ATOM     27  O   UNL     1       3.977  -5.807 -11.179  0.00  0.00    -0.150 OA
ATOM     28  O   UNL     1       2.963  -7.994 -11.805  0.00  0.00    -0.150 OA
BRANCH  26  29
ATOM     29  C   UNL     1       1.434  -5.978 -11.420  0.00  0.00    +0.112 A 
ATOM     30  C   UNL     1       0.319  -6.723 -11.756  0.00  0.00    +0.032 A 
ATOM     31  C   UNL     1      -0.876  -6.092 -12.043  0.00  0.00    +0.051 A 
ATOM     32  C   UNL     1      -0.961  -4.708 -11.995  0.00  0.00    +0.162 A 
ATOM     33  C   UNL     1       0.160  -3.959 -11.655  0.00  0.00    +0.164 A 
ATOM     34  C   UNL     1       1.355  -4.599 -11.365  0.00  0.00    +0.078 A 
ATOM     35  O   UNL     1       0.097  -2.601 -11.595  0.00  0.00    -0.485 OA
ATOM     36  C   UNL     1      -1.015  -1.978 -12.248  0.00  0.00    +0.270 C 
ATOM     37  C   UNL     1      -2.289  -2.741 -11.860  0.00  0.00    +0.270 C 
ATOM     38  O   UNL     1      -2.144  -4.100 -12.284  0.00  0.00    -0.485 OA
ENDBRANCH  26  29
ENDBRANCH  24  26
ENDBRANCH   4  24
TORSDOF 7
