REMARK  Name = ZINC39301998
REMARK  9 active torsions:
REMARK  status: ('A' for Active; 'I' for Inactive)
REMARK    1  A    between atoms: C_1  and  C_2
REMARK    2  A    between atoms: C_4  and  C_17
REMARK    3  A    between atoms: C_6  and  C_16
REMARK    4  A    between atoms: N_8  and  C_9
REMARK    5  A    between atoms: C_17  and  C_18
REMARK    6  A    between atoms: C_18  and  C_19
REMARK    7  A    between atoms: N_21  and  C_22
REMARK    8  A    between atoms: C_22  and  C_23
REMARK    9  A    between atoms: C_23  and  N_24
REMARK                            x       y       z     vdW  Elec       q    Type
REMARK                         _______ _______ _______ _____ _____    ______ ____
ROOT
ATOM      1  C   UNL     1      -3.442  -2.827  -2.279  0.00  0.00    +0.213 C 
ATOM      2  O   UNL     1      -2.553  -3.087  -3.061  0.00  0.00    -0.276 OA
ATOM      3  N   UNL     1      -4.673  -3.343  -2.462  0.00  0.00    -0.314 N 
ATOM      4  H   UNL     1      -5.385  -3.136  -1.837  0.00  0.00    +0.149 HD
ENDROOT
BRANCH   1   5
ATOM      5  C   UNL     1      -3.171  -1.927  -1.101  0.00  0.00    +0.096 C 
BRANCH   5   6
ATOM      6  C   UNL     1      -1.707  -1.482  -1.126  0.00  0.00    +0.020 C 
BRANCH   6   9
ATOM      7  C   UNL     1      -0.019   1.526   0.010  0.00  0.00    +0.031 C 
ATOM      8  C   UNL     1       0.002  -0.004   0.002  0.00  0.00    +0.104 C 
ATOM      9  C   UNL     1      -1.432  -0.568   0.070  0.00  0.00    +0.057 C 
ATOM     10  C   UNL     1      -1.448  -1.357   1.360  0.00  0.00    +0.039 C 
ATOM     11  N   UNL     1      -0.311  -1.284   1.922  0.00  0.00    -0.188 NA
ATOM     12  N   UNL     1       0.631  -0.522   1.228  0.00  0.00    -0.221 N 
ATOM     13  C   UNL     1      -2.634  -2.115   1.898  0.00  0.00    +0.063 C 
BRANCH  12  14
ATOM     14  C   UNL     1       1.948  -0.288   1.628  0.00  0.00    +0.055 A 
ATOM     15  C   UNL     1       2.784   0.499   0.845  0.00  0.00    +0.025 A 
ATOM     16  C   UNL     1       4.087   0.730   1.243  0.00  0.00    +0.005 A 
ATOM     17  C   UNL     1       4.560   0.178   2.419  0.00  0.00    +0.038 A 
ATOM     18  C   UNL     1       3.731  -0.607   3.203  0.00  0.00    +0.125 A 
ATOM     19  C   UNL     1       2.424  -0.836   2.813  0.00  0.00    +0.063 A 
ATOM     20  F   UNL     1       4.197  -1.144   4.351  0.00  0.00    -0.205 F 
ENDBRANCH  12  14
ENDBRANCH   6   9
ENDBRANCH   5   6
ENDBRANCH   1   5
BRANCH   3  21
ATOM     21  C   UNL     1      -4.937  -4.218  -3.608  0.00  0.00    +0.126 C 
BRANCH  21  22
ATOM     22  C   UNL     1      -6.401  -4.663  -3.583  0.00  0.00    +0.145 C 
BRANCH  22  23
ATOM     23  N   UNL     1      -6.665  -5.538  -4.728  0.00  0.00    -0.291 N 
ATOM     24  C   UNL     1      -7.090  -5.125  -5.988  0.00  0.00    +0.070 A 
ATOM     25  C   UNL     1      -7.380  -3.885  -6.535  0.00  0.00    +0.028 A 
ATOM     26  C   UNL     1      -7.791  -3.792  -7.851  0.00  0.00    +0.002 A 
ATOM     27  C   UNL     1      -7.916  -4.933  -8.624  0.00  0.00    +0.002 A 
ATOM     28  C   UNL     1      -7.630  -6.173  -8.088  0.00  0.00    +0.028 A 
ATOM     29  C   UNL     1      -7.216  -6.276  -6.769  0.00  0.00    +0.067 A 
ATOM     30  N   UNL     1      -6.862  -7.353  -5.959  0.00  0.00    -0.306 N 
ATOM     31  H   UNL     1      -6.852  -8.285  -6.226  0.00  0.00    +0.170 HD
ATOM     32  C   UNL     1      -6.531  -6.878  -4.743  0.00  0.00    +0.328 A 
ATOM     33  O   UNL     1      -6.170  -7.557  -3.800  0.00  0.00    -0.247 OA
ENDBRANCH  22  23
ENDBRANCH  21  22
ENDBRANCH   3  21
TORSDOF 7
