REMARK  Name = ZINC04691095
REMARK  4 active torsions:
REMARK  status: ('A' for Active; 'I' for Inactive)
REMARK    1  A    between atoms: C_4  and  N_22
REMARK    2  A    between atoms: C_5  and  C_7
REMARK    3  A    between atoms: C_10  and  C_12
REMARK    4  A    between atoms: N_14  and  C_15
REMARK                            x       y       z     vdW  Elec       q    Type
REMARK                         _______ _______ _______ _____ _____    ______ ____
ROOT
ATOM      1  C   UNL     1       1.281   1.813  -0.032  0.00  0.00    +0.138 A 
ATOM      2  C   UNL     1      -0.018   1.393  -0.023  0.00  0.00    +0.051 A 
ATOM      3  C   UNL     1       0.001  -0.005  -0.021  0.00  0.00    +0.055 A 
ATOM      4  C   UNL     1       1.326  -0.384  -0.029  0.00  0.00    +0.190 A 
ATOM      5  O   UNL     1       2.082   0.734  -0.036  0.00  0.00    -0.450 OA
ENDROOT
BRANCH   1  10
ATOM      6  C   UNL     1       1.625   5.435  -0.961  0.00  0.00    +0.001 A 
ATOM      7  C   UNL     1       2.576   5.857  -0.048  0.00  0.00    +0.002 A 
ATOM      8  C   UNL     1       3.107   4.968   0.869  0.00  0.00    +0.033 A 
ATOM      9  C   UNL     1       2.686   3.654   0.884  0.00  0.00    +0.137 A 
ATOM     10  C   UNL     1       1.731   3.220  -0.038  0.00  0.00    +0.047 A 
ATOM     11  C   UNL     1       1.200   4.123  -0.961  0.00  0.00    +0.014 A 
BRANCH   9  12
ATOM     12  N   UNL     1       3.251   2.705   1.870  0.00  0.00    +0.057 N 
ATOM     13  O   UNL     1       4.083   3.086   2.673  0.00  0.00    -0.126 OA
ATOM     14  O   UNL     1       2.882   1.544   1.878  0.00  0.00    -0.126 OA
ENDBRANCH   9  12
ENDBRANCH   1  10
BRANCH   4  15
ATOM     15  C   UNL     1       1.827  -1.761  -0.030  0.00  0.00    +0.284 C 
ATOM     16  O   UNL     1       1.044  -2.693  -0.022  0.00  0.00    -0.266 OA
ATOM     17  N   UNL     1       3.154  -1.995  -0.038  0.00  0.00    -0.278 N 
ATOM     18  H   UNL     1       3.777  -1.255  -0.110  0.00  0.00    +0.155 HD
BRANCH  17  19
ATOM     19  C   UNL     1       3.633  -3.305   0.057  0.00  0.00    +0.048 A 
ATOM     20  C   UNL     1       2.930  -4.348  -0.533  0.00  0.00    +0.024 A 
ATOM     21  C   UNL     1       3.409  -5.640  -0.442  0.00  0.00    +0.002 A 
ATOM     22  C   UNL     1       4.582  -5.899   0.244  0.00  0.00    +0.001 A 
ATOM     23  C   UNL     1       5.282  -4.864   0.837  0.00  0.00    +0.017 A 
ATOM     24  C   UNL     1       4.811  -3.568   0.745  0.00  0.00    +0.039 A 
ATOM     25 BR   UNL     1       5.769  -2.154   1.557  0.00  0.00    -0.048 Br
ENDBRANCH  17  19
ENDBRANCH   4  15
TORSDOF 4
