REMARK  Name = ZINC04003807
REMARK  8 active torsions:
REMARK  status: ('A' for Active; 'I' for Inactive)
REMARK    1  A    between atoms: C_1  and  O_2
REMARK    2  A    between atoms: O_2  and  C_3
REMARK    3  A    between atoms: C_7  and  C_11
REMARK    4  A    between atoms: C_8  and  O_9
REMARK    5  A    between atoms: O_9  and  C_10
REMARK    6  A    between atoms: C_22  and  S_27
REMARK    7  A    between atoms: S_27  and  N_30
REMARK    8  A    between atoms: N_30  and  C_31
REMARK                            x       y       z     vdW  Elec       q    Type
REMARK                         _______ _______ _______ _____ _____    ______ ____
ROOT
ATOM      1  C   UNL     1      -2.534   2.732  -0.862  0.00  0.00    +0.109 C 
ATOM      2  C   UNL     1      -2.099   2.665  -2.329  0.00  0.00    +0.029 C 
ATOM      3  C   UNL     1      -0.669   2.051  -2.360  0.00  0.00    +0.033 C 
ATOM      4  C   UNL     1       0.229   3.236  -2.059  0.00  0.00    -0.030 C 
ATOM      5  C   UNL     1      -0.388   4.359  -2.333  0.00  0.00    -0.023 C 
ATOM      6  C   UNL     1      -1.780   4.080  -2.848  0.00  0.00    +0.049 C 
ATOM      7  C   UNL     1      -2.754   5.110  -2.372  0.00  0.00    -0.018 A 
ATOM      8  C   UNL     1      -2.732   6.368  -2.959  0.00  0.00    +0.034 A 
ATOM      9  C   UNL     1      -3.615   7.348  -2.551  0.00  0.00    +0.109 A 
ATOM     10  C   UNL     1      -4.534   7.086  -1.551  0.00  0.00    +0.030 A 
ATOM     11  C   UNL     1      -4.565   5.839  -0.960  0.00  0.00    +0.025 A 
ATOM     12  C   UNL     1      -3.675   4.853  -1.369  0.00  0.00    +0.031 A 
ATOM     13  N   UNL     1      -3.715   3.596  -0.756  0.00  0.00    -0.336 N 
ATOM     14  H   UNL     1      -4.503   3.303  -0.273  0.00  0.00    +0.147 HD
ENDROOT
BRANCH   1  19
ATOM     15  C   UNL     1       0.352   3.007   1.572  0.00  0.00    +0.162 A 
ATOM     16  C   UNL     1       0.641   4.360   1.499  0.00  0.00    +0.049 A 
ATOM     17  C   UNL     1      -0.100   5.181   0.669  0.00  0.00    +0.004 A 
ATOM     18  C   UNL     1      -1.125   4.654  -0.094  0.00  0.00    +0.009 A 
ATOM     19  C   UNL     1      -1.415   3.303  -0.030  0.00  0.00    +0.018 A 
ATOM     20  C   UNL     1      -0.676   2.475   0.800  0.00  0.00    +0.166 A 
BRANCH  15  22
ATOM     21  C   UNL     1       2.117   2.813   3.155  0.00  0.00    +0.277 C 
ATOM     22  O   UNL     1       1.076   2.199   2.392  0.00  0.00    -0.491 OA
ENDBRANCH  15  22
BRANCH  20  23
ATOM     23  O   UNL     1      -0.960   1.147   0.864  0.00  0.00    -0.491 OA
ATOM     24  C   UNL     1       0.082   0.242   0.492  0.00  0.00    +0.277 C 
ENDBRANCH  20  23
ENDBRANCH   1  19
BRANCH   9  25
ATOM     25  S   UNL     1      -3.571   8.938  -3.307  0.00  0.00    +0.072 S 
ATOM     26  O   UNL     1      -2.875   8.785  -4.537  0.00  0.00    -0.150 OA
ATOM     27  O   UNL     1      -4.892   9.457  -3.239  0.00  0.00    -0.150 OA
BRANCH  25  28
ATOM     28  N   UNL     1      -2.631   9.909  -2.350  0.00  0.00    -0.216 N 
ATOM     29  H   UNL     1      -3.028  10.662  -1.885  0.00  0.00    +0.174 HD
BRANCH  28  30
ATOM     30  C   UNL     1      -1.265   9.644  -2.213  0.00  0.00    +0.048 A 
ATOM     31  C   UNL     1      -0.776   9.107  -1.028  0.00  0.00    +0.027 A 
ATOM     32  C   UNL     1       0.573   8.842  -0.897  0.00  0.00    +0.040 A 
ATOM     33  C   UNL     1       1.439   9.119  -1.940  0.00  0.00    +0.124 A 
ATOM     34  C   UNL     1       0.955   9.659  -3.120  0.00  0.00    +0.040 A 
ATOM     35  C   UNL     1      -0.394   9.922  -3.258  0.00  0.00    +0.027 A 
ATOM     36  F   UNL     1       2.759   8.863  -1.808  0.00  0.00    -0.205 F 
ENDBRANCH  28  30
ENDBRANCH  25  28
ENDBRANCH   9  25
TORSDOF 6
