REMARK  Name = ZINC13134091
REMARK  12 active torsions:
REMARK  status: ('A' for Active; 'I' for Inactive)
REMARK    1  A    between atoms: C_1  and  C_2
REMARK    2  A    between atoms: C_2  and  C_3
REMARK    3  A    between atoms: C_2  and  C_4
REMARK    4  A    between atoms: C_4  and  C_6
REMARK    5  A    between atoms: C_4  and  N_23
REMARK    6  A    between atoms: C_6  and  O_8
REMARK    7  A    between atoms: O_8  and  C_9
REMARK    8  A    between atoms: C_9  and  C_10
REMARK    9  A    between atoms: C_10  and  O_12
REMARK   10  A    between atoms: O_12  and  N_13
REMARK   11  A    between atoms: C_14  and  C_15
REMARK   12  A    between atoms: C_24  and  C_26
REMARK                            x       y       z     vdW  Elec       q    Type
REMARK                         _______ _______ _______ _____ _____    ______ ____
ROOT
ATOM      1  C   UNL     1      -2.139  -0.048   1.253  0.00  0.00    +0.328 C 
ATOM      2  O   UNL     1      -2.580  -0.843   2.048  0.00  0.00    -0.249 OA
ENDROOT
BRANCH   1   3
ATOM      3  C   UNL     1      -1.433  -0.534   0.013  0.00  0.00    +0.185 C 
BRANCH   3   4
ATOM      4  N   UNL     1      -1.413  -1.998   0.005  0.00  0.00    -0.298 N 
ATOM      5  C   UNL     1      -1.314  -2.665  -1.163  0.00  0.00    +0.246 C 
ATOM      6  O   UNL     1      -1.240  -2.050  -2.209  0.00  0.00    -0.270 OA
ATOM      7  H   UNL     1      -1.472  -2.489   0.840  0.00  0.00    +0.150 HD
BRANCH   5   8
ATOM      8  C   UNL     1      -1.294  -4.142  -1.171  0.00  0.00    +0.051 A 
ATOM      9  C   UNL     1      -1.384  -4.852   0.029  0.00  0.00    +0.014 A 
ATOM     10  C   UNL     1      -1.365  -6.231   0.014  0.00  0.00    +0.001 A 
ATOM     11  C   UNL     1      -1.257  -6.912  -1.186  0.00  0.00    +0.001 A 
ATOM     12  C   UNL     1      -1.167  -6.217  -2.378  0.00  0.00    +0.016 A 
ATOM     13  C   UNL     1      -1.190  -4.836  -2.378  0.00  0.00    +0.030 A 
ATOM     14 BR   UNL     1      -1.076  -3.887  -4.010  0.00  0.00    -0.050 Br
ENDBRANCH   5   8
ENDBRANCH   3   4
BRANCH   3  16
ATOM     15  C   UNL     1      -0.019   1.526   0.010  0.00  0.00    +0.009 C 
ATOM     16  C   UNL     1       0.002  -0.004   0.002  0.00  0.00    +0.014 C 
ATOM     17  C   UNL     1       0.742  -0.511   1.242  0.00  0.00    +0.009 C 
ENDBRANCH   3  16
ENDBRANCH   1   3
BRANCH   1  18
ATOM     18  O   UNL     1      -2.277   1.269   1.474  0.00  0.00    -0.452 OA
BRANCH  18  19
ATOM     19  C   UNL     1      -2.956   1.659   2.669  0.00  0.00    +0.355 C 
BRANCH  19  20
ATOM     20  C   UNL     1      -3.016   3.162   2.746  0.00  0.00    +0.373 C 
ATOM     21  O   UNL     1      -2.525   3.834   1.864  0.00  0.00    -0.244 OA
BRANCH  20  22
ATOM     22  O   UNL     1      -3.611   3.757   3.790  0.00  0.00    -0.312 OA
BRANCH  22  23
ATOM     23  N   UNL     1      -3.594   5.172   3.733  0.00  0.00    -0.059 NA
ATOM     24  C   UNL     1      -4.141   5.869   4.688  0.00  0.00    +0.163 C 
ATOM     25  N   UNL     1      -4.738   5.227   5.757  0.00  0.00    -0.340 N 
ATOM     26  H   UNL     1      -4.750   4.258   5.796  0.00  0.00    +0.144 HD
ATOM     27  H   UNL     1      -5.145   5.746   6.468  0.00  0.00    +0.144 HD
BRANCH  24  28
ATOM     28  C   UNL     1      -4.122   7.347   4.628  0.00  0.00    +0.018 A 
ATOM     29  C   UNL     1      -3.526   7.997   3.548  0.00  0.00    +0.014 A 
ATOM     30  C   UNL     1      -3.511   9.375   3.497  0.00  0.00    +0.039 A 
ATOM     31  C   UNL     1      -4.088  10.114   4.518  0.00  0.00    +0.123 A 
ATOM     32  C   UNL     1      -4.682   9.474   5.593  0.00  0.00    +0.039 A 
ATOM     33  C   UNL     1      -4.707   8.096   5.650  0.00  0.00    +0.014 A 
ATOM     34  F   UNL     1      -4.071  11.464   4.464  0.00  0.00    -0.205 F 
ENDBRANCH  24  28
ENDBRANCH  22  23
ENDBRANCH  20  22
ENDBRANCH  19  20
ENDBRANCH  18  19
ENDBRANCH   1  18
TORSDOF 10
