REMARK  Name = ZINC43527755
REMARK  12 active torsions:
REMARK  status: ('A' for Active; 'I' for Inactive)
REMARK    1  A    between atoms: C_1  and  C_2
REMARK    2  A    between atoms: C_2  and  C_3
REMARK    3  A    between atoms: C_3  and  N_4
REMARK    4  A    between atoms: C_5  and  O_7
REMARK    5  A    between atoms: O_7  and  C_8
REMARK    6  A    between atoms: C_8  and  C_9
REMARK    7  A    between atoms: C_18  and  C_20
REMARK    8  A    between atoms: C_22  and  C_27
REMARK    9  A    between atoms: C_24  and  C_26
REMARK   10  A    between atoms: C_30  and  N_33
REMARK   11  A    between atoms: N_33  and  C_34
REMARK   12  A    between atoms: N_33  and  C_35
REMARK                            x       y       z     vdW  Elec       q    Type
REMARK                         _______ _______ _______ _____ _____    ______ ____
ROOT
ATOM      1  C   UNL     1      -3.596  -6.214   0.003  0.00  0.00    -0.030 C 
ATOM      2  C   UNL     1      -2.826  -6.606  -1.260  0.00  0.00    -0.008 C 
ATOM      3  C   UNL     1      -1.510  -7.279  -0.847  0.00  0.00    -0.007 C 
ATOM      4  C   UNL     1      -0.699  -6.282  -0.009  0.00  0.00    -0.015 C 
ATOM      5  C   UNL     1      -1.526  -5.878   1.214  0.00  0.00    -0.078 C 
ATOM      6  N   UNL     1      -2.836  -6.603   1.193  0.00  0.00    +0.384 N 
ATOM      7  C   UNL     1      -2.642  -8.054   1.230  0.00  0.00    -0.068 C 
ATOM      8  C   UNL     1      -1.841  -8.507   0.010  0.00  0.00    +0.024 C 
ATOM      9  H   UNL     1      -3.365  -6.338   2.011  0.00  0.00    -0.081 HD
ENDROOT
BRANCH   8  10
ATOM     10  C   UNL     1      -0.564  -9.168   0.461  0.00  0.00    +0.047 A 
ATOM     11  C   UNL     1       0.087  -8.728   1.599  0.00  0.00    +0.052 A 
ATOM     12  C   UNL     1       1.269  -9.373   1.977  0.00  0.00    +0.075 A 
ATOM     13  N   UNL     1       1.718 -10.381   1.231  0.00  0.00    -0.232 NA
ATOM     14  C   UNL     1       1.063 -10.765   0.156  0.00  0.00    +0.127 A 
ATOM     15  N   UNL     1      -0.056 -10.181  -0.224  0.00  0.00    -0.237 NA
ATOM     16  C   UNL     1       1.606 -11.910  -0.661  0.00  0.00    +0.088 C 
BRANCH  12  17
ATOM     17  C   UNL     1       2.008  -8.942   3.187  0.00  0.00    +0.001 A 
ATOM     18  C   UNL     1       1.524  -7.888   3.962  0.00  0.00    +0.012 A 
ATOM     19  C   UNL     1       2.214  -7.489   5.087  0.00  0.00    +0.024 A 
ATOM     20  C   UNL     1       3.391  -8.136   5.448  0.00  0.00    +0.029 A 
ATOM     21  C   UNL     1       3.875  -9.186   4.676  0.00  0.00    +0.024 A 
ATOM     22  C   UNL     1       3.186  -9.593   3.554  0.00  0.00    +0.012 A 
BRANCH  20  23
ATOM     23  N   UNL     1       4.087  -7.730   6.585  0.00  0.00    -0.336 N 
ATOM     24  C   UNL     1       3.578  -6.623   7.399  0.00  0.00    +0.129 C 
ATOM     25  C   UNL     1       5.327  -8.410   6.967  0.00  0.00    +0.129 C 
ENDBRANCH  20  23
ENDBRANCH  12  17
ENDBRANCH   8  10
BRANCH   1  26
ATOM     26  C   UNL     1      -3.817  -4.700   0.013  0.00  0.00    +0.218 C 
BRANCH  26  27
ATOM     27  O   UNL     1      -4.581  -4.338   1.165  0.00  0.00    -0.452 OA
BRANCH  27  29
ATOM     28  N   UNL     1      -5.582  -2.623   2.390  0.00  0.00    -0.281 N 
ATOM     29  C   UNL     1      -4.865  -3.032   1.325  0.00  0.00    +0.400 C 
ATOM     30  O   UNL     1      -4.475  -2.221   0.508  0.00  0.00    -0.226 OA
ATOM     31  H   UNL     1      -5.893  -3.270   3.042  0.00  0.00    +0.152 HD
BRANCH  28  32
ATOM     32  C   UNL     1      -5.891  -1.202   2.564  0.00  0.00    +0.107 C 
BRANCH  32  34
ATOM     33  C   UNL     1      -7.031   0.475   4.024  0.00  0.00    +0.005 C 
ATOM     34  C   UNL     1      -6.709  -1.010   3.842  0.00  0.00    +0.015 C 
ENDBRANCH  32  34
ENDBRANCH  28  32
ENDBRANCH  27  29
ENDBRANCH  26  27
ENDBRANCH   1  26
TORSDOF 8
