REMARK  Name = ZINC13640492
REMARK  8 active torsions:
REMARK  status: ('A' for Active; 'I' for Inactive)
REMARK    1  A    between atoms: C_1  and  C_2
REMARK    2  A    between atoms: C_2  and  C_3
REMARK    3  A    between atoms: C_3  and  C_5
REMARK    4  A    between atoms: C_3  and  N_6
REMARK    5  A    between atoms: C_7  and  C_9
REMARK    6  A    between atoms: C_22  and  C_25
REMARK    7  A    between atoms: C_28  and  O_32
REMARK    8  A    between atoms: C_30  and  O_31
REMARK                            x       y       z     vdW  Elec       q    Type
REMARK                         _______ _______ _______ _____ _____    ______ ____
ROOT
ATOM      1  C   UNL     1       0.002  -0.004   0.002  0.00  0.00    +0.037 A 
ATOM      2  C   UNL     1       1.226  -0.679  -0.013  0.00  0.00    +0.015 A 
ATOM      3  C   UNL     1       2.403   0.030  -0.013  0.00  0.00    +0.024 A 
ATOM      4  C   UNL     1       2.389   1.424   0.003  0.00  0.00    +0.031 A 
ATOM      5  C   UNL     1       1.160   2.100   0.002  0.00  0.00    -0.019 A 
ATOM      6  C   UNL     1      -0.017   1.393   0.010  0.00  0.00    +0.019 A 
ATOM      7  C   UNL     1       1.196   3.579  -0.029  0.00  0.00    +0.049 C 
ATOM      8  C   UNL     1       0.095   4.406   0.526  0.00  0.00    -0.023 C 
ATOM      9  C   UNL     1       0.607   5.543   0.981  0.00  0.00    -0.030 C 
ATOM     10  C   UNL     1       2.125   5.547   0.790  0.00  0.00    +0.033 C 
ATOM     11  C   UNL     1       2.424   4.045   0.810  0.00  0.00    +0.029 C 
ATOM     12  C   UNL     1       3.644   3.592   0.028  0.00  0.00    +0.108 C 
ATOM     13  N   UNL     1       3.600   2.114   0.038  0.00  0.00    -0.336 N 
ATOM     14  H   UNL     1       4.431   1.615   0.070  0.00  0.00    +0.147 HD
ENDROOT
BRANCH  12  15
ATOM     15  C   UNL     1       3.574   4.104  -1.387  0.00  0.00    +0.015 A 
ATOM     16  C   UNL     1       3.060   3.301  -2.388  0.00  0.00    +0.012 A 
ATOM     17  C   UNL     1       2.991   3.770  -3.685  0.00  0.00    +0.046 A 
ATOM     18  C   UNL     1       3.448   5.045  -3.990  0.00  0.00    +0.120 A 
ATOM     19  C   UNL     1       3.969   5.850  -2.989  0.00  0.00    +0.091 A 
ATOM     20  C   UNL     1       4.032   5.380  -1.686  0.00  0.00    +0.125 A 
BRANCH  20  21
ATOM     21  O   UNL     1       4.542   6.167  -0.703  0.00  0.00    -0.506 OA
ATOM     22  H   UNL     1       5.495   6.069  -0.575  0.00  0.00    +0.292 HD
ENDBRANCH  20  21
BRANCH  18  23
ATOM     23  O   UNL     1       3.384   5.503  -5.267  0.00  0.00    -0.507 OA
ATOM     24  H   UNL     1       4.171   5.310  -5.794  0.00  0.00    +0.292 HD
ENDBRANCH  18  23
ENDBRANCH  12  15
BRANCH   1  26
ATOM     25  N   UNL     1      -1.241  -2.110   0.002  0.00  0.00    -0.309 N 
ATOM     26  C   UNL     1      -1.263  -0.763   0.009  0.00  0.00    +0.244 C 
ATOM     27  O   UNL     1      -2.326  -0.172   0.022  0.00  0.00    -0.270 OA
ATOM     28  H   UNL     1      -0.393  -2.581  -0.008  0.00  0.00    +0.149 HD
BRANCH  25  29
ATOM     29  C   UNL     1      -2.497  -2.864   0.009  0.00  0.00    +0.070 C 
ATOM     30  C   UNL     1      -3.012  -3.010  -1.425  0.00  0.00    +0.028 C 
BRANCH  29  32
ATOM     31  C   UNL     1      -1.863  -4.108   2.080  0.00  0.00    +0.005 C 
ATOM     32  C   UNL     1      -2.257  -4.250   0.609  0.00  0.00    +0.018 C 
ENDBRANCH  29  32
ENDBRANCH  25  29
ENDBRANCH   1  26
TORSDOF 6
