REMARK  Name = ZINC63623006
REMARK  9 active torsions:
REMARK  status: ('A' for Active; 'I' for Inactive)
REMARK    1  A    between atoms: C_7  and  C_10
REMARK    2  A    between atoms: C_10  and  C_11
REMARK    3  A    between atoms: C_11  and  C_13
REMARK    4  A    between atoms: C_11  and  N_26
REMARK    5  A    between atoms: C_13  and  O_15
REMARK    6  A    between atoms: O_15  and  C_16
REMARK    7  A    between atoms: C_16  and  C_17
REMARK    8  A    between atoms: C_17  and  C_19
REMARK    9  A    between atoms: C_27  and  C_29
REMARK                            x       y       z     vdW  Elec       q    Type
REMARK                         _______ _______ _______ _____ _____    ______ ____
ROOT
ATOM      1  C   UNL     1       0.457  -3.653  -1.462  0.00  0.00    +0.186 C 
ENDROOT
BRANCH   1   2
ATOM      2  N   UNL     1       1.712  -4.162  -2.020  0.00  0.00    -0.296 N 
ATOM      3  C   UNL     1       2.336  -5.203  -1.437  0.00  0.00    +0.280 C 
ATOM      4  O   UNL     1       1.857  -5.722  -0.445  0.00  0.00    -0.267 OA
ATOM      5  H   UNL     1       2.094  -3.748  -2.811  0.00  0.00    +0.150 HD
BRANCH   3   6
ATOM      6  C   UNL     1       3.593  -5.712  -1.996  0.00  0.00    +0.189 A 
ATOM      7  C   UNL     1       4.322  -6.759  -1.509  0.00  0.00    +0.054 A 
ATOM      8  C   UNL     1       5.440  -6.897  -2.347  0.00  0.00    +0.042 A 
ATOM      9  C   UNL     1       5.345  -5.940  -3.297  0.00  0.00    +0.196 A 
ATOM     10  O   UNL     1       4.228  -5.231  -3.085  0.00  0.00    -0.458 OA
ENDBRANCH   3   6
ENDBRANCH   1   2
BRANCH   1  11
ATOM     11  C   UNL     1      -0.578  -4.750  -1.471  0.00  0.00    +0.328 C 
ATOM     12  O   UNL     1      -0.233  -5.905  -1.548  0.00  0.00    -0.249 OA
BRANCH  11  13
ATOM     13  O   UNL     1      -1.882  -4.442  -1.395  0.00  0.00    -0.455 OA
BRANCH  13  14
ATOM     14  C   UNL     1      -2.807  -5.531  -1.409  0.00  0.00    +0.311 C 
BRANCH  14  15
ATOM     15  C   UNL     1      -4.213  -4.997  -1.315  0.00  0.00    +0.200 C 
ATOM     16  O   UNL     1      -4.404  -3.802  -1.244  0.00  0.00    -0.288 OA
BRANCH  15  17
ATOM     17  C   UNL     1      -5.354  -5.926  -1.311  0.00  0.00    +0.021 A 
ATOM     18  C   UNL     1      -5.137  -7.306  -1.388  0.00  0.00    +0.012 A 
ATOM     19  C   UNL     1      -6.211  -8.170  -1.383  0.00  0.00    +0.016 A 
ATOM     20  C   UNL     1      -7.502  -7.676  -1.303  0.00  0.00    +0.018 A 
ATOM     21  C   UNL     1      -7.725  -6.311  -1.226  0.00  0.00    +0.016 A 
ATOM     22  C   UNL     1      -6.661  -5.434  -1.225  0.00  0.00    +0.012 A 
ATOM     23 BR   UNL     1      -8.968  -8.870  -1.298  0.00  0.00    -0.050 Br
ENDBRANCH  15  17
ENDBRANCH  14  15
ENDBRANCH  13  14
ENDBRANCH  11  13
ENDBRANCH   1  11
BRANCH   1  24
ATOM     24  C   UNL     1       0.691  -3.186  -0.024  0.00  0.00    +0.067 C 
BRANCH  24  31
ATOM     25  C   UNL     1      -0.016   1.348   0.009  0.00  0.00    +0.001 A 
ATOM     26  C   UNL     1       1.166   2.101   0.002  0.00  0.00    +0.002 A 
ATOM     27  C   UNL     1       2.391   1.535  -0.013  0.00  0.00    +0.026 A 
ATOM     28  C   UNL     1       2.529   0.120  -0.022  0.00  0.00    +0.043 A 
ATOM     29  N   UNL     1       3.587  -0.654  -0.037  0.00  0.00    -0.380 N 
ATOM     30  C   UNL     1       3.143  -2.053  -0.041  0.00  0.00    +0.144 C 
ATOM     31  C   UNL     1       1.631  -2.008  -0.025  0.00  0.00    -0.039 C 
ATOM     32  C   UNL     1       1.295  -0.698  -0.014  0.00  0.00    -0.001 A 
ATOM     33  C   UNL     1       0.002  -0.004   0.002  0.00  0.00    +0.010 A 
ATOM     34  H   UNL     1       4.509  -0.353  -0.045  0.00  0.00    +0.160 HD
ENDBRANCH  24  31
ENDBRANCH   1  24
TORSDOF 9
