REMARK  Name = ZINC06144291
REMARK  10 active torsions:
REMARK  status: ('A' for Active; 'I' for Inactive)
REMARK    1  A    between atoms: C_1  and  C_2
REMARK    2  A    between atoms: C_7  and  C_9
REMARK    3  A    between atoms: C_7  and  C_10
REMARK    4  A    between atoms: C_13  and  C_15
REMARK    5  A    between atoms: C_15  and  O_16
REMARK    6  A    between atoms: O_16  and  C_17
REMARK    7  A    between atoms: C_17  and  C_19
REMARK    8  A    between atoms: C_22  and  N_25
REMARK    9  A    between atoms: N_25  and  S_26
REMARK   10  A    between atoms: S_26  and  C_29
REMARK                            x       y       z     vdW  Elec       q    Type
REMARK                         _______ _______ _______ _____ _____    ______ ____
ROOT
ATOM      1  C   UNL     1      -6.868  -4.394  -1.079  0.00  0.00    +0.059 A 
ATOM      2  C   UNL     1      -6.421  -5.472  -1.850  0.00  0.00    +0.017 A 
ATOM      3  C   UNL     1      -7.293  -6.472  -2.196  0.00  0.00    +0.025 A 
ATOM      4  C   UNL     1      -8.621  -6.415  -1.782  0.00  0.00    +0.048 A 
ATOM      5  C   UNL     1      -9.069  -5.343  -1.015  0.00  0.00    +0.025 A 
ATOM      6  C   UNL     1      -8.201  -4.342  -0.660  0.00  0.00    +0.017 A 
ENDROOT
BRANCH   1   7
ATOM      7  C   UNL     1      -5.934  -3.317  -0.705  0.00  0.00    +0.340 C 
ATOM      8  O   UNL     1      -6.322  -2.383  -0.031  0.00  0.00    -0.245 OA
BRANCH   7   9
ATOM      9  O   UNL     1      -4.649  -3.369  -1.109  0.00  0.00    -0.452 OA
BRANCH   9  10
ATOM     10  C   UNL     1      -3.800  -2.291  -0.710  0.00  0.00    +0.328 C 
BRANCH  10  22
ATOM     11  C   UNL     1      -0.257   1.805  -0.128  0.00  0.00    +0.013 C 
ATOM     12  C   UNL     1      -0.184   0.271  -0.174  0.00  0.00    -0.014 C 
ATOM     13  C   UNL     1       0.470  -0.250  -1.483  0.00  0.00    +0.030 C 
ATOM     14  C   UNL     1      -0.035  -1.715  -1.459  0.00  0.00    +0.077 C 
ATOM     15  C   UNL     1       0.791  -2.461  -0.413  0.00  0.00    +0.029 C 
ATOM     16  C   UNL     1       0.753  -1.827   0.966  0.00  0.00    -0.033 C 
ATOM     17  C   UNL     1       0.605  -0.317   0.995  0.00  0.00    +0.014 C 
ATOM     18  C   UNL     1       2.096  -2.168   1.660  0.00  0.00    +0.011 C 
ATOM     19  C   UNL     1      -0.349  -2.482   1.810  0.00  0.00    +0.011 C 
ATOM     20  N   UNL     1      -1.434  -1.625  -0.998  0.00  0.00    -0.295 N 
ATOM     21  C   UNL     1      -1.583  -0.383  -0.224  0.00  0.00    +0.115 C 
ATOM     22  C   UNL     1      -2.411  -2.519  -1.250  0.00  0.00    +0.254 C 
ATOM     23  O   UNL     1      -2.173  -3.507  -1.913  0.00  0.00    -0.272 OA
ENDBRANCH  10  22
ENDBRANCH   9  10
ENDBRANCH   7   9
ENDBRANCH   1   7
BRANCH   4  24
ATOM     24  N   UNL     1      -9.503  -7.430  -2.136  0.00  0.00    -0.216 N 
ATOM     25  H   UNL     1      -9.527  -7.754  -3.050  0.00  0.00    +0.174 HD
BRANCH  24  26
ATOM     26  S   UNL     1     -10.510  -8.086  -0.997  0.00  0.00    +0.072 S 
ATOM     27  O   UNL     1     -11.190  -7.000  -0.382  0.00  0.00    -0.150 OA
ATOM     28  O   UNL     1     -11.200  -9.154  -1.632  0.00  0.00    -0.150 OA
BRANCH  26  29
ATOM     29  C   UNL     1      -9.492  -8.811   0.244  0.00  0.00    +0.112 A 
ATOM     30  C   UNL     1      -9.005 -10.094   0.076  0.00  0.00    +0.032 A 
ATOM     31  C   UNL     1      -8.207 -10.666   1.048  0.00  0.00    +0.051 A 
ATOM     32  C   UNL     1      -7.891  -9.954   2.195  0.00  0.00    +0.162 A 
ATOM     33  C   UNL     1      -8.378  -8.664   2.364  0.00  0.00    +0.164 A 
ATOM     34  C   UNL     1      -9.176  -8.094   1.383  0.00  0.00    +0.078 A 
ATOM     35  O   UNL     1      -8.074  -7.944   3.479  0.00  0.00    -0.485 OA
ATOM     36  C   UNL     1      -7.577  -8.679   4.603  0.00  0.00    +0.270 C 
ATOM     37  C   UNL     1      -6.504  -9.655   4.103  0.00  0.00    +0.270 C 
ATOM     38  O   UNL     1      -7.107 -10.533   3.146  0.00  0.00    -0.485 OA
ENDBRANCH  26  29
ENDBRANCH  24  26
ENDBRANCH   4  24
TORSDOF 7
