REMARK  Name = ZINC18200958
REMARK  3 active torsions:
REMARK  status: ('A' for Active; 'I' for Inactive)
REMARK    1  A    between atoms: C_4  and  C_7
REMARK    2  A    between atoms: C_10  and  C_13
REMARK    3  A    between atoms: C_18  and  C_23
REMARK                            x       y       z     vdW  Elec       q    Type
REMARK                         _______ _______ _______ _____ _____    ______ ____
ROOT
ATOM      1  C   UNL     1       3.671   2.192  -0.022  0.00  0.00    +0.177 C 
ATOM      2  C   UNL     1       3.725   3.065  -1.257  0.00  0.00    +0.041 C 
ATOM      3  C   UNL     1       3.567   4.402  -1.201  0.00  0.00    +0.020 C 
ATOM      4  C   UNL     1       3.634   5.246  -2.452  0.00  0.00    +0.060 C 
ATOM      5  C   UNL     1       3.133   4.435  -3.648  0.00  0.00    +0.032 C 
ATOM      6  C   UNL     1       4.003   3.180  -3.779  0.00  0.00    +0.088 C 
ATOM      7  C   UNL     1       3.952   2.415  -2.486  0.00  0.00    +0.164 C 
ATOM      8  O   UNL     1       4.110   1.210  -2.502  0.00  0.00    -0.292 OA
ATOM      9  N   UNL     1       3.344   5.057  -0.012  0.00  0.00    -0.286 N 
ATOM     10  C   UNL     1       3.585   4.367   1.164  0.00  0.00    +0.240 A 
ATOM     11  N   UNL     1       3.747   3.018   1.173  0.00  0.00    -0.201 N 
ATOM     12  N   UNL     1       3.979   2.679   2.505  0.00  0.00    -0.042 NA
ATOM     13  N   UNL     1       3.940   3.784   3.178  0.00  0.00    -0.021 NA
ATOM     14  N   UNL     1       3.707   4.780   2.393  0.00  0.00    -0.092 NA
ATOM     15  H   UNL     1       3.027   5.973   0.002  0.00  0.00    +0.155 HD
ENDROOT
BRANCH   1  19
ATOM     16  C   UNL     1       0.002  -0.004   0.002  0.00  0.00    -0.018 A 
ATOM     17  C   UNL     1      -0.017   1.389   0.010  0.00  0.00    +0.009 A 
ATOM     18  C   UNL     1       1.170   2.093   0.002  0.00  0.00    +0.006 A 
ATOM     19  C   UNL     1       2.377   1.418  -0.013  0.00  0.00    -0.018 A 
ATOM     20  C   UNL     1       2.402   0.035  -0.021  0.00  0.00    +0.006 A 
ATOM     21  C   UNL     1       1.221  -0.679  -0.013  0.00  0.00    +0.009 A 
BRANCH  16  25
ATOM     22  C   UNL     1      -3.647  -2.188   0.027  0.00  0.00    +0.000 A 
ATOM     23  C   UNL     1      -2.440  -2.863   0.011  0.00  0.00    +0.001 A 
ATOM     24  C   UNL     1      -1.252  -2.159   0.003  0.00  0.00    +0.008 A 
ATOM     25  C   UNL     1      -1.271  -0.766   0.011  0.00  0.00    -0.018 A 
ATOM     26  C   UNL     1      -2.490  -0.091   0.032  0.00  0.00    +0.008 A 
ATOM     27  C   UNL     1      -3.671  -0.805   0.035  0.00  0.00    +0.001 A 
ENDBRANCH  16  25
ENDBRANCH   1  19
BRANCH   5  28
ATOM     28  C   UNL     1       3.240   5.262  -4.903  0.00  0.00    -0.044 A 
ATOM     29  C   UNL     1       4.471   5.738  -5.314  0.00  0.00    +0.004 A 
ATOM     30  C   UNL     1       4.571   6.493  -6.467  0.00  0.00    +0.000 A 
ATOM     31  C   UNL     1       3.438   6.779  -7.206  0.00  0.00    +0.000 A 
ATOM     32  C   UNL     1       2.206   6.307  -6.793  0.00  0.00    +0.000 A 
ATOM     33  C   UNL     1       2.107   5.548  -5.641  0.00  0.00    +0.004 A 
ENDBRANCH   5  28
TORSDOF 3
