REMARK  Name = ZINC20182457
REMARK  11 active torsions:
REMARK  status: ('A' for Active; 'I' for Inactive)
REMARK    1  A    between atoms: C_1  and  C_2
REMARK    2  A    between atoms: C_2  and  C_3
REMARK    3  A    between atoms: C_3  and  C_4
REMARK    4  A    between atoms: C_4  and  N_5
REMARK    5  A    between atoms: C_6  and  C_8
REMARK    6  A    between atoms: C_8  and  C_9
REMARK    7  A    between atoms: C_9  and  C_10
REMARK    8  A    between atoms: C_24  and  S_25
REMARK    9  A    between atoms: S_25  and  C_26
REMARK   10  A    between atoms: C_26  and  C_27
REMARK   11  A    between atoms: N_29  and  C_30
REMARK                            x       y       z     vdW  Elec       q    Type
REMARK                         _______ _______ _______ _____ _____    ______ ____
ROOT
ATOM      1  C   UNL     1      -4.264   5.301   0.006  0.00  0.00    +0.194 C 
ATOM      2  C   UNL     1      -4.778   3.877   0.016  0.00  0.00    +0.251 C 
ATOM      3  O   UNL     1      -5.935   3.514   0.034  0.00  0.00    -0.272 OA
ATOM      4  N   UNL     1      -3.675   3.095   0.002  0.00  0.00    -0.200 N 
ATOM      5  C   UNL     1      -2.532   3.876  -0.016  0.00  0.00    +0.139 C 
ATOM      6  N   UNL     1      -2.803   5.151  -0.015  0.00  0.00    -0.255 NA
ATOM      7  C   UNL     1      -1.231   3.173  -0.033  0.00  0.00    +0.041 A 
ATOM      8  C   UNL     1      -0.028   3.871  -0.052  0.00  0.00    +0.013 A 
ATOM      9  C   UNL     1       1.162   3.174  -0.068  0.00  0.00    +0.001 A 
ATOM     10  C   UNL     1       1.166   1.787  -0.065  0.00  0.00    +0.002 A 
ATOM     11  C   UNL     1      -0.015   1.078  -0.047  0.00  0.00    +0.028 A 
ATOM     12  C   UNL     1      -1.233   1.763  -0.036  0.00  0.00    +0.077 A 
ATOM     13  N   UNL     1      -2.415   1.098  -0.012  0.00  0.00    -0.225 NA
ATOM     14  C   UNL     1      -3.563   1.720   0.003  0.00  0.00    +0.169 C 
ENDROOT
BRANCH   1  15
ATOM     15  C   UNL     1      -4.713   6.042   1.267  0.00  0.00    +0.045 C 
BRANCH  15  16
ATOM     16  C   UNL     1      -4.288   7.509   1.174  0.00  0.00    +0.098 C 
BRANCH  16  18
ATOM     17  N   UNL     1      -4.463   9.553   2.557  0.00  0.00    -0.315 N 
ATOM     18  C   UNL     1      -4.731   8.239   2.416  0.00  0.00    +0.213 C 
ATOM     19  O   UNL     1      -5.326   7.645   3.290  0.00  0.00    -0.276 OA
ATOM     20  H   UNL     1      -3.923  10.092   1.765  0.00  0.00    +0.149 HD
BRANCH  17  21
ATOM     21  C   UNL     1      -4.893  10.262   3.764  0.00  0.00    +0.104 C 
BRANCH  21  22
ATOM     22  C   UNL     1      -4.469  11.729   3.672  0.00  0.00    +0.018 C 
BRANCH  22  24
ATOM     23  C   UNL     1      -4.493  13.938   4.840  0.00  0.00    +0.004 C 
ATOM     24  C   UNL     1      -4.917  12.471   4.933  0.00  0.00    -0.002 C 
ENDBRANCH  22  24
ENDBRANCH  21  22
ENDBRANCH  17  21
ENDBRANCH  16  18
ENDBRANCH  15  16
ENDBRANCH   1  15
BRANCH  14  25
ATOM     25  S   UNL     1      -5.039   0.757   0.026  0.00  0.00    -0.080 S 
BRANCH  25  26
ATOM     26  C   UNL     1      -4.329  -0.907   0.019  0.00  0.00    +0.173 C 
BRANCH  26  27
ATOM     27  C   UNL     1      -5.438  -1.927   0.037  0.00  0.00    +0.228 C 
ATOM     28  O   UNL     1      -6.596  -1.564   0.053  0.00  0.00    -0.275 OA
ATOM     29  N   UNL     1      -5.145  -3.242   0.036  0.00  0.00    -0.283 N 
ATOM     30  H   UNL     1      -4.100  -3.573  -0.053  0.00  0.00    +0.155 HD
BRANCH  29  31
ATOM     31  C   UNL     1      -6.171  -4.189   0.146  0.00  0.00    +0.069 A 
ATOM     32  C   UNL     1      -7.409  -3.944  -0.432  0.00  0.00    +0.026 A 
ATOM     33  C   UNL     1      -8.419  -4.879  -0.322  0.00  0.00    +0.002 A 
ATOM     34  C   UNL     1      -8.200  -6.060   0.364  0.00  0.00    +0.003 A 
ATOM     35  C   UNL     1      -6.969  -6.309   0.942  0.00  0.00    +0.040 A 
ATOM     36  C   UNL     1      -5.951  -5.379   0.831  0.00  0.00    +0.144 A 
ATOM     37  F   UNL     1      -4.746  -5.624   1.391  0.00  0.00    -0.204 F 
ENDBRANCH  29  31
ENDBRANCH  26  27
ENDBRANCH  25  26
ENDBRANCH  14  25
TORSDOF 10
