REMARK  Name = ZINC20203714
REMARK  12 active torsions:
REMARK  status: ('A' for Active; 'I' for Inactive)
REMARK    1  A    between atoms: C_1  and  C_2
REMARK    2  A    between atoms: C_9  and  C_22
REMARK    3  A    between atoms: C_10  and  C_11
REMARK    4  A    between atoms: C_11  and  N_12
REMARK    5  A    between atoms: N_12  and  C_13
REMARK    6  A    between atoms: C_13  and  C_14
REMARK    7  A    between atoms: C_16  and  C_21
REMARK    8  A    between atoms: C_18  and  C_20
REMARK    9  A    between atoms: N_24  and  C_25
REMARK   10  A    between atoms: N_24  and  C_26
REMARK   11  A    between atoms: C_26  and  C_27
REMARK   12  A    between atoms: C_27  and  C_28
REMARK                            x       y       z     vdW  Elec       q    Type
REMARK                         _______ _______ _______ _____ _____    ______ ____
ROOT
ATOM      1  C   UNL     1      -0.965   1.563   0.143  0.00  0.00    +0.047 C 
ATOM      2  C   UNL     1      -1.027   0.057   0.133  0.00  0.00    -0.008 A 
ATOM      3  C   UNL     1      -1.280  -0.611  -1.023  0.00  0.00    +0.008 A 
ATOM      4  C   UNL     1      -1.335  -2.016  -1.018  0.00  0.00    +0.018 A 
ATOM      5  C   UNL     1      -1.139  -2.702   0.126  0.00  0.00    +0.093 A 
ATOM      6  N   UNL     1      -0.884  -2.044   1.297  0.00  0.00    -0.301 N 
ATOM      7  C   UNL     1      -0.818  -0.673   1.323  0.00  0.00    +0.142 A 
ATOM      8  N   UNL     1      -0.554  -0.292   2.561  0.00  0.00    -0.223 NA
ATOM      9  C   UNL     1      -0.442  -1.383   3.342  0.00  0.00    +0.149 A 
ATOM     10  C   UNL     1      -0.654  -2.486   2.565  0.00  0.00    +0.069 A 
ENDROOT
BRANCH   9  11
ATOM     11  C   UNL     1      -0.152  -1.386   4.789  0.00  0.00    +0.267 C 
ATOM     12  O   UNL     1      -0.192  -2.428   5.415  0.00  0.00    -0.268 OA
ATOM     13  N   UNL     1       0.157  -0.234   5.417  0.00  0.00    -0.299 N 
ATOM     14  C   UNL     1       0.132   1.032   4.679  0.00  0.00    +0.132 C 
BRANCH  13  15
ATOM     15  C   UNL     1       0.516  -0.247   6.837  0.00  0.00    +0.112 C 
BRANCH  15  16
ATOM     16  C   UNL     1       2.029  -0.431   6.978  0.00  0.00    +0.054 C 
BRANCH  16  17
ATOM     17  C   UNL     1       2.399  -0.445   8.438  0.00  0.00    -0.046 A 
ATOM     18  C   UNL     1       2.710   0.737   9.084  0.00  0.00    +0.004 A 
ATOM     19  C   UNL     1       3.050   0.724  10.424  0.00  0.00    +0.000 A 
ATOM     20  C   UNL     1       3.078  -0.471  11.118  0.00  0.00    +0.000 A 
ATOM     21  C   UNL     1       2.766  -1.653  10.473  0.00  0.00    +0.000 A 
ATOM     22  C   UNL     1       2.422  -1.639   9.134  0.00  0.00    +0.004 A 
ENDBRANCH  16  17
ENDBRANCH  15  16
ENDBRANCH  13  15
ENDBRANCH   9  11
BRANCH  10  23
ATOM     23  C   UNL     1      -0.624  -3.922   3.021  0.00  0.00    +0.137 C 
BRANCH  23  24
ATOM     24  N   UNL     1       0.745  -4.444   2.904  0.00  0.00    -0.304 NA
ATOM     25  H   UNL     1       1.091  -4.342   1.962  0.00  0.00    +0.123 HD
BRANCH  24  26
ATOM     26  C   UNL     1       0.813  -5.845   3.341  0.00  0.00    +0.158 C 
BRANCH  26  27
ATOM     27  C   UNL     1       2.228  -6.344   3.207  0.00  0.00    +0.143 A 
ATOM     28  N   UNL     1       2.608  -6.899   2.073  0.00  0.00    -0.236 NA
ATOM     29  C   UNL     1       3.842  -7.349   1.918  0.00  0.00    +0.042 A 
ATOM     30  C   UNL     1       4.739  -7.231   2.969  0.00  0.00    +0.046 A 
ATOM     31  C   UNL     1       4.303  -6.643   4.145  0.00  0.00    +0.042 A 
ATOM     32  N   UNL     1       3.055  -6.211   4.224  0.00  0.00    -0.236 NA
ATOM     33  C   UNL     1       5.239  -6.492   5.316  0.00  0.00    +0.066 C 
ATOM     34  C   UNL     1       4.268  -7.982   0.618  0.00  0.00    +0.066 C 
ENDBRANCH  26  27
ENDBRANCH  24  26
ENDBRANCH  23  24
ENDBRANCH  10  23
TORSDOF 8
