REMARK  Name = ZINC38984102
REMARK  10 active torsions:
REMARK  status: ('A' for Active; 'I' for Inactive)
REMARK    1  A    between atoms: C_1  and  C_2
REMARK    2  A    between atoms: C_2  and  C_3
REMARK    3  A    between atoms: C_3  and  C_5
REMARK    4  A    between atoms: C_3  and  C_6
REMARK    5  A    between atoms: C_9  and  N_12
REMARK    6  A    between atoms: N_12  and  C_13
REMARK    7  A    between atoms: N_16  and  S_17
REMARK    8  A    between atoms: S_17  and  C_20
REMARK    9  A    between atoms: C_22  and  C_27
REMARK   10  A    between atoms: C_25  and  C_26
REMARK                            x       y       z     vdW  Elec       q    Type
REMARK                         _______ _______ _______ _____ _____    ______ ____
ROOT
ATOM      1  C   UNL     1      -0.116  -6.828   2.646  0.00  0.00    +0.237 C 
ATOM      2  C   UNL     1       0.909  -7.834   3.118  0.00  0.00    +0.192 C 
ATOM      3  N   UNL     1       2.115  -7.454   3.421  0.00  0.00    -0.110 NA
ATOM      4  N   UNL     1       0.556  -9.125   3.220  0.00  0.00    -0.226 NA
ATOM      5  C   UNL     1      -0.658  -9.534   2.919  0.00  0.00    +0.089 A 
ATOM      6  C   UNL     1      -0.997 -10.906   3.038  0.00  0.00    +0.030 A 
ATOM      7  C   UNL     1      -2.241 -11.332   2.731  0.00  0.00    +0.002 A 
ATOM      8  C   UNL     1      -3.252 -10.465   2.285  0.00  0.00    +0.002 A 
ATOM      9  C   UNL     1      -3.037  -9.139   2.136  0.00  0.00    +0.027 A 
ATOM     10  C   UNL     1      -1.707  -8.596   2.450  0.00  0.00    +0.063 A 
ATOM     11  N   UNL     1      -1.462  -7.322   2.319  0.00  0.00    -0.359 N 
ATOM     12  H   UNL     1      -2.153  -6.714   2.012  0.00  0.00    +0.162 HD
ENDROOT
BRANCH   3  13
ATOM     13  S   UNL     1       3.229  -8.566   3.937  0.00  0.00    +0.101 S 
ATOM     14  O   UNL     1       2.770  -9.048   5.192  0.00  0.00    -0.146 OA
ATOM     15  O   UNL     1       3.482  -9.428   2.836  0.00  0.00    -0.146 OA
BRANCH  13  16
ATOM     16  C   UNL     1       4.728  -7.695   4.250  0.00  0.00    +0.116 A 
ATOM     17  C   UNL     1       5.232  -7.626   5.536  0.00  0.00    +0.032 A 
ATOM     18  C   UNL     1       6.409  -6.943   5.781  0.00  0.00    -0.049 A 
ATOM     19  C   UNL     1       7.082  -6.329   4.741  0.00  0.00    +0.004 A 
ATOM     20  C   UNL     1       6.578  -6.399   3.456  0.00  0.00    +0.005 A 
ATOM     21  C   UNL     1       5.404  -7.086   3.209  0.00  0.00    -0.024 A 
ATOM     22  C   UNL     1       4.858  -7.166   1.807  0.00  0.00    +0.046 C 
ATOM     23  C   UNL     1       6.957  -6.867   7.183  0.00  0.00    +0.044 C 
ENDBRANCH  13  16
ENDBRANCH   3  13
BRANCH   1  24
ATOM     24  N   UNL     1       0.420  -6.169   1.453  0.00  0.00    -0.318 N 
ATOM     25  H   UNL     1       0.754  -6.701   0.713  0.00  0.00    +0.148 HD
BRANCH  24  29
ATOM     26  C   UNL     1       0.516  -2.012   1.236  0.00  0.00    -0.044 A 
ATOM     27  C   UNL     1      -0.140  -2.633   2.283  0.00  0.00    +0.006 A 
ATOM     28  C   UNL     1      -0.173  -4.011   2.358  0.00  0.00    +0.023 A 
ATOM     29  C   UNL     1       0.452  -4.774   1.380  0.00  0.00    +0.029 A 
ATOM     30  C   UNL     1       1.110  -4.147   0.330  0.00  0.00    +0.023 A 
ATOM     31  C   UNL     1       1.135  -2.768   0.258  0.00  0.00    +0.006 A 
BRANCH  26  32
ATOM     32  C   UNL     1       0.551  -0.507   1.158  0.00  0.00    +0.016 C 
ATOM     33  C   UNL     1      -0.879   0.033   1.079  0.00  0.00    +0.012 C 
BRANCH  32  35
ATOM     34  C   UNL     1       1.387   1.570   2.268  0.00  0.00    +0.004 C 
ATOM     35  C   UNL     1       1.240   0.053   2.404  0.00  0.00    +0.004 C 
ENDBRANCH  32  35
ENDBRANCH  26  32
ENDBRANCH  24  29
ENDBRANCH   1  24
TORSDOF 6
