REMARK  Name = ZINC49759722
REMARK  5 active torsions:
REMARK  status: ('A' for Active; 'I' for Inactive)
REMARK    1  A    between atoms: C_1  and  C_2
REMARK    2  A    between atoms: C_2  and  N_3
REMARK    3  A    between atoms: C_5  and  C_12
REMARK    4  A    between atoms: N_20  and  C_23
REMARK    5  A    between atoms: C_23  and  N_24
REMARK                            x       y       z     vdW  Elec       q    Type
REMARK                         _______ _______ _______ _____ _____    ______ ____
ROOT
ATOM      1  C   UNL     1      -4.332  -1.758   1.649  0.00  0.00    +0.023 C 
ATOM      2  C   UNL     1      -4.069  -1.903   2.996  0.00  0.00    +0.047 C 
ATOM      3  C   UNL     1      -4.964  -2.466   4.032  0.00  0.00    +0.009 A 
ATOM      4  C   UNL     1      -6.252  -2.990   3.998  0.00  0.00    +0.012 A 
ATOM      5  C   UNL     1      -6.836  -3.449   5.161  0.00  0.00    +0.021 A 
ATOM      6  C   UNL     1      -6.141  -3.386   6.359  0.00  0.00    +0.043 A 
ATOM      7  C   UNL     1      -4.862  -2.868   6.403  0.00  0.00    +0.044 A 
ATOM      8  C   UNL     1      -4.257  -2.401   5.241  0.00  0.00    +0.047 A 
ATOM      9  N   UNL     1      -3.007  -1.843   5.009  0.00  0.00    -0.253 N 
ATOM     10  C   UNL     1      -2.840  -1.538   3.711  0.00  0.00    +0.253 C 
ATOM     11  O   UNL     1      -1.844  -1.041   3.214  0.00  0.00    -0.270 OA
ATOM     12 CL   UNL     1      -6.885  -3.965   7.816  0.00  0.00    -0.083 Cl
ENDROOT
BRANCH   1  15
ATOM     13  N   UNL     1      -1.925   0.423   0.086  0.00  0.00    -0.346 N 
ATOM     14  C   UNL     1      -2.697   0.064   1.139  0.00  0.00    +0.094 A 
ATOM     15  C   UNL     1      -3.414  -1.071   0.819  0.00  0.00    +0.001 A 
ATOM     16  C   UNL     1      -3.033  -1.424  -0.563  0.00  0.00    +0.007 A 
ATOM     17  C   UNL     1      -2.105  -0.451  -0.968  0.00  0.00    +0.050 A 
ATOM     18  C   UNL     1      -1.562  -0.519  -2.247  0.00  0.00    +0.026 A 
ATOM     19  C   UNL     1      -1.939  -1.532  -3.102  0.00  0.00    +0.002 A 
ATOM     20  C   UNL     1      -2.859  -2.489  -2.701  0.00  0.00    +0.001 A 
ATOM     21  C   UNL     1      -3.402  -2.443  -1.435  0.00  0.00    +0.010 A 
BRANCH  13  23
ATOM     22  C   UNL     1      -1.755   2.776  -0.558  0.00  0.00    +0.027 C 
ATOM     23  C   UNL     1      -1.029   1.581   0.065  0.00  0.00    +0.118 C 
ENDBRANCH  13  23
ENDBRANCH   1  15
BRANCH   9  24
ATOM     24  C   UNL     1      -1.996  -1.621   6.046  0.00  0.00    +0.201 C 
BRANCH  24  25
ATOM     25  N   UNL     1      -1.138  -2.808   6.156  0.00  0.00    -0.286 NA
ATOM     26  C   UNL     1      -0.542  -2.903   7.492  0.00  0.00    +0.091 C 
ATOM     27  C   UNL     1       0.298  -4.164   7.628  0.00  0.00    +0.024 C 
ATOM     28  C   UNL     1       1.363  -4.229   6.529  0.00  0.00    +0.017 C 
ATOM     29  C   UNL     1       0.639  -4.154   5.179  0.00  0.00    +0.050 C 
ATOM     30  C   UNL     1      -0.103  -2.810   5.111  0.00  0.00    +0.095 C 
ATOM     31  C   UNL     1      -0.390  -5.260   5.106  0.00  0.00    +0.026 A 
ATOM     32  C   UNL     1      -0.702  -5.746   3.876  0.00  0.00    +0.022 A 
ATOM     33  C   UNL     1      -1.692  -6.723   3.728  0.00  0.00    +0.007 A 
ATOM     34  C   UNL     1      -2.355  -7.163   4.836  0.00  0.00    +0.070 A 
ATOM     35  C   UNL     1      -2.010  -6.639   6.090  0.00  0.00    +0.251 A 
ATOM     36  O   UNL     1      -2.638  -6.978   7.080  0.00  0.00    -0.268 OA
ATOM     37  N   UNL     1      -0.986  -5.759   6.213  0.00  0.00    -0.312 N 
ATOM     38  C   UNL     1      -0.554  -5.421   7.565  0.00  0.00    +0.130 C 
ENDBRANCH  24  25
ENDBRANCH   9  24
TORSDOF 4
