REMARK  Name = ZINC34920059
REMARK  10 active torsions:
REMARK  status: ('A' for Active; 'I' for Inactive)
REMARK    1  A    between atoms: C_1  and  O_2
REMARK    2  A    between atoms: O_2  and  C_3
REMARK    3  A    between atoms: C_5  and  C_11
REMARK    4  A    between atoms: C_7  and  O_9
REMARK    5  A    between atoms: O_9  and  C_10
REMARK    6  A    between atoms: C_11  and  C_13
REMARK    7  A    between atoms: C_11  and  C_23
REMARK    8  A    between atoms: C_13  and  C_14
REMARK    9  A    between atoms: N_16  and  C_17
REMARK   10  A    between atoms: C_17  and  C_18
REMARK                            x       y       z     vdW  Elec       q    Type
REMARK                         _______ _______ _______ _____ _____    ______ ____
ROOT
ATOM      1  C   UNL     1       1.341  -4.085  -2.275  0.00  0.00    +0.076 C 
ENDROOT
BRANCH   1   2
ATOM      2  C   UNL     1       2.759  -4.579  -2.408  0.00  0.00    +0.044 A 
ATOM      3  C   UNL     1       3.481  -4.656  -3.544  0.00  0.00    +0.106 A 
ATOM      4  N   UNL     1       4.692  -5.147  -3.234  0.00  0.00    -0.349 N 
ATOM      5  C   UNL     1       4.747  -5.376  -1.955  0.00  0.00    +0.087 A 
ATOM      6  N   UNL     1       3.561  -5.029  -1.402  0.00  0.00    -0.332 N 
ATOM      7  C   UNL     1       3.238  -5.138   0.023  0.00  0.00    +0.123 C 
ATOM      8  C   UNL     1       4.255  -6.071   0.690  0.00  0.00    +0.022 C 
ATOM      9  C   UNL     1       5.674  -5.631   0.317  0.00  0.00    +0.009 C 
ATOM     10  C   UNL     1       5.915  -5.927  -1.171  0.00  0.00    +0.072 C 
ATOM     11  H   UNL     1       5.412  -5.306  -3.865  0.00  0.00    +0.166 HD
ENDBRANCH   1   2
BRANCH   1  14
ATOM     12  C   UNL     1       0.728  -0.605  -0.934  0.00  0.00    +0.124 A 
ATOM     13  C   UNL     1       0.728  -1.987  -1.059  0.00  0.00    +0.050 A 
ATOM     14  C   UNL     1       1.343  -2.584  -2.142  0.00  0.00    -0.031 A 
ATOM     15  C   UNL     1       1.960  -1.807  -3.104  0.00  0.00    +0.050 A 
ATOM     16  C   UNL     1       1.963  -0.425  -2.984  0.00  0.00    +0.124 A 
ATOM     17  C   UNL     1       1.341   0.177  -1.901  0.00  0.00    +0.091 A 
BRANCH  12  19
ATOM     18  C   UNL     1       0.158   1.409   0.193  0.00  0.00    +0.277 C 
ATOM     19  O   UNL     1       0.124  -0.018   0.132  0.00  0.00    -0.495 OA
ENDBRANCH  12  19
BRANCH  16  20
ATOM     20  O   UNL     1       2.570   0.339  -3.930  0.00  0.00    -0.495 OA
ATOM     21  C   UNL     1       2.534   1.755  -3.743  0.00  0.00    +0.277 C 
ENDBRANCH  16  20
ENDBRANCH   1  14
BRANCH   1  22
ATOM     22  C   UNL     1       0.543  -4.486  -3.517  0.00  0.00    +0.110 C 
BRANCH  22  23
ATOM     23  C   UNL     1       0.412  -5.987  -3.567  0.00  0.00    +0.214 C 
ATOM     24  O   UNL     1       0.979  -6.673  -2.743  0.00  0.00    -0.276 OA
ATOM     25  N   UNL     1      -0.335  -6.566  -4.528  0.00  0.00    -0.308 N 
ATOM     26  H   UNL     1      -0.788  -6.018  -5.187  0.00  0.00    +0.149 HD
BRANCH  25  27
ATOM     27  C   UNL     1      -0.462  -8.025  -4.577  0.00  0.00    +0.178 C 
BRANCH  27  28
ATOM     28  C   UNL     1      -1.343  -8.414  -5.736  0.00  0.00    +0.122 A 
ATOM     29  C   UNL     1      -0.926  -8.677  -6.987  0.00  0.00    +0.046 A 
ATOM     30  C   UNL     1      -2.077  -8.997  -7.744  0.00  0.00    +0.041 A 
ATOM     31  C   UNL     1      -3.129  -8.911  -6.909  0.00  0.00    +0.195 A 
ATOM     32  O   UNL     1      -2.677  -8.563  -5.692  0.00  0.00    -0.466 OA
ENDBRANCH  27  28
ENDBRANCH  25  27
ENDBRANCH  22  23
ENDBRANCH   1  22
TORSDOF 8
