REMARK  Name = ZINC66498869
REMARK  10 active torsions:
REMARK  status: ('A' for Active; 'I' for Inactive)
REMARK    1  A    between atoms: C_1  and  C_2
REMARK    2  A    between atoms: C_2  and  C_3
REMARK    3  A    between atoms: C_2  and  C_4
REMARK    4  A    between atoms: N_11  and  C_12
REMARK    5  A    between atoms: C_12  and  C_13
REMARK    6  A    between atoms: N_15  and  C_16
REMARK    7  A    between atoms: C_21  and  C_22
REMARK    8  A    between atoms: C_22  and  C_23
REMARK    9  A    between atoms: C_22  and  C_24
REMARK   10  A    between atoms: C_22  and  C_25
REMARK                            x       y       z     vdW  Elec       q    Type
REMARK                         _______ _______ _______ _____ _____    ______ ____
ROOT
ATOM      1  C   UNL     1       3.588  -3.966   0.407  0.00  0.00    +0.201 C 
ATOM      2  O   UNL     1       3.204  -4.546   1.400  0.00  0.00    -0.278 OA
ATOM      3  N   UNL     1       3.914  -4.665  -0.699  0.00  0.00    -0.287 N 
ATOM      4  H   UNL     1       4.295  -4.209  -1.466  0.00  0.00    +0.155 HD
ENDROOT
BRANCH   3   5
ATOM      5  C   UNL     1       3.704  -6.047  -0.740  0.00  0.00    +0.037 A 
ATOM      6  C   UNL     1       2.840  -6.647   0.168  0.00  0.00    +0.023 A 
ATOM      7  C   UNL     1       2.635  -8.012   0.124  0.00  0.00    +0.002 A 
ATOM      8  C   UNL     1       3.288  -8.781  -0.821  0.00  0.00    +0.000 A 
ATOM      9  C   UNL     1       4.150  -8.188  -1.725  0.00  0.00    +0.006 A 
ATOM     10  C   UNL     1       4.354  -6.822  -1.691  0.00  0.00    -0.021 A 
BRANCH  10  11
ATOM     11  C   UNL     1       5.287  -6.174  -2.681  0.00  0.00    -0.011 C 
ATOM     12  C   UNL     1       5.984  -7.257  -3.509  0.00  0.00    +0.015 C 
ATOM     13  C   UNL     1       4.489  -5.257  -3.610  0.00  0.00    +0.015 C 
ATOM     14  C   UNL     1       6.337  -5.352  -1.931  0.00  0.00    +0.015 C 
ENDBRANCH  10  11
ENDBRANCH   3   5
BRANCH   1  15
ATOM     15  C   UNL     1       3.702  -2.463   0.409  0.00  0.00    +0.020 C 
BRANCH  15  22
ATOM     16  C   UNL     1       3.269  -0.476   1.682  0.00  0.00    +0.023 C 
ATOM     17  C   UNL     1       3.054   0.072   3.065  0.00  0.00    +0.200 C 
ATOM     18  O   UNL     1       2.679   1.219   3.185  0.00  0.00    -0.278 OA
ATOM     19  N   UNL     1       3.260  -0.655   4.169  0.00  0.00    -0.318 N 
ATOM     20  C   UNL     1       3.684  -2.052   4.125  0.00  0.00    +0.085 C 
ATOM     21  C   UNL     1       4.255  -2.379   2.743  0.00  0.00    -0.058 C 
ATOM     22  N   UNL     1       3.292  -1.943   1.721  0.00  0.00    +0.394 N 
ATOM     23  H   UNL     1       3.121  -0.238   5.034  0.00  0.00    +0.149 HD
ATOM     24  H   UNL     1       2.372  -2.289   1.951  0.00  0.00    -0.080 HD
BRANCH  16  26
ATOM     25  C   UNL     1       0.788  -0.354   1.414  0.00  0.00    +0.006 C 
ATOM     26  C   UNL     1       2.133  -0.009   0.770  0.00  0.00    -0.022 C 
ATOM     27  C   UNL     1       2.229   1.504   0.569  0.00  0.00    +0.006 C 
ENDBRANCH  16  26
ENDBRANCH  15  22
ENDBRANCH   1  15
TORSDOF 5
