REMARK  Name = ZINC43231772
REMARK  4 active torsions:
REMARK  status: ('A' for Active; 'I' for Inactive)
REMARK    1  A    between atoms: C_1  and  C_2
REMARK    2  A    between atoms: C_2  and  C_4
REMARK    3  A    between atoms: C_2  and  N_13
REMARK    4  A    between atoms: N_16  and  C_17
REMARK                            x       y       z     vdW  Elec       q    Type
REMARK                         _______ _______ _______ _____ _____    ______ ____
ROOT
ATOM      1  N   UNL     1      -1.367  -0.528   0.013  0.00  0.00    -0.293 N 
ATOM      2  C   UNL     1      -2.027  -0.659   1.181  0.00  0.00    +0.304 C 
ATOM      3  O   UNL     1      -1.481  -0.361   2.225  0.00  0.00    -0.252 OA
ATOM      4  N   UNL     1      -3.293  -1.122   1.190  0.00  0.00    -0.267 N 
ATOM      5  H   UNL     1      -1.802  -0.765  -0.820  0.00  0.00    +0.151 HD
ATOM      6  H   UNL     1      -3.757  -1.282   0.354  0.00  0.00    +0.156 HD
ENDROOT
BRANCH   4   7
ATOM      7  C   UNL     1      -3.939  -1.371   2.409  0.00  0.00    +0.073 A 
ATOM      8  C   UNL     1      -3.194  -1.647   3.547  0.00  0.00    +0.029 A 
ATOM      9  C   UNL     1      -3.831  -1.893   4.748  0.00  0.00    +0.043 A 
ATOM     10  C   UNL     1      -5.213  -1.864   4.819  0.00  0.00    +0.161 A 
ATOM     11  C   UNL     1      -5.962  -1.589   3.686  0.00  0.00    +0.195 A 
ATOM     12  C   UNL     1      -5.327  -1.336   2.481  0.00  0.00    +0.182 A 
ATOM     13  F   UNL     1      -6.055  -1.061   1.377  0.00  0.00    -0.200 F 
ATOM     14  F   UNL     1      -7.311  -1.561   3.757  0.00  0.00    -0.199 F 
ATOM     15  F   UNL     1      -5.833  -2.106   5.995  0.00  0.00    -0.202 F 
ENDBRANCH   4   7
BRANCH   1  17
ATOM     16  C   UNL     1      -0.006   1.505  -0.002  0.00  0.00    +0.033 C 
ATOM     17  C   UNL     1       0.009  -0.025   0.003  0.00  0.00    +0.102 C 
BRANCH  17  18
ATOM     18  C   UNL     1       0.717  -0.524  -1.231  0.00  0.00    -0.024 A 
ATOM     19  C   UNL     1       0.049  -0.563  -2.441  0.00  0.00    +0.009 A 
ATOM     20  C   UNL     1       0.694  -1.020  -3.575  0.00  0.00    +0.050 A 
ATOM     21  C   UNL     1       2.013  -1.440  -3.501  0.00  0.00    +0.166 A 
ATOM     22  C   UNL     1       2.685  -1.401  -2.282  0.00  0.00    +0.167 A 
ATOM     23  C   UNL     1       2.034  -0.936  -1.151  0.00  0.00    +0.055 A 
ATOM     24  O   UNL     1       3.956  -1.861  -2.470  0.00  0.00    -0.453 OA
ATOM     25  C   UNL     1       3.928  -2.565  -3.726  0.00  0.00    +0.466 C 
ATOM     26  O   UNL     1       2.862  -1.925  -4.453  0.00  0.00    -0.453 OA
ENDBRANCH  17  18
ENDBRANCH   1  17
TORSDOF 3
