REMARK  Name = ZINC00929671
REMARK  8 active torsions:
REMARK  status: ('A' for Active; 'I' for Inactive)
REMARK    1  A    between atoms: C_1  and  C_2
REMARK    2  A    between atoms: C_14  and  S_18
REMARK    3  A    between atoms: S_18  and  C_19
REMARK    4  A    between atoms: C_19  and  C_20
REMARK    5  A    between atoms: N_22  and  C_23
REMARK    6  A    between atoms: C_26  and  N_29
REMARK    7  A    between atoms: N_29  and  C_30
REMARK    8  A    between atoms: N_29  and  C_31
REMARK                            x       y       z     vdW  Elec       q    Type
REMARK                         _______ _______ _______ _____ _____    ______ ____
ROOT
ATOM      1  C   UNL     1       4.224  -1.985 -10.104  0.00  0.00    +0.008 C 
ATOM      2  C   UNL     1       3.170  -1.609  -9.061  0.00  0.00    -0.009 C 
ATOM      3  C   UNL     1       3.860  -1.066  -7.806  0.00  0.00    +0.008 C 
ATOM      4  C   UNL     1       2.843  -0.923  -6.673  0.00  0.00    +0.037 C 
ATOM      5  C   UNL     1       1.659  -0.101  -7.175  0.00  0.00    -0.024 A 
ATOM      6  C   UNL     1       1.442   0.048  -8.503  0.00  0.00    -0.004 A 
ATOM      7  S   UNL     1      -0.011   1.060  -8.606  0.00  0.00    -0.073 S 
ATOM      8  C   UNL     1      -0.295   1.261  -6.864  0.00  0.00    +0.114 A 
ATOM      9  C   UNL     1       0.754   0.531  -6.285  0.00  0.00    +0.056 A 
ATOM     10  C   UNL     1       0.764   0.527  -4.806  0.00  0.00    +0.173 A 
ATOM     11  N   UNL     1       1.542  -0.015  -3.902  0.00  0.00    -0.128 NA
ATOM     12  N   UNL     1       1.113   0.287  -2.725  0.00  0.00    -0.122 NA
ATOM     13  C   UNL     1       0.039   1.037  -2.810  0.00  0.00    +0.198 A 
ATOM     14  N   UNL     1      -0.228   1.213  -4.140  0.00  0.00    -0.260 N 
ATOM     15  C   UNL     1      -1.189   1.889  -4.833  0.00  0.00    +0.208 A 
ATOM     16  N   UNL     1      -1.207   1.898  -6.135  0.00  0.00    -0.230 NA
ATOM     17  C   UNL     1       2.250  -0.518  -9.628  0.00  0.00    +0.046 C 
ENDROOT
BRANCH  13  18
ATOM     18  S   UNL     1      -0.890   1.690  -1.462  0.00  0.00    -0.076 S 
BRANCH  18  19
ATOM     19  C   UNL     1      -0.016   1.084   0.007  0.00  0.00    +0.173 C 
BRANCH  19  20
ATOM     20  C   UNL     1      -0.717   1.576   1.247  0.00  0.00    +0.227 C 
ATOM     21  O   UNL     1      -1.708   2.268   1.149  0.00  0.00    -0.275 OA
ATOM     22  N   UNL     1      -0.241   1.248   2.465  0.00  0.00    -0.285 N 
ATOM     23  H   UNL     1       0.511   0.641   2.545  0.00  0.00    +0.155 HD
BRANCH  22  24
ATOM     24  C   UNL     1      -0.834   1.784   3.616  0.00  0.00    +0.034 A 
ATOM     25  C   UNL     1      -0.052   2.087   4.723  0.00  0.00    +0.025 A 
ATOM     26  C   UNL     1      -0.635   2.620   5.855  0.00  0.00    +0.025 A 
ATOM     27  C   UNL     1      -2.005   2.844   5.891  0.00  0.00    +0.029 A 
ATOM     28  C   UNL     1      -2.788   2.536   4.786  0.00  0.00    +0.025 A 
ATOM     29  C   UNL     1      -2.204   2.008   3.652  0.00  0.00    +0.025 A 
BRANCH  27  30
ATOM     30  N   UNL     1      -2.597   3.379   7.040  0.00  0.00    -0.336 N 
ATOM     31  C   UNL     1      -4.054   3.513   7.119  0.00  0.00    +0.129 C 
ATOM     32  C   UNL     1      -1.760   3.806   8.164  0.00  0.00    +0.129 C 
ENDBRANCH  27  30
ENDBRANCH  22  24
ENDBRANCH  19  20
ENDBRANCH  18  19
ENDBRANCH  13  18
TORSDOF 5
