REMARK  Name = ZINC13570712
REMARK  13 active torsions:
REMARK  status: ('A' for Active; 'I' for Inactive)
REMARK    1  A    between atoms: C_1  and  O_2
REMARK    2  A    between atoms: O_2  and  C_3
REMARK    3  A    between atoms: C_5  and  C_13
REMARK    4  A    between atoms: C_7  and  O_11
REMARK    5  A    between atoms: C_8  and  O_9
REMARK    6  A    between atoms: O_9  and  C_10
REMARK    7  A    between atoms: O_11  and  C_12
REMARK    8  A    between atoms: N_15  and  C_16
REMARK    9  A    between atoms: C_16  and  C_18
REMARK   10  A    between atoms: C_16  and  C_22
REMARK   11  A    between atoms: C_18  and  C_19
REMARK   12  A    between atoms: C_19  and  S_20
REMARK   13  A    between atoms: S_20  and  C_21
REMARK                            x       y       z     vdW  Elec       q    Type
REMARK                         _______ _______ _______ _____ _____    ______ ____
ROOT
ATOM      1  C   UNL     1      -7.290   0.385   0.059  0.00  0.00    +0.160 C 
ENDROOT
BRANCH   1   2
ATOM      2  C   UNL     1      -8.348  -0.530   0.619  0.00  0.00    +0.236 C 
ATOM      3  O   UNL     1      -8.130  -1.719   0.721  0.00  0.00    -0.274 OA
ATOM      4  N   UNL     1      -9.538  -0.027   1.005  0.00  0.00    -0.300 N 
ATOM      5  C   UNL     1      -9.861   1.388   0.779  0.00  0.00    +0.110 C 
ATOM      6  C   UNL     1     -10.285   2.015   2.111  0.00  0.00    +0.047 C 
ATOM      7  C   UNL     1     -11.425   1.197   2.716  0.00  0.00    +0.064 C 
ATOM      8  C   UNL     1     -10.953  -0.233   2.983  0.00  0.00    +0.047 C 
ATOM      9  C   UNL     1     -10.537  -0.885   1.655  0.00  0.00    +0.110 C 
ATOM     10  C   UNL     1     -11.876   1.832   4.007  0.00  0.00    +0.057 A 
ATOM     11  C   UNL     1     -13.006   2.568   4.114  0.00  0.00    +0.039 A 
ATOM     12  N   UNL     1     -13.097   2.976   5.407  0.00  0.00    -0.349 N 
ATOM     13  H   UNL     1     -13.802   3.520   5.792  0.00  0.00    +0.166 HD
ATOM     14  C   UNL     1     -12.018   2.478   6.055  0.00  0.00    +0.171 A 
ATOM     15  N   UNL     1     -11.294   1.795   5.206  0.00  0.00    -0.348 N 
ATOM     16  C   UNL     1     -13.935   2.839   2.959  0.00  0.00    +0.070 C 
ATOM     17  C   UNL     1     -13.186   2.500   1.662  0.00  0.00    +0.088 C 
ATOM     18  N   UNL     1     -12.564   1.174   1.784  0.00  0.00    -0.305 NA
ATOM     19  H   UNL     1     -12.285   0.821   0.881  0.00  0.00    +0.123 HD
ATOM     20  H   UNL     1     -10.466   1.335   5.415  0.00  0.00    +0.166 HD
ENDBRANCH   1   2
BRANCH   1  23
ATOM     21  C   UNL     1      -4.869   0.544   0.293  0.00  0.00    +0.245 C 
ATOM     22  O   UNL     1      -4.969   1.752   0.202  0.00  0.00    -0.270 OA
ATOM     23  N   UNL     1      -5.971  -0.230   0.234  0.00  0.00    -0.300 N 
ATOM     24  H   UNL     1      -5.891  -1.194   0.306  0.00  0.00    +0.150 HD
BRANCH  21  27
ATOM     25  C   UNL     1      -1.155   0.143   0.695  0.00  0.00    +0.166 A 
ATOM     26  C   UNL     1      -2.398   0.725   0.530  0.00  0.00    +0.062 A 
ATOM     27  C   UNL     1      -3.541  -0.076   0.468  0.00  0.00    +0.044 A 
ATOM     28  C   UNL     1      -3.425  -1.464   0.574  0.00  0.00    +0.062 A 
ATOM     29  C   UNL     1      -2.180  -2.042   0.739  0.00  0.00    +0.166 A 
ATOM     30  C   UNL     1      -1.042  -1.241   0.794  0.00  0.00    +0.204 A 
BRANCH  25  32
ATOM     31  C   UNL     1      -0.232   2.334   0.646  0.00  0.00    +0.277 C 
ATOM     32  O   UNL     1      -0.042   0.922   0.754  0.00  0.00    -0.491 OA
ENDBRANCH  25  32
BRANCH  30  33
ATOM     33  O   UNL     1       0.181  -1.812   0.951  0.00  0.00    -0.488 OA
ATOM     34  C   UNL     1       0.641  -2.004   2.291  0.00  0.00    +0.277 C 
ENDBRANCH  30  33
BRANCH  29  35
ATOM     35  O   UNL     1      -2.066  -3.393   0.842  0.00  0.00    -0.491 OA
ATOM     36  C   UNL     1      -3.274  -4.153   0.771  0.00  0.00    +0.277 C 
ENDBRANCH  29  35
ENDBRANCH  21  27
ENDBRANCH   1  23
BRANCH   1  37
ATOM     37  C   UNL     1      -7.551   0.617  -1.430  0.00  0.00    +0.042 C 
BRANCH  37  38
ATOM     38  C   UNL     1      -6.563   1.655  -1.966  0.00  0.00    +0.071 C 
BRANCH  38  39
ATOM     39  S   UNL     1      -6.873   1.930  -3.732  0.00  0.00    -0.164 S 
ATOM     40  C   UNL     1      -5.635   3.168  -4.207  0.00  0.00    +0.084 C 
ENDBRANCH  38  39
ENDBRANCH  37  38
ENDBRANCH   1  37
TORSDOF 9
