REMARK  Name = ZINC24709785
REMARK  5 active torsions:
REMARK  status: ('A' for Active; 'I' for Inactive)
REMARK    1  A    between atoms: C_1  and  C_2
REMARK    2  A    between atoms: C_2  and  C_3
REMARK    3  A    between atoms: C_3  and  C_25
REMARK    4  A    between atoms: N_6  and  C_10
REMARK    5  A    between atoms: C_10  and  C_11
REMARK                            x       y       z     vdW  Elec       q    Type
REMARK                         _______ _______ _______ _____ _____    ______ ____
ROOT
ATOM      1  C   UNL     1      -5.728  -4.851  -1.593  0.00  0.00    +0.138 C 
ATOM      2  C   UNL     1      -5.627  -3.767  -0.538  0.00  0.00    +0.251 C 
ATOM      3  O   UNL     1      -6.285  -2.752  -0.466  0.00  0.00    -0.272 OA
ATOM      4  N   UNL     1      -4.651  -4.166   0.302  0.00  0.00    -0.218 N 
ATOM      5  C   UNL     1      -4.133  -5.343  -0.068  0.00  0.00    +0.310 C 
ATOM      6  O   UNL     1      -3.242  -5.909   0.536  0.00  0.00    -0.252 OA
ATOM      7  N   UNL     1      -4.707  -5.830  -1.183  0.00  0.00    -0.281 N 
ATOM      8  H   UNL     1      -4.553  -6.745  -1.774  0.00  0.00    +0.152 HD
ENDROOT
BRANCH   1   9
ATOM      9  C   UNL     1      -7.099  -5.475  -1.575  0.00  0.00    -0.015 A 
ATOM     10  C   UNL     1      -8.078  -5.017  -2.437  0.00  0.00    +0.006 A 
ATOM     11  C   UNL     1      -9.335  -5.593  -2.424  0.00  0.00    +0.000 A 
ATOM     12  C   UNL     1      -9.615  -6.621  -1.543  0.00  0.00    +0.000 A 
ATOM     13  C   UNL     1      -8.638  -7.075  -0.678  0.00  0.00    +0.000 A 
ATOM     14  C   UNL     1      -7.380  -6.502  -0.694  0.00  0.00    +0.006 A 
ENDBRANCH   1   9
BRANCH   1  16
ATOM     15  C   UNL     1      -3.988  -3.729  -2.992  0.00  0.00    +0.007 C 
ATOM     16  C   UNL     1      -5.410  -4.292  -2.982  0.00  0.00    +0.037 C 
ENDBRANCH   1  16
BRANCH   4  17
ATOM     17  C   UNL     1      -4.216  -3.409   1.478  0.00  0.00    +0.173 C 
BRANCH  17  18
ATOM     18  C   UNL     1      -3.101  -2.473   1.089  0.00  0.00    +0.067 A 
ATOM     19  C   UNL     1      -3.293  -1.113   1.159  0.00  0.00    +0.095 A 
ATOM     20  C   UNL     1      -2.280  -0.211   0.805  0.00  0.00    +0.259 A 
ATOM     21  O   UNL     1      -2.449   0.996   0.868  0.00  0.00    -0.267 OA
ATOM     22  N   UNL     1      -1.092  -0.749   0.386  0.00  0.00    -0.259 N 
ATOM     23  C   UNL     1       0.002  -0.004   0.002  0.00  0.00    +0.039 A 
ATOM     24  C   UNL     1       1.106  -0.661  -0.388  0.00  0.00    +0.013 A 
ATOM     25  S   UNL     1       0.663  -2.374  -0.234  0.00  0.00    -0.054 S 
ATOM     26  C   UNL     1      -0.990  -2.119   0.348  0.00  0.00    +0.181 A 
ATOM     27  N   UNL     1      -1.929  -2.971   0.676  0.00  0.00    -0.226 NA
ATOM     28  C   UNL     1       2.406  -0.084  -0.846  0.00  0.00    +0.044 C 
ATOM     29  C   UNL     1       2.194   1.405  -1.159  0.00  0.00    +0.006 C 
ATOM     30  C   UNL     1       1.420   2.040  -0.001  0.00  0.00    +0.006 C 
ATOM     31  C   UNL     1      -0.019   1.523   0.010  0.00  0.00    +0.055 C 
ENDBRANCH  17  18
ENDBRANCH   4  17
TORSDOF 4
