REMARK  Name = ZINC09256179
REMARK  5 active torsions:
REMARK  status: ('A' for Active; 'I' for Inactive)
REMARK    1  A    between atoms: C_1  and  C_2
REMARK    2  A    between atoms: C_14  and  C_29
REMARK    3  A    between atoms: C_17  and  C_18
REMARK    4  A    between atoms: C_17  and  N_58
REMARK    5  A    between atoms: N_20  and  C_21
REMARK                            x       y       z     vdW  Elec       q    Type
REMARK                         _______ _______ _______ _____ _____    ______ ____
ROOT
ATOM      1  C   UNL     1       1.581   1.517  -7.385  0.00  0.00    -0.007 C 
ATOM      2  C   UNL     1       0.440   2.502  -7.124  0.00  0.00    -0.023 C 
ATOM      3  C   UNL     1      -0.509   2.502  -8.299  0.00  0.00    +0.007 A 
ATOM      4  C   UNL     1      -1.854   2.492  -8.159  0.00  0.00    -0.015 A 
ATOM      5  C   UNL     1      -2.422   2.495  -9.489  0.00  0.00    +0.004 A 
ATOM      6  C   UNL     1      -3.738   2.488  -9.961  0.00  0.00    +0.010 A 
ATOM      7  C   UNL     1      -3.910   2.495 -11.323  0.00  0.00    +0.001 A 
ATOM      8  C   UNL     1      -2.838   2.508 -12.200  0.00  0.00    +0.002 A 
ATOM      9  C   UNL     1      -1.525   2.515 -11.761  0.00  0.00    +0.026 A 
ATOM     10  C   UNL     1      -1.320   2.508 -10.383  0.00  0.00    +0.047 A 
ATOM     11  N   UNL     1      -0.182   2.512  -9.627  0.00  0.00    -0.359 N 
ATOM     12  H   UNL     1       0.722   2.520  -9.979  0.00  0.00    +0.166 HD
ATOM     13  C   UNL     1      -2.552   2.483  -6.822  0.00  0.00    +0.036 C 
ATOM     14  C   UNL     1      -1.529   2.884  -5.751  0.00  0.00    -0.064 C 
ATOM     15  N   UNL     1      -0.312   2.060  -5.925  0.00  0.00    +0.391 N 
ATOM     16  H   UNL     1      -0.590   1.079  -6.050  0.00  0.00    -0.080 HD
ENDROOT
BRANCH  13  17
ATOM     17  C   UNL     1      -3.691   3.469  -6.835  0.00  0.00    -0.023 A 
ATOM     18  C   UNL     1      -3.443   4.809  -7.067  0.00  0.00    +0.005 A 
ATOM     19  C   UNL     1      -4.487   5.714  -7.078  0.00  0.00    +0.000 A 
ATOM     20  C   UNL     1      -5.781   5.280  -6.858  0.00  0.00    +0.001 A 
ATOM     21  C   UNL     1      -6.031   3.941  -6.626  0.00  0.00    +0.020 A 
ATOM     22  C   UNL     1      -4.986   3.034  -6.620  0.00  0.00    +0.045 A 
ATOM     23 CL   UNL     1      -5.300   1.350  -6.335  0.00  0.00    -0.083 Cl
ENDBRANCH  13  17
BRANCH  15  24
ATOM     24  C   UNL     1       0.544   2.166  -4.726  0.00  0.00    +0.019 C 
BRANCH  24  25
ATOM     25  C   UNL     1       0.893   3.605  -4.448  0.00  0.00    +0.197 C 
ATOM     26  O   UNL     1       0.561   4.471  -5.229  0.00  0.00    -0.278 OA
ATOM     27  N   UNL     1       1.575   3.930  -3.332  0.00  0.00    -0.312 N 
ATOM     28  H   UNL     1       1.841   3.237  -2.707  0.00  0.00    +0.149 HD
BRANCH  27  29
ATOM     29  C   UNL     1       1.915   5.329  -3.061  0.00  0.00    +0.095 C 
ATOM     30  C   UNL     1       3.216   5.690  -3.797  0.00  0.00    +0.046 C 
ATOM     31  C   UNL     1       3.717   7.057  -3.252  0.00  0.00    +0.168 C 
ATOM     32  S   UNL     1       3.377   6.847  -1.448  0.00  0.00    -0.029 S 
ATOM     33  O   UNL     1       2.781   8.036  -0.947  0.00  0.00    -0.174 OA
ATOM     34  O   UNL     1       4.536   6.324  -0.813  0.00  0.00    -0.174 OA
ATOM     35  C   UNL     1       2.098   5.528  -1.537  0.00  0.00    +0.188 C 
ENDBRANCH  27  29
ENDBRANCH  24  25
ENDBRANCH  15  24
TORSDOF 4
