REMARK  Name = ZINC04196792
REMARK  7 active torsions:
REMARK  status: ('A' for Active; 'I' for Inactive)
REMARK    1  A    between atoms: C_2  and  C_3
REMARK    2  A    between atoms: C_3  and  N_4
REMARK    3  A    between atoms: C_5  and  C_21
REMARK    4  A    between atoms: C_8  and  S_9
REMARK    5  A    between atoms: S_9  and  C_10
REMARK    6  A    between atoms: C_10  and  C_11
REMARK    7  A    between atoms: C_16  and  C_17
REMARK                            x       y       z     vdW  Elec       q    Type
REMARK                         _______ _______ _______ _____ _____    ______ ____
ROOT
ATOM      1  N   UNL     1      -0.466   1.363   1.172  0.00  0.00    -0.298 N 
ATOM      2  C   UNL     1      -0.470   2.614   1.745  0.00  0.00    +0.165 A 
ATOM      3  N   UNL     1      -1.456   2.637   2.612  0.00  0.00    -0.128 NA
ATOM      4  N   UNL     1      -2.055   1.500   2.625  0.00  0.00    -0.122 NA
ATOM      5  C   UNL     1      -1.492   0.683   1.764  0.00  0.00    +0.192 A 
ENDROOT
BRANCH   2   6
ATOM      6  C   UNL     1       0.459   3.723   1.442  0.00  0.00    +0.019 A 
ATOM      7  C   UNL     1       0.615   4.774   2.347  0.00  0.00    +0.014 A 
ATOM      8  C   UNL     1       1.486   5.804   2.061  0.00  0.00    +0.039 A 
ATOM      9  C   UNL     1       2.198   5.802   0.872  0.00  0.00    +0.123 A 
ATOM     10  C   UNL     1       2.043   4.764  -0.033  0.00  0.00    +0.039 A 
ATOM     11  C   UNL     1       1.178   3.727   0.246  0.00  0.00    +0.014 A 
ATOM     12  F   UNL     1       3.046   6.816   0.594  0.00  0.00    -0.205 F 
ENDBRANCH   2   6
BRANCH   1  13
ATOM     13  C   UNL     1       0.451   0.864   0.145  0.00  0.00    +0.152 C 
BRANCH  13  15
ATOM     14  C   UNL     1       0.459   1.652  -2.166  0.00  0.00    +0.005 C 
ATOM     15  C   UNL     1      -0.182   1.021  -1.214  0.00  0.00    -0.013 C 
ENDBRANCH  13  15
ENDBRANCH   1  13
BRANCH   5  16
ATOM     16  S   UNL     1      -1.970  -0.981   1.435  0.00  0.00    -0.081 S 
BRANCH  16  17
ATOM     17  C   UNL     1      -3.362  -1.141   2.581  0.00  0.00    +0.113 C 
BRANCH  17  18
ATOM     18  C   UNL     1      -3.947  -2.525   2.471  0.00  0.00    -0.026 A 
ATOM     19  C   UNL     1      -4.966  -2.775   1.571  0.00  0.00    +0.005 A 
ATOM     20  C   UNL     1      -5.499  -4.046   1.466  0.00  0.00    +0.000 A 
ATOM     21  C   UNL     1      -5.021  -5.065   2.269  0.00  0.00    +0.001 A 
ATOM     22  C   UNL     1      -4.005  -4.813   3.173  0.00  0.00    +0.012 A 
ATOM     23  C   UNL     1      -3.468  -3.543   3.273  0.00  0.00    +0.059 A 
BRANCH  23  24
ATOM     24  C   UNL     1      -2.361  -3.269   4.259  0.00  0.00    +0.418 C 
ATOM     25  F   UNL     1      -2.051  -4.445   4.950  0.00  0.00    -0.166 F 
ATOM     26  F   UNL     1      -1.228  -2.818   3.574  0.00  0.00    -0.166 F 
ATOM     27  F   UNL     1      -2.778  -2.290   5.167  0.00  0.00    -0.166 F 
ENDBRANCH  23  24
ENDBRANCH  17  18
ENDBRANCH  16  17
ENDBRANCH   5  16
TORSDOF 7
