REMARK  Name = ZINC39683759
REMARK  9 active torsions:
REMARK  status: ('A' for Active; 'I' for Inactive)
REMARK    1  A    between atoms: C_1  and  O_2
REMARK    2  A    between atoms: O_2  and  C_3
REMARK    3  A    between atoms: C_6  and  C_9
REMARK    4  A    between atoms: C_9  and  C_10
REMARK    5  A    between atoms: C_10  and  C_11
REMARK    6  A    between atoms: C_15  and  C_24
REMARK    7  A    between atoms: N_26  and  C_27
REMARK    8  A    between atoms: C_27  and  C_28
REMARK    9  A    between atoms: C_28  and  C_29
REMARK                            x       y       z     vdW  Elec       q    Type
REMARK                         _______ _______ _______ _____ _____    ______ ____
ROOT
ATOM      1  C   UNL     1       4.702  -3.430  -5.393  0.00  0.00    +0.216 C 
ATOM      2  O   UNL     1       4.072  -3.765  -6.373  0.00  0.00    -0.276 OA
ATOM      3  N   UNL     1       6.010  -3.741  -5.294  0.00  0.00    -0.300 N 
ATOM      4  C   UNL     1       6.936  -3.427  -4.180  0.00  0.00    +0.121 C 
ATOM      5  C   UNL     1       7.814  -4.691  -4.035  0.00  0.00    +0.100 C 
ATOM      6  C   UNL     1       7.752  -5.371  -5.412  0.00  0.00    -0.004 C 
ATOM      7  C   UNL     1       6.845  -4.479  -6.271  0.00  0.00    +0.115 C 
ATOM      8  C   UNL     1       7.144  -6.765  -5.286  0.00  0.00    -0.010 C 
ATOM      9  C   UNL     1       7.147  -7.444  -6.659  0.00  0.00    -0.082 C 
ATOM     10  N   UNL     1       8.523  -7.532  -7.161  0.00  0.00    +0.379 N 
ATOM     11  C   UNL     1       9.069  -6.185  -7.367  0.00  0.00    -0.082 C 
ATOM     12  C   UNL     1       9.147  -5.453  -6.024  0.00  0.00    -0.010 C 
ATOM     13  H   UNL     1       9.094  -8.025  -6.490  0.00  0.00    -0.086 HD
ATOM     14  H   UNL     1       8.529  -8.033  -8.036  0.00  0.00    -0.086 HD
ENDROOT
BRANCH   5  15
ATOM     15  C   UNL     1       9.232  -4.308  -3.698  0.00  0.00    +0.218 C 
ATOM     16  O   UNL     1       9.689  -3.259  -4.100  0.00  0.00    -0.275 OA
ATOM     17  N   UNL     1       9.993  -5.132  -2.951  0.00  0.00    -0.315 N 
ATOM     18  H   UNL     1       9.628  -5.972  -2.630  0.00  0.00    +0.149 HD
BRANCH  17  19
ATOM     19  C   UNL     1      11.372  -4.761  -2.624  0.00  0.00    +0.109 C 
BRANCH  19  20
ATOM     20  C   UNL     1      12.008  -5.861  -1.773  0.00  0.00    +0.055 C 
BRANCH  20  21
ATOM     21  C   UNL     1      13.427  -5.479  -1.436  0.00  0.00    -0.032 A 
ATOM     22  C   UNL     1      14.470  -5.933  -2.222  0.00  0.00    +0.005 A 
ATOM     23  C   UNL     1      15.771  -5.582  -1.914  0.00  0.00    +0.000 A 
ATOM     24  C   UNL     1      16.029  -4.777  -0.820  0.00  0.00    +0.001 A 
ATOM     25  C   UNL     1      14.987  -4.323  -0.034  0.00  0.00    +0.015 A 
ATOM     26  C   UNL     1      13.684  -4.669  -0.345  0.00  0.00    +0.021 A 
ATOM     27 BR   UNL     1      12.257  -4.042   0.726  0.00  0.00    -0.050 Br
ENDBRANCH  20  21
ENDBRANCH  19  20
ENDBRANCH  17  19
ENDBRANCH   5  15
BRANCH   1  28
ATOM     28  C   UNL     1       4.023  -2.668  -4.285  0.00  0.00    +0.100 C 
BRANCH  28  29
ATOM     29  C   UNL     1       2.552  -2.447  -4.644  0.00  0.00    +0.044 C 
BRANCH  29  33
ATOM     30  C   UNL     1       0.625  -0.285  -1.502  0.00  0.00    +0.120 A 
ATOM     31  C   UNL     1       1.224   0.399  -2.550  0.00  0.00    +0.046 A 
ATOM     32  C   UNL     1       1.847  -0.303  -3.564  0.00  0.00    +0.007 A 
ATOM     33  C   UNL     1       1.873  -1.685  -3.536  0.00  0.00    -0.047 A 
ATOM     34  C   UNL     1       1.275  -2.368  -2.493  0.00  0.00    +0.007 A 
ATOM     35  C   UNL     1       0.657  -1.671  -1.473  0.00  0.00    +0.046 A 
BRANCH  30  37
ATOM     36  C   UNL     1       0.018   1.829  -0.598  0.00  0.00    +0.277 C 
ATOM     37  O   UNL     1       0.012   0.403  -0.503  0.00  0.00    -0.495 OA
ENDBRANCH  30  37
ENDBRANCH  29  33
ENDBRANCH  28  29
ENDBRANCH   1  28
TORSDOF 8
