REMARK  Name = ZINC61114414
REMARK  6 active torsions:
REMARK  status: ('A' for Active; 'I' for Inactive)
REMARK    1  A    between atoms: C_3  and  N_11
REMARK    2  A    between atoms: C_4  and  N_8
REMARK    3  A    between atoms: C_12  and  C_14
REMARK    4  A    between atoms: C_14  and  C_15
REMARK    5  A    between atoms: C_15  and  N_16
REMARK    6  A    between atoms: C_17  and  C_19
REMARK                            x       y       z     vdW  Elec       q    Type
REMARK                         _______ _______ _______ _____ _____    ______ ____
ROOT
ATOM      1  C   UNL     1       4.600   4.195  -0.312  0.00  0.00    +0.115 C 
ENDROOT
BRANCH   1   3
ATOM      2  N   UNL     1       3.421   2.038  -0.040  0.00  0.00    -0.284 N 
ATOM      3  C   UNL     1       3.342   3.376  -0.176  0.00  0.00    +0.219 C 
ATOM      4  O   UNL     1       2.259   3.921  -0.190  0.00  0.00    -0.275 OA
ATOM      5  H   UNL     1       4.287   1.610   0.052  0.00  0.00    +0.155 HD
BRANCH   2   8
ATOM      6  C   UNL     1      -0.044   0.967  -0.653  0.00  0.00    +0.040 A 
ATOM      7  C   UNL     1       1.107   1.731  -0.661  0.00  0.00    +0.028 A 
ATOM      8  C   UNL     1       2.254   1.264  -0.033  0.00  0.00    +0.064 A 
ATOM      9  C   UNL     1       2.241   0.030   0.604  0.00  0.00    +0.150 A 
ATOM     10  C   UNL     1       1.089  -0.731   0.610  0.00  0.00    +0.073 A 
ATOM     11  C   UNL     1      -0.054  -0.264  -0.018  0.00  0.00    +0.126 A 
ATOM     12  F   UNL     1      -1.180  -1.010  -0.011  0.00  0.00    -0.205 F 
BRANCH   9  13
ATOM     13  N   UNL     1       3.462  -0.470   1.274  0.00  0.00    +0.058 N 
ATOM     14  O   UNL     1       3.481  -1.583   1.744  0.00  0.00    -0.126 OA
ATOM     15  O   UNL     1       4.441   0.236   1.352  0.00  0.00    -0.126 OA
ENDBRANCH   9  13
ENDBRANCH   2   8
ENDBRANCH   1   3
BRANCH   1  16
ATOM     16  C   UNL     1       4.233   5.674  -0.451  0.00  0.00    +0.113 C 
BRANCH  16  17
ATOM     17  N   UNL     1       5.456   6.470  -0.583  0.00  0.00    -0.314 N 
ATOM     18  C   UNL     1       5.377   7.809  -0.719  0.00  0.00    +0.219 C 
ATOM     19  O   UNL     1       4.293   8.354  -0.733  0.00  0.00    -0.275 OA
ATOM     20  H   UNL     1       6.322   6.034  -0.572  0.00  0.00    +0.149 HD
BRANCH  18  21
ATOM     21  C   UNL     1       6.634   8.628  -0.854  0.00  0.00    +0.048 C 
ATOM     22  C   UNL     1       7.505   8.434   0.389  0.00  0.00    +0.019 C 
ATOM     23  C   UNL     1       8.782   9.265   0.252  0.00  0.00    -0.009 C 
ATOM     24  C   UNL     1       8.415  10.744   0.112  0.00  0.00    +0.007 C 
ATOM     25  C   UNL     1       7.544  10.938  -1.131  0.00  0.00    -0.009 C 
ATOM     26  C   UNL     1       6.267  10.107  -0.993  0.00  0.00    +0.019 C 
ATOM     27  C   UNL     1       8.317  10.485  -2.371  0.00  0.00    +0.007 C 
ATOM     28  C   UNL     1       8.684   9.007  -2.232  0.00  0.00    -0.009 C 
ATOM     29  C   UNL     1       9.555   8.812  -0.989  0.00  0.00    +0.007 C 
ATOM     30  C   UNL     1       7.407   8.175  -2.094  0.00  0.00    +0.019 C 
ENDBRANCH  18  21
ENDBRANCH  16  17
ENDBRANCH   1  16
TORSDOF 6
