REMARK  Name = ZINC28217112
REMARK  12 active torsions:
REMARK  status: ('A' for Active; 'I' for Inactive)
REMARK    1  A    between atoms: C_1  and  C_2
REMARK    2  A    between atoms: C_5  and  N_9
REMARK    3  A    between atoms: C_6  and  C_8
REMARK    4  A    between atoms: C_10  and  C_30
REMARK    5  A    between atoms: C_12  and  C_15
REMARK    6  A    between atoms: C_13  and  C_14
REMARK    7  A    between atoms: N_16  and  N_17
REMARK    8  A    between atoms: C_18  and  C_20
REMARK    9  A    between atoms: C_20  and  S_21
REMARK   10  A    between atoms: S_21  and  C_22
REMARK   11  A    between atoms: C_24  and  C_29
REMARK   12  A    between atoms: C_26  and  C_28
REMARK                            x       y       z     vdW  Elec       q    Type
REMARK                         _______ _______ _______ _____ _____    ______ ____
ROOT
ATOM      1  C   UNL     1       1.697  -7.425  -0.038  0.00  0.00    +0.140 C 
ATOM      2  N   UNL     1       2.985  -7.264  -0.037  0.00  0.00    -0.188 NA
ENDROOT
BRANCH   1   6
ATOM      3  N   UNL     1       0.059  -4.172  -0.021  0.00  0.00    -0.317 N 
ATOM      4  C   UNL     1      -1.050  -4.970  -0.025  0.00  0.00    +0.022 A 
ATOM      5  C   UNL     1      -0.659  -6.258  -0.032  0.00  0.00    +0.032 A 
ATOM      6  C   UNL     1       0.807  -6.250  -0.032  0.00  0.00    +0.016 A 
ATOM      7  C   UNL     1       1.183  -4.937  -0.031  0.00  0.00    +0.030 A 
ATOM      8  C   UNL     1       2.601  -4.425  -0.036  0.00  0.00    +0.064 C 
ATOM      9  C   UNL     1      -2.477  -4.487  -0.022  0.00  0.00    +0.064 C 
BRANCH   3  14
ATOM     10  C   UNL     1      -0.018   1.503   0.010  0.00  0.00    +0.044 C 
ATOM     11  C   UNL     1       0.002  -0.004   0.002  0.00  0.00    -0.050 A 
ATOM     12  C   UNL     1       0.006  -0.688  -1.200  0.00  0.00    +0.005 A 
ATOM     13  C   UNL     1       0.025  -2.068  -1.211  0.00  0.00    +0.026 A 
ATOM     14  C   UNL     1       0.040  -2.771  -0.013  0.00  0.00    +0.049 A 
ATOM     15  C   UNL     1       0.037  -2.082   1.192  0.00  0.00    -0.026 A 
ATOM     16  C   UNL     1       0.023  -0.700   1.196  0.00  0.00    +0.008 A 
ATOM     17  C   UNL     1       0.053  -2.840   2.494  0.00  0.00    +0.046 C 
ENDBRANCH   3  14
ENDBRANCH   1   6
BRANCH   2  18
ATOM     18  N   UNL     1       3.831  -8.380  -0.043  0.00  0.00    -0.206 N 
ATOM     19  C   UNL     1       5.168  -8.213  -0.042  0.00  0.00    +0.242 C 
ATOM     20  O   UNL     1       5.640  -7.095  -0.035  0.00  0.00    -0.273 OA
ATOM     21  H   UNL     1       3.454  -9.274  -0.048  0.00  0.00    +0.177 HD
BRANCH  19  22
ATOM     22  C   UNL     1       6.079  -9.414  -0.048  0.00  0.00    +0.174 C 
BRANCH  22  23
ATOM     23  S   UNL     1       7.807  -8.863  -0.044  0.00  0.00    -0.077 S 
BRANCH  23  24
ATOM     24  C   UNL     1       8.732 -10.363  -0.052  0.00  0.00    +0.189 A 
ATOM     25  N   UNL     1       8.087 -11.521  -0.064  0.00  0.00    -0.227 NA
ATOM     26  C   UNL     1       8.752 -12.665  -0.070  0.00  0.00    +0.043 A 
ATOM     27  C   UNL     1      10.138 -12.641  -0.065  0.00  0.00    +0.046 A 
ATOM     28  C   UNL     1      10.780 -11.413  -0.052  0.00  0.00    +0.043 A 
ATOM     29  N   UNL     1      10.056 -10.306  -0.051  0.00  0.00    -0.227 NA
ATOM     30  C   UNL     1      12.286 -11.340  -0.045  0.00  0.00    +0.066 C 
ATOM     31  C   UNL     1       8.011 -13.977  -0.084  0.00  0.00    +0.066 C 
ENDBRANCH  23  24
ENDBRANCH  22  23
ENDBRANCH  19  22
ENDBRANCH   2  18
TORSDOF 6
