REMARK  Name = ZINC38931472
REMARK  7 active torsions:
REMARK  status: ('A' for Active; 'I' for Inactive)
REMARK    1  A    between atoms: C_1  and  C_2
REMARK    2  A    between atoms: C_2  and  O_3
REMARK    3  A    between atoms: O_3  and  C_4
REMARK    4  A    between atoms: C_4  and  C_6
REMARK    5  A    between atoms: C_6  and  N_7
REMARK    6  A    between atoms: N_16  and  C_17
REMARK    7  A    between atoms: C_17  and  C_19
REMARK                            x       y       z     vdW  Elec       q    Type
REMARK                         _______ _______ _______ _____ _____    ______ ____
ROOT
ATOM      1  N   UNL     1       1.450  -3.817  -2.491  0.00  0.00    -0.310 N 
ATOM      2  C   UNL     1       2.484  -4.494  -1.869  0.00  0.00    +0.058 A 
ATOM      3  C   UNL     1       3.618  -3.942  -1.248  0.00  0.00    +0.027 A 
ATOM      4  C   UNL     1       4.567  -4.748  -0.669  0.00  0.00    +0.002 A 
ATOM      5  C   UNL     1       4.441  -6.127  -0.676  0.00  0.00    +0.001 A 
ATOM      6  C   UNL     1       3.335  -6.699  -1.280  0.00  0.00    +0.017 A 
ATOM      7  C   UNL     1       2.385  -5.893  -1.860  0.00  0.00    +0.039 A 
ATOM      8  S   UNL     1       0.859  -6.203  -2.716  0.00  0.00    -0.052 S 
ATOM      9  C   UNL     1       0.412  -4.506  -3.045  0.00  0.00    +0.167 A 
ATOM     10  N   UNL     1      -0.659  -4.035  -3.672  0.00  0.00    -0.152 NA
ENDROOT
BRANCH  10  11
ATOM     11  C   UNL     1      -1.580  -4.880  -4.152  0.00  0.00    +0.271 C 
ATOM     12  O   UNL     1      -1.435  -6.083  -4.014  0.00  0.00    -0.268 OA
BRANCH  11  13
ATOM     13  C   UNL     1      -2.769  -4.357  -4.848  0.00  0.00    +0.064 A 
ATOM     14  C   UNL     1      -3.065  -3.049  -5.084  0.00  0.00    +0.096 A 
ATOM     15  N   UNL     1      -4.242  -2.957  -5.751  0.00  0.00    -0.360 N 
ATOM     16  H   UNL     1      -4.659  -2.126  -6.029  0.00  0.00    +0.165 HD
ATOM     17  C   UNL     1      -4.764  -4.214  -5.978  0.00  0.00    +0.047 A 
ATOM     18  C   UNL     1      -3.868  -5.146  -5.432  0.00  0.00    +0.012 A 
ATOM     19  C   UNL     1      -4.138  -6.510  -5.521  0.00  0.00    +0.011 A 
ATOM     20  C   UNL     1      -5.287  -6.938  -6.149  0.00  0.00    +0.001 A 
ATOM     21  C   UNL     1      -6.172  -6.018  -6.692  0.00  0.00    +0.002 A 
ATOM     22  C   UNL     1      -5.921  -4.665  -6.604  0.00  0.00    +0.026 A 
ENDBRANCH  11  13
ENDBRANCH  10  11
BRANCH   1  23
ATOM     23  C   UNL     1       1.468  -2.353  -2.550  0.00  0.00    +0.244 C 
BRANCH  23  24
ATOM     24  C   UNL     1       0.775  -1.794  -1.334  0.00  0.00    +0.327 C 
ATOM     25  O   UNL     1       0.314  -2.540  -0.504  0.00  0.00    -0.249 OA
BRANCH  24  26
ATOM     26  O   UNL     1       0.671  -0.465  -1.174  0.00  0.00    -0.464 OA
BRANCH  26  28
ATOM     27  C   UNL     1      -0.019   1.526   0.010  0.00  0.00    +0.048 C 
ATOM     28  C   UNL     1       0.002  -0.004   0.002  0.00  0.00    +0.229 C 
ENDBRANCH  26  28
ENDBRANCH  24  26
ENDBRANCH  23  24
ENDBRANCH   1  23
TORSDOF 6
