REMARK  Name = ZINC13556670
REMARK  10 active torsions:
REMARK  status: ('A' for Active; 'I' for Inactive)
REMARK    1  A    between atoms: C_1  and  C_2
REMARK    2  A    between atoms: C_3  and  C_17
REMARK    3  A    between atoms: C_4  and  O_16
REMARK    4  A    between atoms: N_5  and  C_7
REMARK    5  A    between atoms: C_10  and  N_13
REMARK    6  A    between atoms: N_18  and  C_19
REMARK    7  A    between atoms: C_19  and  C_20
REMARK    8  A    between atoms: C_20  and  C_21
REMARK    9  A    between atoms: C_24  and  S_27
REMARK   10  A    between atoms: S_27  and  N_30
REMARK                            x       y       z     vdW  Elec       q    Type
REMARK                         _______ _______ _______ _____ _____    ______ ____
ROOT
ATOM      1  C   UNL     1      -0.018   1.503   0.010  0.00  0.00    +0.068 C 
ATOM      2  C   UNL     1       0.002  -0.004   0.002  0.00  0.00    +0.073 A 
ATOM      3  C   UNL     1       0.008  -0.827  -1.148  0.00  0.00    +0.075 A 
ATOM      4  C   UNL     1       0.029  -2.144  -0.707  0.00  0.00    +0.225 A 
ATOM      5  N   UNL     1       0.034  -2.112   0.643  0.00  0.00    -0.200 N 
ATOM      6  N   UNL     1       0.023  -0.774   1.054  0.00  0.00    -0.168 NA
ENDROOT
BRANCH   5   7
ATOM      7  C   UNL     1       0.053  -3.229   1.490  0.00  0.00    +0.069 A 
ATOM      8  C   UNL     1      -0.618  -4.389   1.126  0.00  0.00    +0.030 A 
ATOM      9  C   UNL     1      -0.597  -5.488   1.962  0.00  0.00    +0.035 A 
ATOM     10  C   UNL     1       0.090  -5.434   3.161  0.00  0.00    +0.126 A 
ATOM     11  C   UNL     1       0.759  -4.280   3.526  0.00  0.00    +0.035 A 
ATOM     12  C   UNL     1       0.748  -3.179   2.691  0.00  0.00    +0.030 A 
BRANCH  10  13
ATOM     13  N   UNL     1       0.109  -6.613   4.055  0.00  0.00    +0.056 N 
ATOM     14  O   UNL     1      -0.475  -7.622   3.737  0.00  0.00    -0.126 OA
ATOM     15  O   UNL     1       0.710  -6.567   5.103  0.00  0.00    -0.126 OA
ENDBRANCH  10  13
ENDBRANCH   5   7
BRANCH   3  16
ATOM     16  C   UNL     1      -0.005  -0.374  -2.546  0.00  0.00    +0.093 C 
ATOM     17  N   UNL     1       0.002  -1.243  -3.509  0.00  0.00    -0.389 N 
ATOM     18  H   UNL     1       0.017  -2.192  -3.306  0.00  0.00    +0.159 HD
BRANCH  17  19
ATOM     19  C   UNL     1      -0.011  -0.792  -4.903  0.00  0.00    +0.117 C 
BRANCH  19  20
ATOM     20  C   UNL     1       1.299  -1.196  -5.582  0.00  0.00    +0.056 C 
BRANCH  20  21
ATOM     21  C   UNL     1       1.285  -0.732  -7.016  0.00  0.00    -0.046 A 
ATOM     22  C   UNL     1       0.781  -1.556  -8.004  0.00  0.00    +0.005 A 
ATOM     23  C   UNL     1       0.768  -1.131  -9.319  0.00  0.00    +0.029 A 
ATOM     24  C   UNL     1       1.260   0.120  -9.646  0.00  0.00    +0.105 A 
ATOM     25  C   UNL     1       1.763   0.944  -8.657  0.00  0.00    +0.029 A 
ATOM     26  C   UNL     1       1.772   0.520  -7.341  0.00  0.00    +0.005 A 
BRANCH  24  27
ATOM     27  S   UNL     1       1.245   0.662 -11.322  0.00  0.00    +0.056 S 
ATOM     28  O   UNL     1       2.260   1.650 -11.439  0.00  0.00    -0.153 OA
ATOM     29  O   UNL     1       1.225  -0.509 -12.128  0.00  0.00    -0.153 OA
BRANCH  27  30
ATOM     30  N   UNL     1      -0.198   1.434 -11.574  0.00  0.00    -0.204 NA
ATOM     31  H   UNL     1      -0.257   2.154 -12.222  0.00  0.00    +0.144 HD
ATOM     32  H   UNL     1      -0.985   1.167 -11.074  0.00  0.00    +0.144 HD
ENDBRANCH  27  30
ENDBRANCH  24  27
ENDBRANCH  20  21
ENDBRANCH  19  20
ENDBRANCH  17  19
ENDBRANCH   3  16
BRANCH   4  33
ATOM     33  O   UNL     1       0.040  -3.253  -1.484  0.00  0.00    -0.492 OA
ATOM     34  H   UNL     1       0.926  -3.562  -1.715  0.00  0.00    +0.294 HD
ENDBRANCH   4  33
TORSDOF 9
