REMARK  Name = ZINC24719123
REMARK  7 active torsions:
REMARK  status: ('A' for Active; 'I' for Inactive)
REMARK    1  A    between atoms: C_1  and  C_2
REMARK    2  A    between atoms: C_5  and  C_32
REMARK    3  A    between atoms: C_6  and  N_8
REMARK    4  A    between atoms: C_18  and  S_19
REMARK    5  A    between atoms: S_19  and  C_20
REMARK    6  A    between atoms: C_20  and  C_21
REMARK    7  A    between atoms: N_23  and  C_24
REMARK                            x       y       z     vdW  Elec       q    Type
REMARK                         _______ _______ _______ _____ _____    ______ ____
ROOT
ATOM      1  N   UNL     1       0.036  -2.770   0.038  0.00  0.00    -0.255 N 
ATOM      2  C   UNL     1       1.239  -2.150   0.040  0.00  0.00    +0.267 A 
ATOM      3  O   UNL     1       2.277  -2.785   0.035  0.00  0.00    -0.267 OA
ATOM      4  C   UNL     1       1.246  -0.681   0.049  0.00  0.00    +0.065 A 
ATOM      5  C   UNL     1       2.433   0.050   0.053  0.00  0.00    +0.015 A 
ATOM      6  C   UNL     1       2.382   1.417   0.062  0.00  0.00    +0.001 A 
ATOM      7  C   UNL     1       1.163   2.082   0.068  0.00  0.00    +0.002 A 
ATOM      8  C   UNL     1      -0.015   1.391   0.065  0.00  0.00    +0.028 A 
ATOM      9  C   UNL     1       0.003  -0.007   0.055  0.00  0.00    +0.079 A 
ATOM     10  N   UNL     1      -1.140  -0.732   0.052  0.00  0.00    -0.223 NA
ATOM     11  C   UNL     1      -1.121  -2.042   0.044  0.00  0.00    +0.177 A 
ENDROOT
BRANCH   1  17
ATOM     12  C   UNL     1      -0.141  -7.016   2.513  0.00  0.00    +0.044 C 
ATOM     13  C   UNL     1      -0.111  -6.252   1.214  0.00  0.00    -0.048 A 
ATOM     14  C   UNL     1      -0.142  -6.934   0.011  0.00  0.00    +0.004 A 
ATOM     15  C   UNL     1      -0.115  -6.237  -1.182  0.00  0.00    +0.005 A 
ATOM     16  C   UNL     1      -0.060  -4.857  -1.177  0.00  0.00    -0.026 A 
ATOM     17  C   UNL     1      -0.023  -4.170   0.029  0.00  0.00    +0.055 A 
ATOM     18  C   UNL     1      -0.051  -4.873   1.226  0.00  0.00    +0.030 A 
ATOM     19  C   UNL     1      -0.037  -4.098  -2.479  0.00  0.00    +0.046 C 
ENDBRANCH   1  17
BRANCH  11  20
ATOM     20  S   UNL     1      -2.657  -2.905   0.042  0.00  0.00    -0.078 S 
BRANCH  20  21
ATOM     21  C   UNL     1      -3.804  -1.505   0.053  0.00  0.00    +0.173 C 
BRANCH  21  22
ATOM     22  C   UNL     1      -5.222  -2.017   0.053  0.00  0.00    +0.228 C 
ATOM     23  O   UNL     1      -5.435  -3.211   0.046  0.00  0.00    -0.275 OA
ATOM     24  N   UNL     1      -6.252  -1.148   0.060  0.00  0.00    -0.282 N 
ATOM     25  H   UNL     1      -6.060  -0.068   0.140  0.00  0.00    +0.155 HD
BRANCH  24  26
ATOM     26  C   UNL     1      -7.567  -1.620  -0.034  0.00  0.00    +0.072 A 
ATOM     27  C   UNL     1      -7.916  -2.827   0.555  0.00  0.00    +0.064 A 
ATOM     28  C   UNL     1      -9.217  -3.289   0.464  0.00  0.00    +0.125 A 
ATOM     29  C   UNL     1     -10.168  -2.553  -0.223  0.00  0.00    +0.041 A 
ATOM     30  C   UNL     1      -9.822  -1.352  -0.815  0.00  0.00    +0.043 A 
ATOM     31  C   UNL     1      -8.524  -0.883  -0.723  0.00  0.00    +0.145 A 
ATOM     32  F   UNL     1      -8.187   0.290  -1.302  0.00  0.00    -0.204 F 
ATOM     33  F   UNL     1      -9.559  -4.461   1.042  0.00  0.00    -0.205 F 
ENDBRANCH  24  26
ENDBRANCH  21  22
ENDBRANCH  20  21
ENDBRANCH  11  20
TORSDOF 5
