REMARK  Name = ZINC43751254
REMARK  10 active torsions:
REMARK  status: ('A' for Active; 'I' for Inactive)
REMARK    1  A    between atoms: C_1  and  C_2
REMARK    2  A    between atoms: C_3  and  C_34
REMARK    3  A    between atoms: C_7  and  N_25
REMARK    4  A    between atoms: C_9  and  S_11
REMARK    5  A    between atoms: S_11  and  C_12
REMARK    6  A    between atoms: C_12  and  C_14
REMARK    7  A    between atoms: C_12  and  C_15
REMARK    8  A    between atoms: N_21  and  C_22
REMARK    9  A    between atoms: N_21  and  C_23
REMARK   10  A    between atoms: C_26  and  C_28
REMARK                            x       y       z     vdW  Elec       q    Type
REMARK                         _______ _______ _______ _____ _____    ______ ____
ROOT
ATOM      1  C   UNL     1      -0.018   1.503   0.010  0.00  0.00    +0.048 C 
ATOM      2  C   UNL     1       0.002  -0.004   0.002  0.00  0.00    +0.003 A 
ATOM      3  C   UNL     1       0.009  -0.804  -1.073  0.00  0.00    +0.108 A 
ATOM      4  O   UNL     1       0.028  -2.095  -0.690  0.00  0.00    -0.442 OA
ATOM      5  C   UNL     1       0.034  -2.198   0.650  0.00  0.00    +0.233 A 
ATOM      6  C   UNL     1       0.025  -0.891   1.168  0.00  0.00    +0.083 A 
ATOM      7  C   UNL     1       0.035  -0.711   2.557  0.00  0.00    +0.141 A 
ATOM      8  N   UNL     1       0.057  -1.789   3.334  0.00  0.00    -0.206 NA
ATOM      9  C   UNL     1       0.068  -3.008   2.808  0.00  0.00    +0.194 A 
ATOM     10  N   UNL     1       0.051  -3.219   1.501  0.00  0.00    -0.186 NA
ATOM     11  C   UNL     1      -0.004  -0.328  -2.503  0.00  0.00    +0.086 C 
ENDROOT
BRANCH   7  12
ATOM     12  N   UNL     1       0.024   0.562   3.109  0.00  0.00    -0.266 N 
ATOM     13  C   UNL     1       0.034   0.716   4.448  0.00  0.00    +0.249 C 
ATOM     14  O   UNL     1       0.053  -0.260   5.172  0.00  0.00    -0.270 OA
ATOM     15  H   UNL     1       0.008   1.341   2.531  0.00  0.00    +0.157 HD
BRANCH  13  16
ATOM     16  C   UNL     1       0.021   2.072   5.035  0.00  0.00    +0.037 A 
ATOM     17  C   UNL     1      -0.007   3.195   4.207  0.00  0.00    +0.013 A 
ATOM     18  C   UNL     1      -0.018   4.458   4.761  0.00  0.00    +0.001 A 
ATOM     19  C   UNL     1      -0.002   4.613   6.136  0.00  0.00    +0.000 A 
ATOM     20  C   UNL     1       0.026   3.504   6.964  0.00  0.00    +0.001 A 
ATOM     21  C   UNL     1       0.031   2.235   6.422  0.00  0.00    +0.013 A 
ENDBRANCH  13  16
ENDBRANCH   7  12
BRANCH   9  22
ATOM     22  S   UNL     1       0.097  -4.398   3.890  0.00  0.00    -0.075 S 
BRANCH  22  23
ATOM     23  C   UNL     1       0.106  -5.825   2.771  0.00  0.00    +0.119 C 
ATOM     24  C   UNL     1       1.406  -5.833   1.965  0.00  0.00    +0.028 C 
BRANCH  23  25
ATOM     25  C   UNL     1       0.006  -7.095   3.576  0.00  0.00    +0.149 A 
ATOM     26  N   UNL     1       0.743  -7.247   4.663  0.00  0.00    -0.198 NA
ATOM     27  C   UNL     1       0.658  -8.367   5.377  0.00  0.00    +0.217 A 
ATOM     28  N   UNL     1      -0.170  -9.334   4.995  0.00  0.00    -0.181 NA
ATOM     29  C   UNL     1      -0.909  -9.178   3.903  0.00  0.00    +0.222 A 
ATOM     30  N   UNL     1      -0.822  -8.053   3.197  0.00  0.00    -0.198 NA
ATOM     31  N   UNL     1      -1.770 -10.179   3.503  0.00  0.00    -0.306 N 
ATOM     32  C   UNL     1      -1.869 -11.415   4.283  0.00  0.00    +0.132 C 
ATOM     33  C   UNL     1      -2.585 -10.007   2.298  0.00  0.00    +0.132 C 
ATOM     34  N   UNL     1       1.428  -8.524   6.511  0.00  0.00    -0.327 N 
ATOM     35  H   UNL     1       2.033  -7.817   6.788  0.00  0.00    +0.145 HD
ATOM     36  H   UNL     1       1.365  -9.340   7.030  0.00  0.00    +0.145 HD
ENDBRANCH  23  25
ENDBRANCH  22  23
ENDBRANCH   9  22
TORSDOF 5
