REMARK  Name = ZINC38547932
REMARK  12 active torsions:
REMARK  status: ('A' for Active; 'I' for Inactive)
REMARK    1  A    between atoms: C_1  and  C_2
REMARK    2  A    between atoms: C_2  and  C_3
REMARK    3  A    between atoms: C_5  and  C_16
REMARK    4  A    between atoms: C_6  and  N_8
REMARK    5  A    between atoms: C_9  and  C_11
REMARK    6  A    between atoms: C_16  and  C_18
REMARK    7  A    between atoms: C_16  and  N_28
REMARK    8  A    between atoms: C_20  and  O_26
REMARK    9  A    between atoms: C_23  and  O_24
REMARK   10  A    between atoms: O_24  and  C_25
REMARK   11  A    between atoms: O_26  and  C_27
REMARK   12  A    between atoms: C_31  and  C_35
REMARK                            x       y       z     vdW  Elec       q    Type
REMARK                         _______ _______ _______ _____ _____    ______ ____
ROOT
ATOM      1  C   UNL     1       3.635  -1.745  -2.695  0.00  0.00    +0.138 C 
ENDROOT
BRANCH   1   2
ATOM      2  N   UNL     1       4.233  -2.452  -1.559  0.00  0.00    -0.319 N 
ATOM      3  C   UNL     1       5.329  -3.284  -1.758  0.00  0.00    +0.097 A 
ATOM      4  C   UNL     1       5.921  -3.356  -3.014  0.00  0.00    +0.045 A 
ATOM      5  C   UNL     1       7.011  -4.189  -3.197  0.00  0.00    -0.046 A 
ATOM      6  C   UNL     1       7.472  -4.924  -2.114  0.00  0.00    +0.021 A 
ATOM      7  C   UNL     1       6.836  -4.804  -0.895  0.00  0.00    +0.084 A 
ATOM      8  N   UNL     1       5.802  -3.998  -0.748  0.00  0.00    -0.350 N 
ATOM      9  C   UNL     1       7.681  -4.295  -4.543  0.00  0.00    +0.044 C 
ATOM     10  H   UNL     1       3.865  -2.338  -0.669  0.00  0.00    +0.148 HD
ATOM     11  H   UNL     1       5.375  -3.929   0.121  0.00  0.00    +0.166 HD
ENDBRANCH   1   2
BRANCH   1  12
ATOM     12  C   UNL     1       4.424  -0.493  -2.979  0.00  0.00    +0.022 A 
ATOM     13  C   UNL     1       5.180   0.089  -1.980  0.00  0.00    +0.055 A 
ATOM     14  C   UNL     1       5.906   1.241  -2.242  0.00  0.00    +0.121 A 
ATOM     15  C   UNL     1       5.874   1.809  -3.507  0.00  0.00    +0.049 A 
ATOM     16  C   UNL     1       5.119   1.226  -4.506  0.00  0.00    +0.049 A 
ATOM     17  C   UNL     1       4.396   0.071  -4.246  0.00  0.00    +0.126 A 
BRANCH  17  18
ATOM     18  O   UNL     1       3.657  -0.505  -5.231  0.00  0.00    -0.495 OA
ATOM     19  C   UNL     1       3.757   0.067  -6.537  0.00  0.00    +0.277 C 
ENDBRANCH  17  18
BRANCH  14  20
ATOM     20  O   UNL     1       6.649   1.815  -1.258  0.00  0.00    -0.495 OA
ATOM     21  C   UNL     1       7.372   3.000  -1.599  0.00  0.00    +0.277 C 
ENDBRANCH  14  20
ENDBRANCH   1  12
BRANCH   1  24
ATOM     22  C   UNL     1       0.590   0.220  -1.742  0.00  0.00    -0.008 A 
ATOM     23  C   UNL     1       1.879  -0.077  -2.033  0.00  0.00    +0.019 A 
ATOM     24  C   UNL     1       2.212  -1.377  -2.365  0.00  0.00    +0.006 A 
ATOM     25  C   UNL     1       1.228  -2.321  -2.388  0.00  0.00    +0.078 A 
ATOM     26  S   UNL     1      -0.208  -1.367  -1.925  0.00  0.00    -0.078 S 
BRANCH  25  27
ATOM     27  N   UNL     1       1.321  -3.681  -2.690  0.00  0.00    -0.273 N 
ATOM     28  C   UNL     1       0.242  -4.476  -2.554  0.00  0.00    +0.284 C 
ATOM     29  O   UNL     1      -0.834  -3.996  -2.248  0.00  0.00    -0.266 OA
ATOM     30  H   UNL     1       2.162  -4.053  -2.997  0.00  0.00    +0.156 HD
BRANCH  28  31
ATOM     31  C   UNL     1       0.363  -5.921  -2.775  0.00  0.00    +0.189 A 
ATOM     32  C   UNL     1      -0.662  -6.823  -2.768  0.00  0.00    +0.054 A 
ATOM     33  C   UNL     1      -0.095  -8.081  -3.022  0.00  0.00    +0.042 A 
ATOM     34  C   UNL     1       1.235  -7.894  -3.171  0.00  0.00    +0.196 A 
ATOM     35  O   UNL     1       1.507  -6.591  -3.027  0.00  0.00    -0.458 OA
ENDBRANCH  28  31
ENDBRANCH  25  27
BRANCH  22  37
ATOM     36  C   UNL     1      -0.582   2.229  -2.602  0.00  0.00    +0.009 C 
ATOM     37  C   UNL     1      -0.014   1.545  -1.356  0.00  0.00    +0.039 C 
ENDBRANCH  22  37
ENDBRANCH   1  24
TORSDOF 8
