REMARK  Name = ZINC51168658
REMARK  10 active torsions:
REMARK  status: ('A' for Active; 'I' for Inactive)
REMARK    1  A    between atoms: C_1  and  C_2
REMARK    2  A    between atoms: C_2  and  C_3
REMARK    3  A    between atoms: C_3  and  C_4
REMARK    4  A    between atoms: C_6  and  N_20
REMARK    5  A    between atoms: C_8  and  C_10
REMARK    6  A    between atoms: C_14  and  O_16
REMARK    7  A    between atoms: O_16  and  C_17
REMARK    8  A    between atoms: C_17  and  C_18
REMARK    9  A    between atoms: C_17  and  C_19
REMARK   10  A    between atoms: N_20  and  N_21
REMARK                            x       y       z     vdW  Elec       q    Type
REMARK                         _______ _______ _______ _____ _____    ______ ____
ROOT
ATOM      1  C   UNL     1       0.153  -2.017  -0.923  0.00  0.00    +0.047 A 
ATOM      2  C   UNL     1      -0.159  -2.679  -2.096  0.00  0.00    +0.068 A 
ATOM      3  C   UNL     1       0.074  -4.055  -2.166  0.00  0.00    +0.136 A 
ATOM      4  N   UNL     1       0.584  -4.677  -1.109  0.00  0.00    -0.212 NA
ATOM      5  C   UNL     1       0.870  -4.005  -0.003  0.00  0.00    +0.162 A 
ATOM      6  N   UNL     1       0.664  -2.699   0.090  0.00  0.00    -0.232 NA
ENDROOT
BRANCH   5   7
ATOM      7  C   UNL     1       1.438  -4.732   1.158  0.00  0.00    +0.023 A 
ATOM      8  C   UNL     1       1.740  -4.045   2.333  0.00  0.00    +0.012 A 
ATOM      9  C   UNL     1       2.269  -4.724   3.412  0.00  0.00    +0.004 A 
ATOM     10  C   UNL     1       2.501  -6.085   3.332  0.00  0.00    +0.046 A 
ATOM     11  C   UNL     1       2.203  -6.776   2.166  0.00  0.00    +0.122 A 
ATOM     12  C   UNL     1       1.667  -6.104   1.080  0.00  0.00    +0.057 A 
BRANCH  11  13
ATOM     13  O   UNL     1       2.433  -8.113   2.091  0.00  0.00    -0.489 OA
BRANCH  13  14
ATOM     14  C   UNL     1       3.091  -8.722   3.205  0.00  0.00    +0.167 C 
ATOM     15  C   UNL     1       2.058  -9.076   4.276  0.00  0.00    +0.051 C 
ATOM     16  C   UNL     1       3.803  -9.994   2.743  0.00  0.00    +0.051 C 
ENDBRANCH  13  14
ENDBRANCH  11  13
ENDBRANCH   5   7
BRANCH   3  17
ATOM     17  N   UNL     1      -0.224  -4.760  -3.321  0.00  0.00    -0.267 N 
ATOM     18  H   UNL     1      -0.597  -4.298  -4.089  0.00  0.00    +0.167 HD
BRANCH  17  19
ATOM     19  N   UNL     1       0.007  -6.105  -3.379  0.00  0.00    -0.255 NA
ATOM     20  H   UNL     1      -0.471  -6.586  -2.632  0.00  0.00    +0.140 HD
ATOM     21  H   UNL     1      -0.258  -6.479  -4.278  0.00  0.00    +0.140 HD
ENDBRANCH  17  19
ENDBRANCH   3  17
BRANCH   1  22
ATOM     22  C   UNL     1      -0.081  -0.533  -0.802  0.00  0.00    +0.055 C 
BRANCH  22  24
ATOM     23  C   UNL     1      -1.191   1.254   0.547  0.00  0.00    +0.004 C 
ATOM     24  C   UNL     1      -0.953  -0.253   0.423  0.00  0.00    +0.003 C 
ENDBRANCH  22  24
ENDBRANCH   1  22
TORSDOF 7
