REMARK  Name = ZINC39750284
REMARK  12 active torsions:
REMARK  status: ('A' for Active; 'I' for Inactive)
REMARK    1  A    between atoms: C_1  and  C_2
REMARK    2  A    between atoms: C_2  and  N_3
REMARK    3  A    between atoms: C_4  and  CA_20
REMARK    4  A    between atoms: C_7  and  S_8
REMARK    5  A    between atoms: S_8  and  C_9
REMARK    6  A    between atoms: C_9  and  C_10
REMARK    7  A    between atoms: C_15  and  C_19
REMARK    8  A    between atoms: C_16  and  C_18
REMARK    9  A    between atoms: CA_20  and  C_22
REMARK   10  A    between atoms: CA_20  and  N_24
REMARK   11  A    between atoms: C_22  and  O_23
REMARK   12  A    between atoms: C_25  and  C_27
REMARK                            x       y       z     vdW  Elec       q    Type
REMARK                         _______ _______ _______ _____ _____    ______ ____
ROOT
ATOM      1  N   UNL     1       0.711  -0.489   1.189  0.00  0.00    -0.305 N 
ATOM      2  C   UNL     1       2.050  -0.742   1.306  0.00  0.00    +0.157 A 
ATOM      3  N   UNL     1       2.262  -1.156   2.523  0.00  0.00    -0.131 NA
ATOM      4  N   UNL     1       1.157  -1.182   3.179  0.00  0.00    -0.122 NA
ATOM      5  C   UNL     1       0.172  -0.778   2.410  0.00  0.00    +0.192 A 
ENDROOT
BRANCH   1   7
ATOM      6  C   UNL     1      -0.019   1.526   0.010  0.00  0.00    +0.027 C 
ATOM      7  C   UNL     1       0.002  -0.004   0.002  0.00  0.00    +0.122 C 
ENDBRANCH   1   7
BRANCH   5   8
ATOM      8  S   UNL     1      -1.524  -0.637   2.867  0.00  0.00    -0.077 S 
BRANCH   8   9
ATOM      9  C   UNL     1      -1.557  -1.169   4.601  0.00  0.00    +0.173 C 
BRANCH   9  10
ATOM     10  C   UNL     1      -2.969  -1.095   5.122  0.00  0.00    +0.229 C 
ATOM     11  O   UNL     1      -3.865  -0.721   4.395  0.00  0.00    -0.275 OA
ATOM     12  N   UNL     1      -3.236  -1.445   6.396  0.00  0.00    -0.264 N 
ATOM     13  C   UNL     1      -4.538  -1.377   6.877  0.00  0.00    +0.165 A 
ATOM     14  N   UNL     1      -5.627  -1.005   6.239  0.00  0.00    -0.230 NA
ATOM     15  C   UNL     1      -6.801  -0.996   6.841  0.00  0.00    +0.050 A 
ATOM     16  C   UNL     1      -6.831  -1.385   8.140  0.00  0.00    +0.011 A 
ATOM     17  S   UNL     1      -5.107  -1.759   8.414  0.00  0.00    -0.057 S 
ATOM     18  C   UNL     1      -7.998  -1.480   9.088  0.00  0.00    +0.053 C 
ATOM     19  C   UNL     1      -8.053  -0.570   6.119  0.00  0.00    +0.066 C 
ATOM     20  H   UNL     1      -2.519  -1.744   6.977  0.00  0.00    +0.157 HD
ENDBRANCH   9  10
ENDBRANCH   8   9
ENDBRANCH   5   8
BRANCH   2  21
ATOM     21  CA  UNL     1       3.088  -0.573   0.226  0.00  0.00    +0.167 C 
BRANCH  21  22
ATOM     22  N   UNL     1       4.265   0.099   0.781  0.00  0.00    -0.299 N 
ATOM     23  C   UNL     1       5.085   0.800  -0.027  0.00  0.00    +0.245 C 
ATOM     24  O   UNL     1       4.847   0.874  -1.217  0.00  0.00    -0.270 OA
ATOM     25  H   UNL     1       4.455   0.039   1.731  0.00  0.00    +0.150 HD
BRANCH  23  26
ATOM     26  C   UNL     1       6.272   1.478   0.533  0.00  0.00    +0.037 A 
ATOM     27  C   UNL     1       6.551   1.389   1.898  0.00  0.00    +0.014 A 
ATOM     28  C   UNL     1       7.661   2.023   2.415  0.00  0.00    +0.021 A 
ATOM     29  C   UNL     1       8.499   2.747   1.583  0.00  0.00    +0.041 A 
ATOM     30  C   UNL     1       8.227   2.839   0.228  0.00  0.00    +0.021 A 
ATOM     31  C   UNL     1       7.123   2.204  -0.302  0.00  0.00    +0.014 A 
ATOM     32 CL   UNL     1       9.893   3.544   2.241  0.00  0.00    -0.084 Cl
ENDBRANCH  23  26
ENDBRANCH  21  22
BRANCH  21  33
ATOM     33  C   UNL     1       3.491  -1.947  -0.313  0.00  0.00    +0.186 C 
BRANCH  33  34
ATOM     34  O   UNL     1       3.924  -2.775   0.769  0.00  0.00    -0.393 OA
ATOM     35  H   UNL     1       4.195  -3.663   0.501  0.00  0.00    +0.209 HD
ENDBRANCH  33  34
ENDBRANCH  21  33
ENDBRANCH   2  21
TORSDOF 9
