REMARK  Name = ZINC17303186
REMARK  9 active torsions:
REMARK  status: ('A' for Active; 'I' for Inactive)
REMARK    1  A    between atoms: C_1  and  C_2
REMARK    2  A    between atoms: C_5  and  C_9
REMARK    3  A    between atoms: C_7  and  C_8
REMARK    4  A    between atoms: C_10  and  C_20
REMARK    5  A    between atoms: N_12  and  C_14
REMARK    6  A    between atoms: N_22  and  C_23
REMARK    7  A    between atoms: C_24  and  C_36
REMARK    8  A    between atoms: N_25  and  C_35
REMARK    9  A    between atoms: N_26  and  C_29
REMARK                            x       y       z     vdW  Elec       q    Type
REMARK                         _______ _______ _______ _____ _____    ______ ____
ROOT
ATOM      1  C   UNL     1       0.770   0.734  -0.709  0.00  0.00    +0.105 A 
ATOM      2  C   UNL     1       2.067   1.395  -0.527  0.00  0.00    +0.083 A 
ATOM      3  C   UNL     1       3.015   0.393  -0.506  0.00  0.00    +0.128 A 
ATOM      4  N   UNL     1       2.378  -0.781  -0.659  0.00  0.00    -0.239 N 
ATOM      5  N   UNL     1       1.004  -0.557  -0.782  0.00  0.00    -0.166 NA
ENDROOT
BRANCH   1  10
ATOM      6  C   UNL     1      -4.367   3.311  -1.061  0.00  0.00    +0.044 C 
ATOM      7  C   UNL     1      -3.023   2.637  -0.969  0.00  0.00    -0.047 A 
ATOM      8  C   UNL     1      -2.049   3.152  -0.132  0.00  0.00    +0.004 A 
ATOM      9  C   UNL     1      -0.816   2.539  -0.043  0.00  0.00    +0.010 A 
ATOM     10  C   UNL     1      -0.552   1.398  -0.799  0.00  0.00    +0.003 A 
ATOM     11  C   UNL     1      -1.535   0.886  -1.645  0.00  0.00    +0.013 A 
ATOM     12  C   UNL     1      -2.767   1.504  -1.720  0.00  0.00    -0.047 A 
ATOM     13  C   UNL     1      -3.833   0.949  -2.630  0.00  0.00    +0.044 C 
ENDBRANCH   1  10
BRANCH   4  14
ATOM     14  C   UNL     1       2.997  -2.037  -0.691  0.00  0.00    +0.065 A 
ATOM     15  C   UNL     1       4.376  -2.136  -0.564  0.00  0.00    +0.028 A 
ATOM     16  C   UNL     1       4.983  -3.377  -0.591  0.00  0.00    +0.002 A 
ATOM     17  C   UNL     1       4.220  -4.518  -0.754  0.00  0.00    +0.000 A 
ATOM     18  C   UNL     1       2.847  -4.422  -0.886  0.00  0.00    +0.002 A 
ATOM     19  C   UNL     1       2.233  -3.185  -0.855  0.00  0.00    +0.028 A 
ENDBRANCH   4  14
BRANCH   2  20
ATOM     20  C   UNL     1       2.308   2.842  -0.394  0.00  0.00    +0.252 C 
ATOM     21  O   UNL     1       1.374   3.620  -0.431  0.00  0.00    -0.270 OA
ATOM     22  N   UNL     1       3.564   3.303  -0.231  0.00  0.00    -0.276 N 
ATOM     23  H   UNL     1       4.300   2.680  -0.128  0.00  0.00    +0.155 HD
BRANCH  22  24
ATOM     24  C   UNL     1       3.808   4.691  -0.211  0.00  0.00    +0.121 A 
ATOM     25  C   UNL     1       4.403   5.386   0.784  0.00  0.00    +0.059 A 
ATOM     26  N   UNL     1       4.453   6.707   0.425  0.00  0.00    -0.282 N 
ATOM     27  N   UNL     1       3.873   6.861  -0.839  0.00  0.00    -0.216 N 
ATOM     28  C   UNL     1       3.470   5.647  -1.266  0.00  0.00    +0.293 A 
ATOM     29  O   UNL     1       2.927   5.394  -2.327  0.00  0.00    -0.264 OA
ATOM     30  C   UNL     1       5.024   7.786   1.235  0.00  0.00    +0.171 C 
ATOM     31  C   UNL     1       4.923   4.805   2.074  0.00  0.00    +0.067 C 
BRANCH  27  32
ATOM     32  C   UNL     1       3.740   8.064  -1.540  0.00  0.00    +0.067 A 
ATOM     33  C   UNL     1       3.229   9.188  -0.904  0.00  0.00    +0.028 A 
ATOM     34  C   UNL     1       3.104  10.375  -1.597  0.00  0.00    +0.002 A 
ATOM     35  C   UNL     1       3.476  10.444  -2.928  0.00  0.00    +0.000 A 
ATOM     36  C   UNL     1       3.979   9.325  -3.566  0.00  0.00    +0.002 A 
ATOM     37  C   UNL     1       4.113   8.136  -2.876  0.00  0.00    +0.028 A 
ENDBRANCH  27  32
ENDBRANCH  22  24
ENDBRANCH   2  20
TORSDOF 5
