REMARK  Name = ZINC36065849
REMARK  13 active torsions:
REMARK  status: ('A' for Active; 'I' for Inactive)
REMARK    1  A    between atoms: C_1  and  C_2
REMARK    2  A    between atoms: C_2  and  C_3
REMARK    3  A    between atoms: C_2  and  C_4
REMARK    4  A    between atoms: C_7  and  C_10
REMARK    5  A    between atoms: C_10  and  N_11
REMARK    6  A    between atoms: N_11  and  C_12
REMARK    7  A    between atoms: N_11  and  C_22
REMARK    8  A    between atoms: C_12  and  C_13
REMARK    9  A    between atoms: C_22  and  C_23
REMARK   10  A    between atoms: C_25  and  C_28
REMARK   11  A    between atoms: N_30  and  C_31
REMARK   12  A    between atoms: C_31  and  C_32
REMARK   13  A    between atoms: C_31  and  C_33
REMARK                            x       y       z     vdW  Elec       q    Type
REMARK                         _______ _______ _______ _____ _____    ______ ____
ROOT
ATOM      1  N   UNL     1      -6.062  -0.875  -0.709  0.00  0.00    +0.391 N 
ATOM      2  H   UNL     1      -5.983  -0.486  -1.636  0.00  0.00    -0.080 HD
ENDROOT
BRANCH   1   3
ATOM      3  C   UNL     1      -4.981  -1.845  -0.491  0.00  0.00    -0.042 C 
BRANCH   3   7
ATOM      4  C   UNL     1      -5.036  -4.766  -3.607  0.00  0.00    -0.045 A 
ATOM      5  C   UNL     1      -4.385  -3.562  -3.800  0.00  0.00    +0.004 A 
ATOM      6  C   UNL     1      -4.367  -2.617  -2.792  0.00  0.00    +0.002 A 
ATOM      7  C   UNL     1      -5.001  -2.875  -1.591  0.00  0.00    -0.064 A 
ATOM      8  C   UNL     1      -5.652  -4.079  -1.398  0.00  0.00    +0.002 A 
ATOM      9  C   UNL     1      -5.673  -5.023  -2.408  0.00  0.00    +0.004 A 
BRANCH   4  11
ATOM     10  C   UNL     1      -5.644  -5.178  -5.976  0.00  0.00    +0.012 C 
ATOM     11  C   UNL     1      -5.055  -5.797  -4.706  0.00  0.00    +0.013 C 
ATOM     12  C   UNL     1      -3.627  -6.272  -4.985  0.00  0.00    +0.012 C 
ENDBRANCH   4  11
ENDBRANCH   3   7
ENDBRANCH   1   3
BRANCH   1  13
ATOM     13  C   UNL     1      -5.961   0.202   0.285  0.00  0.00    -0.042 C 
BRANCH  13  14
ATOM     14  C   UNL     1      -4.686   0.974   0.061  0.00  0.00    -0.060 A 
ATOM     15  C   UNL     1      -3.553   0.659   0.789  0.00  0.00    +0.005 A 
ATOM     16  C   UNL     1      -2.381   1.363   0.587  0.00  0.00    +0.050 A 
ATOM     17  C   UNL     1      -2.339   2.387  -0.345  0.00  0.00    +0.166 A 
ATOM     18  C   UNL     1      -3.480   2.704  -1.078  0.00  0.00    +0.166 A 
ATOM     19  C   UNL     1      -4.650   1.990  -0.874  0.00  0.00    +0.051 A 
ATOM     20  O   UNL     1      -3.184   3.737  -1.920  0.00  0.00    -0.453 OA
ATOM     21  C   UNL     1      -1.971   4.317  -1.406  0.00  0.00    +0.466 C 
ATOM     22  O   UNL     1      -1.328   3.221  -0.728  0.00  0.00    -0.453 OA
ENDBRANCH  13  14
ENDBRANCH   1  13
BRANCH   1  23
ATOM     23  C   UNL     1      -7.360  -1.549  -0.570  0.00  0.00    +0.020 C 
BRANCH  23  24
ATOM     24  C   UNL     1      -8.466  -0.585  -0.913  0.00  0.00    +0.179 A 
ATOM     25  N   UNL     1      -8.972  -0.412  -2.097  0.00  0.00    -0.210 NA
ATOM     26  C   UNL     1      -9.946   0.535  -2.016  0.00  0.00    +0.163 A 
ATOM     27  C   UNL     1     -10.009   0.933  -0.716  0.00  0.00    +0.230 A 
ATOM     28  O   UNL     1      -9.087   0.225  -0.044  0.00  0.00    -0.449 OA
BRANCH  26  29
ATOM     29  C   UNL     1     -10.775   1.036  -3.127  0.00  0.00    +0.266 C 
ATOM     30  O   UNL     1     -11.617   1.890  -2.920  0.00  0.00    -0.268 OA
ATOM     31  N   UNL     1     -10.602   0.547  -4.371  0.00  0.00    -0.308 N 
ATOM     32  H   UNL     1      -9.931  -0.134  -4.535  0.00  0.00    +0.149 HD
BRANCH  31  33
ATOM     33  C   UNL     1     -11.427   1.045  -5.475  0.00  0.00    +0.067 C 
ATOM     34  C   UNL     1     -10.800   2.319  -6.045  0.00  0.00    +0.027 C 
ATOM     35  C   UNL     1     -11.508  -0.019  -6.571  0.00  0.00    +0.027 C 
ENDBRANCH  31  33
ENDBRANCH  26  29
ENDBRANCH  23  24
ENDBRANCH   1  23
TORSDOF 9
