REMARK  Name = ZINC35724636
REMARK  9 active torsions:
REMARK  status: ('A' for Active; 'I' for Inactive)
REMARK    1  A    between atoms: C_1  and  C_2
REMARK    2  A    between atoms: C_2  and  C_3
REMARK    3  A    between atoms: C_3  and  C_5
REMARK    4  A    between atoms: C_3  and  C_6
REMARK    5  A    between atoms: C_6  and  C_8
REMARK    6  A    between atoms: C_6  and  N_23
REMARK    7  A    between atoms: C_14  and  C_16
REMARK    8  A    between atoms: N_26  and  C_27
REMARK    9  A    between atoms: C_30  and  C_34
REMARK                            x       y       z     vdW  Elec       q    Type
REMARK                         _______ _______ _______ _____ _____    ______ ____
ROOT
ATOM      1  C   UNL     1      -0.214  -0.196  -2.644  0.00  0.00    +0.163 C 
ENDROOT
BRANCH   1   2
ATOM      2  C   UNL     1      -0.200   1.236  -3.112  0.00  0.00    +0.239 C 
ATOM      3  O   UNL     1       0.328   1.525  -4.165  0.00  0.00    -0.273 OA
ATOM      4  N   UNL     1      -0.774   2.196  -2.360  0.00  0.00    -0.262 N 
ATOM      5  C   UNL     1      -0.854   3.498  -2.839  0.00  0.00    +0.188 A 
ATOM      6  N   UNL     1      -0.442   4.010  -3.992  0.00  0.00    -0.125 NA
ATOM      7  N   UNL     1      -0.594   5.230  -4.272  0.00  0.00    -0.140 NA
ATOM      8  C   UNL     1      -1.175   6.075  -3.431  0.00  0.00    +0.134 A 
ATOM      9  S   UNL     1      -1.549   4.963  -2.079  0.00  0.00    -0.030 S 
ATOM     10  H   UNL     1      -1.132   1.978  -1.485  0.00  0.00    +0.157 HD
BRANCH   8  11
ATOM     11  C   UNL     1      -1.444   7.522  -3.572  0.00  0.00    +0.009 A 
ATOM     12  C   UNL     1      -2.072   8.222  -2.540  0.00  0.00    +0.012 A 
ATOM     13  C   UNL     1      -2.319   9.572  -2.678  0.00  0.00    +0.020 A 
ATOM     14  C   UNL     1      -1.946  10.233  -3.836  0.00  0.00    +0.041 A 
ATOM     15  C   UNL     1      -1.323   9.544  -4.863  0.00  0.00    +0.020 A 
ATOM     16  C   UNL     1      -1.065   8.195  -4.734  0.00  0.00    +0.012 A 
ATOM     17 CL   UNL     1      -2.262  11.932  -4.002  0.00  0.00    -0.084 Cl
ENDBRANCH   8  11
ENDBRANCH   1   2
BRANCH   1  18
ATOM     18  N   UNL     1       0.313  -1.061  -3.702  0.00  0.00    -0.288 N 
ATOM     19  C   UNL     1      -0.045  -2.360  -3.753  0.00  0.00    +0.304 C 
ATOM     20  O   UNL     1      -0.805  -2.813  -2.920  0.00  0.00    -0.252 OA
ATOM     21  N   UNL     1       0.441  -3.155  -4.726  0.00  0.00    -0.269 N 
ATOM     22  H   UNL     1       0.920  -0.699  -4.367  0.00  0.00    +0.151 HD
ATOM     23  H   UNL     1       1.105  -2.814  -5.346  0.00  0.00    +0.156 HD
BRANCH  21  24
ATOM     24  C   UNL     1      -0.013  -4.474  -4.844  0.00  0.00    +0.036 A 
ATOM     25  C   UNL     1      -1.331  -4.786  -4.537  0.00  0.00    +0.024 A 
ATOM     26  C   UNL     1      -1.777  -6.088  -4.654  0.00  0.00    +0.006 A 
ATOM     27  C   UNL     1      -0.912  -7.081  -5.076  0.00  0.00    -0.032 A 
ATOM     28  C   UNL     1       0.402  -6.774  -5.382  0.00  0.00    +0.046 A 
ATOM     29  C   UNL     1       0.852  -5.471  -5.272  0.00  0.00    +0.043 A 
ATOM     30 CL   UNL     1       1.484  -8.024  -5.910  0.00  0.00    -0.083 Cl
ATOM     31  C   UNL     1      -1.402  -8.501  -5.202  0.00  0.00    +0.045 C 
ENDBRANCH  21  24
ENDBRANCH   1  18
BRANCH   1  32
ATOM     32  C   UNL     1       0.656  -0.333  -1.393  0.00  0.00    +0.015 C 
ATOM     33  C   UNL     1       2.118  -0.069  -1.757  0.00  0.00    +0.010 C 
BRANCH  32  35
ATOM     34  C   UNL     1      -0.920  -1.971  -0.355  0.00  0.00    +0.004 C 
ATOM     35  C   UNL     1       0.518  -1.748  -0.828  0.00  0.00    +0.002 C 
ENDBRANCH  32  35
ENDBRANCH   1  32
TORSDOF 6
