REMARK  Name = ZINC39666013
REMARK  10 active torsions:
REMARK  status: ('A' for Active; 'I' for Inactive)
REMARK    1  A    between atoms: C_1  and  C_2
REMARK    2  A    between atoms: C_5  and  O_8
REMARK    3  A    between atoms: O_8  and  C_9
REMARK    4  A    between atoms: C_9  and  C_11
REMARK    5  A    between atoms: C_9  and  C_12
REMARK    6  A    between atoms: C_12  and  N_13
REMARK    7  A    between atoms: C_14  and  C_16
REMARK    8  A    between atoms: C_27  and  C_29
REMARK    9  A    between atoms: C_32  and  O_35
REMARK   10  A    between atoms: O_35  and  C_36
REMARK                            x       y       z     vdW  Elec       q    Type
REMARK                         _______ _______ _______ _____ _____    ______ ____
ROOT
ATOM      1  C   UNL     1      -3.999  -6.703   0.531  0.00  0.00    +0.100 C 
ATOM      2  C   UNL     1      -4.652  -5.810   1.609  0.00  0.00    +0.121 C 
ATOM      3  N   UNL     1      -6.043  -6.309   1.717  0.00  0.00    -0.296 N 
ATOM      4  C   UNL     1      -5.915  -7.782   1.608  0.00  0.00    +0.115 C 
ATOM      5  C   UNL     1      -4.830  -7.997   0.534  0.00  0.00    -0.004 C 
ATOM      6  C   UNL     1      -3.952  -9.188   0.903  0.00  0.00    -0.010 C 
ATOM      7  C   UNL     1      -4.786 -10.471   0.842  0.00  0.00    -0.082 C 
ATOM      8  N   UNL     1      -5.330 -10.639  -0.511  0.00  0.00    +0.379 N 
ATOM      9  C   UNL     1      -6.247  -9.536  -0.822  0.00  0.00    -0.082 C 
ATOM     10  C   UNL     1      -5.475  -8.214  -0.832  0.00  0.00    -0.010 C 
ATOM     11  C   UNL     1      -7.170  -5.588   1.878  0.00  0.00    +0.247 C 
ATOM     12  O   UNL     1      -7.106  -4.381   2.013  0.00  0.00    -0.270 OA
ATOM     13  H   UNL     1      -4.574 -10.644  -1.178  0.00  0.00    -0.086 HD
ATOM     14  H   UNL     1      -5.829 -11.515  -0.565  0.00  0.00    -0.086 HD
ENDROOT
BRANCH  11  15
ATOM     15  C   UNL     1      -8.483  -6.263   1.891  0.00  0.00    +0.037 A 
ATOM     16  C   UNL     1      -8.607  -7.543   2.438  0.00  0.00    +0.016 A 
ATOM     17  C   UNL     1      -9.834  -8.168   2.449  0.00  0.00    +0.047 A 
ATOM     18  C   UNL     1     -10.947  -7.529   1.916  0.00  0.00    +0.130 A 
ATOM     19  C   UNL     1     -10.827  -6.256   1.370  0.00  0.00    +0.047 A 
ATOM     20  C   UNL     1      -9.605  -5.621   1.361  0.00  0.00    +0.016 A 
BRANCH  18  21
ATOM     21  O   UNL     1     -12.154  -8.150   1.927  0.00  0.00    -0.406 OA
BRANCH  21  22
ATOM     22  C   UNL     1     -13.256  -7.436   1.363  0.00  0.00    +0.575 C 
ATOM     23  F   UNL     1     -12.990  -7.155   0.018  0.00  0.00    -0.133 F 
ATOM     24  F   UNL     1     -14.414  -8.216   1.457  0.00  0.00    -0.133 F 
ATOM     25  F   UNL     1     -13.442  -6.238   2.062  0.00  0.00    -0.133 F 
ENDBRANCH  21  22
ENDBRANCH  18  21
ENDBRANCH  11  15
BRANCH   1  27
ATOM     26  N   UNL     1      -1.654  -7.198  -0.080  0.00  0.00    -0.312 N 
ATOM     27  C   UNL     1      -2.566  -6.999   0.892  0.00  0.00    +0.218 C 
ATOM     28  O   UNL     1      -2.234  -7.058   2.057  0.00  0.00    -0.275 OA
ATOM     29  H   UNL     1      -1.919  -7.151  -1.011  0.00  0.00    +0.149 HD
BRANCH  26  30
ATOM     30  C   UNL     1      -0.261  -7.486   0.272  0.00  0.00    +0.148 C 
BRANCH  30  31
ATOM     31  C   UNL     1       0.560  -7.668  -1.006  0.00  0.00    +0.187 C 
ATOM     32  C   UNL     1       2.015  -7.969  -0.640  0.00  0.00    +0.053 C 
BRANCH  31  33
ATOM     33  O   UNL     1       0.026  -8.756  -1.764  0.00  0.00    -0.488 OA
BRANCH  33  38
ATOM     34  C   UNL     1       1.028  -8.745  -7.307  0.00  0.00    +0.044 C 
ATOM     35  C   UNL     1       0.759  -8.748  -5.824  0.00  0.00    -0.050 A 
ATOM     36  C   UNL     1       1.165  -7.678  -5.047  0.00  0.00    +0.007 A 
ATOM     37  C   UNL     1       0.920  -7.679  -3.688  0.00  0.00    +0.046 A 
ATOM     38  C   UNL     1       0.267  -8.753  -3.102  0.00  0.00    +0.121 A 
ATOM     39  C   UNL     1      -0.139  -9.825  -3.883  0.00  0.00    +0.046 A 
ATOM     40  C   UNL     1       0.103  -9.817  -5.243  0.00  0.00    +0.007 A 
ENDBRANCH  33  38
ENDBRANCH  31  33
ENDBRANCH  30  31
ENDBRANCH  26  30
ENDBRANCH   1  27
TORSDOF 8
