REMARK  Name = ZINC12487958
REMARK  12 active torsions:
REMARK  status: ('A' for Active; 'I' for Inactive)
REMARK    1  A    between atoms: C_1  and  C_2
REMARK    2  A    between atoms: C_5  and  C_8
REMARK    3  A    between atoms: C_8  and  C_10
REMARK    4  A    between atoms: C_8  and  N_19
REMARK    5  A    between atoms: N_12  and  C_13
REMARK    6  A    between atoms: C_13  and  C_14
REMARK    7  A    between atoms: N_19  and  C_20
REMARK    8  A    between atoms: C_25  and  O_26
REMARK    9  A    between atoms: O_26  and  C_27
REMARK   10  A    between atoms: C_28  and  C_30
REMARK   11  A    between atoms: C_30  and  N_31
REMARK   12  A    between atoms: C_32  and  C_34
REMARK                            x       y       z     vdW  Elec       q    Type
REMARK                         _______ _______ _______ _____ _____    ______ ____
ROOT
ATOM      1  N   UNL     1       3.061   1.005   0.653  0.00  0.00    -0.251 N 
ATOM      2  C   UNL     1       1.924   0.429   0.217  0.00  0.00    +0.238 C 
ATOM      3  O   UNL     1       1.974  -0.574  -0.464  0.00  0.00    -0.273 OA
ENDROOT
BRANCH   1   4
ATOM      4  C   UNL     1       3.002   2.164   1.439  0.00  0.00    +0.079 A 
ATOM      5  C   UNL     1       3.158   2.080   2.815  0.00  0.00    +0.027 A 
ATOM      6  C   UNL     1       3.100   3.224   3.588  0.00  0.00    +0.002 A 
ATOM      7  C   UNL     1       2.887   4.454   2.993  0.00  0.00    +0.004 A 
ATOM      8  C   UNL     1       2.731   4.545   1.623  0.00  0.00    +0.047 A 
ATOM      9  C   UNL     1       2.793   3.404   0.840  0.00  0.00    +0.141 A 
BRANCH   9  10
ATOM     10  O   UNL     1       2.646   3.493  -0.508  0.00  0.00    -0.493 OA
ATOM     11  C   UNL     1       2.434   4.797  -1.053  0.00  0.00    +0.277 C 
ENDBRANCH   9  10
ENDBRANCH   1   4
BRANCH   1  12
ATOM     12  C   UNL     1       4.359   0.420   0.307  0.00  0.00    +0.197 C 
BRANCH  12  17
ATOM     13  C   UNL     1       4.784  -0.056  -5.436  0.00  0.00    +0.044 C 
ATOM     14  C   UNL     1       4.673   0.068  -3.939  0.00  0.00    -0.050 A 
ATOM     15  C   UNL     1       5.262  -0.878  -3.121  0.00  0.00    +0.004 A 
ATOM     16  C   UNL     1       5.160  -0.764  -1.747  0.00  0.00    +0.006 A 
ATOM     17  C   UNL     1       4.470   0.296  -1.191  0.00  0.00    -0.018 A 
ATOM     18  C   UNL     1       3.876   1.240  -2.009  0.00  0.00    +0.006 A 
ATOM     19  C   UNL     1       3.982   1.128  -3.382  0.00  0.00    +0.004 A 
ENDBRANCH  12  17
BRANCH  12  20
ATOM     20  C   UNL     1       5.463   1.307   0.821  0.00  0.00    +0.239 C 
ATOM     21  O   UNL     1       5.283   2.502   0.922  0.00  0.00    -0.273 OA
ATOM     22  N   UNL     1       6.651   0.773   1.167  0.00  0.00    -0.306 N 
ATOM     23  H   UNL     1       6.795  -0.183   1.086  0.00  0.00    +0.149 HD
BRANCH  22  24
ATOM     24  C   UNL     1       7.724   1.635   1.667  0.00  0.00    +0.178 C 
BRANCH  24  25
ATOM     25  C   UNL     1       8.937   0.797   1.980  0.00  0.00    +0.122 A 
ATOM     26  C   UNL     1       9.931   0.501   1.124  0.00  0.00    +0.046 A 
ATOM     27  C   UNL     1      10.855  -0.302   1.831  0.00  0.00    +0.041 A 
ATOM     28  C   UNL     1      10.371  -0.448   3.077  0.00  0.00    +0.195 A 
ATOM     29  O   UNL     1       9.212   0.224   3.163  0.00  0.00    -0.466 OA
ENDBRANCH  24  25
ENDBRANCH  22  24
ENDBRANCH  12  20
ENDBRANCH   1  12
BRANCH   2  30
ATOM     30  C   UNL     1       0.589   1.031   0.573  0.00  0.00    +0.201 C 
BRANCH  30  31
ATOM     31  N   UNL     1      -0.483   0.225  -0.017  0.00  0.00    -0.302 N 
ATOM     32  C   UNL     1      -1.771   0.579   0.166  0.00  0.00    +0.251 C 
ATOM     33  O   UNL     1      -2.043   1.565   0.826  0.00  0.00    -0.270 OA
ATOM     34  H   UNL     1      -0.266  -0.560  -0.543  0.00  0.00    +0.150 HD
BRANCH  32  35
ATOM     35  C   UNL     1      -2.843  -0.223  -0.429  0.00  0.00    +0.074 A 
ATOM     36  C   UNL     1      -4.215  -0.038  -0.358  0.00  0.00    +0.021 A 
ATOM     37  C   UNL     1      -5.003  -0.947  -1.019  0.00  0.00    +0.008 A 
ATOM     38  C   UNL     1      -4.415  -1.972  -1.690  0.00  0.00    +0.046 A 
ATOM     39  S   UNL     1      -2.723  -1.697  -1.428  0.00  0.00    -0.092 S 
ENDBRANCH  32  35
ENDBRANCH  30  31
ENDBRANCH   2  30
TORSDOF 10
