REMARK  Name = ZINC63194323
REMARK  6 active torsions:
REMARK  status: ('A' for Active; 'I' for Inactive)
REMARK    1  A    between atoms: C_4  and  N_7
REMARK    2  A    between atoms: C_8  and  C_10
REMARK    3  A    between atoms: C_13  and  C_16
REMARK    4  A    between atoms: C_16  and  N_17
REMARK    5  A    between atoms: C_20  and  C_25
REMARK    6  A    between atoms: C_25  and  C_26
REMARK                            x       y       z     vdW  Elec       q    Type
REMARK                         _______ _______ _______ _____ _____    ______ ____
ROOT
ATOM      1  N   UNL     1       9.050  -4.912   1.832  0.00  0.00    -0.220 N 
ATOM      2  C   UNL     1       9.780  -4.010   2.517  0.00  0.00    +0.244 C 
ATOM      3  O   UNL     1      10.232  -2.965   2.101  0.00  0.00    -0.273 OA
ATOM      4  C   UNL     1       9.918  -4.574   3.918  0.00  0.00    +0.165 C 
ATOM      5  N   UNL     1       9.180  -5.847   3.853  0.00  0.00    -0.287 N 
ATOM      6  C   UNL     1       8.706  -5.953   2.598  0.00  0.00    +0.309 C 
ATOM      7  O   UNL     1       8.043  -6.893   2.204  0.00  0.00    -0.252 OA
ATOM      8  H   UNL     1       9.057  -6.483   4.575  0.00  0.00    +0.151 HD
ENDROOT
BRANCH   1   9
ATOM      9  C   UNL     1       8.674  -4.766   0.424  0.00  0.00    +0.153 C 
BRANCH   9  13
ATOM     10  C   UNL     1       4.936  -2.707   0.151  0.00  0.00    +0.037 A 
ATOM     11  C   UNL     1       6.134  -1.989   0.148  0.00  0.00    +0.013 A 
ATOM     12  C   UNL     1       7.336  -2.660   0.237  0.00  0.00    +0.006 A 
ATOM     13  C   UNL     1       7.356  -4.040   0.328  0.00  0.00    -0.030 A 
ATOM     14  C   UNL     1       6.173  -4.757   0.331  0.00  0.00    +0.006 A 
ATOM     15  C   UNL     1       4.964  -4.099   0.249  0.00  0.00    +0.013 A 
BRANCH  10  17
ATOM     16  N   UNL     1       3.621  -0.650  -0.037  0.00  0.00    -0.282 N 
ATOM     17  C   UNL     1       3.644  -1.994   0.057  0.00  0.00    +0.248 C 
ATOM     18  O   UNL     1       2.603  -2.621   0.064  0.00  0.00    -0.270 OA
ATOM     19  H   UNL     1       4.451  -0.155  -0.121  0.00  0.00    +0.155 HD
BRANCH  16  23
ATOM     20  C   UNL     1      -0.015   1.381   0.030  0.00  0.00    +0.000 A 
ATOM     21  C   UNL     1       0.140   0.219   0.764  0.00  0.00    +0.002 A 
ATOM     22  C   UNL     1       1.344  -0.457   0.744  0.00  0.00    +0.023 A 
ATOM     23  C   UNL     1       2.400   0.031  -0.015  0.00  0.00    +0.034 A 
ATOM     24  C   UNL     1       2.241   1.198  -0.751  0.00  0.00    +0.023 A 
ATOM     25  C   UNL     1       1.034   1.869  -0.727  0.00  0.00    +0.002 A 
ENDBRANCH  16  23
ENDBRANCH  10  17
ENDBRANCH   9  13
ENDBRANCH   1   9
BRANCH   4  26
ATOM     26  C   UNL     1       9.283  -3.631   4.942  0.00  0.00    +0.065 C 
BRANCH  26  27
ATOM     27  C   UNL     1       9.540  -4.152   6.332  0.00  0.00    -0.039 C 
ATOM     28  C   UNL     1      10.543  -3.789   7.164  0.00  0.00    -0.001 A 
ATOM     29  C   UNL     1      11.651  -2.836   7.029  0.00  0.00    +0.010 A 
ATOM     30  C   UNL     1      12.516  -2.685   8.058  0.00  0.00    +0.001 A 
ATOM     31  C   UNL     1      12.381  -3.415   9.247  0.00  0.00    +0.002 A 
ATOM     32  C   UNL     1      11.389  -4.308   9.446  0.00  0.00    +0.026 A 
ATOM     33  C   UNL     1      10.422  -4.546   8.430  0.00  0.00    +0.043 A 
ATOM     34  N   UNL     1       9.385  -5.347   8.383  0.00  0.00    -0.380 N 
ATOM     35  C   UNL     1       8.727  -5.184   7.082  0.00  0.00    +0.144 C 
ATOM     36  H   UNL     1       9.099  -5.945   9.091  0.00  0.00    +0.160 HD
ENDBRANCH  26  27
ENDBRANCH   4  26
TORSDOF 6
