REMARK  Name = ZINC20699058
REMARK  6 active torsions:
REMARK  status: ('A' for Active; 'I' for Inactive)
REMARK    1  A    between atoms: C_4  and  O_7
REMARK    2  A    between atoms: O_7  and  C_8
REMARK    3  A    between atoms: C_8  and  C_9
REMARK    4  A    between atoms: C_9  and  O_10
REMARK    5  A    between atoms: O_10  and  C_11
REMARK    6  A    between atoms: C_18  and  C_27
REMARK                            x       y       z     vdW  Elec       q    Type
REMARK                         _______ _______ _______ _____ _____    ______ ____
ROOT
ATOM      1  C   UNL     1       7.064  -2.351  -1.459  0.00  0.00    +0.142 A 
ATOM      2  C   UNL     1       8.023  -2.477  -0.474  0.00  0.00    +0.047 A 
ATOM      3  C   UNL     1       9.080  -3.353  -0.641  0.00  0.00    +0.004 A 
ATOM      4  C   UNL     1       9.175  -4.098  -1.801  0.00  0.00    +0.006 A 
ATOM      5  C   UNL     1       8.220  -3.981  -2.790  0.00  0.00    -0.016 A 
ATOM      6  C   UNL     1       7.148  -3.099  -2.639  0.00  0.00    +0.074 A 
ATOM      7  N   UNL     1       6.156  -2.901  -3.602  0.00  0.00    -0.334 N 
ATOM      8  C   UNL     1       6.217  -3.753  -4.800  0.00  0.00    +0.106 C 
ATOM      9  C   UNL     1       7.680  -3.899  -5.167  0.00  0.00    +0.029 C 
ATOM     10  C   UNL     1       8.284  -4.783  -4.032  0.00  0.00    +0.049 C 
ATOM     11  C   UNL     1       9.566  -5.249  -4.616  0.00  0.00    -0.023 C 
ATOM     12  C   UNL     1       9.435  -5.296  -5.937  0.00  0.00    -0.030 C 
ATOM     13  C   UNL     1       8.039  -4.817  -6.341  0.00  0.00    +0.033 C 
ATOM     14  H   UNL     1       5.355  -2.155  -3.498  0.00  0.00    +0.147 HD
ENDROOT
BRANCH   8  15
ATOM     15  C   UNL     1       5.626  -5.106  -4.500  0.00  0.00    -0.019 A 
ATOM     16  C   UNL     1       5.518  -5.536  -3.213  0.00  0.00    +0.006 A 
ATOM     17  C   UNL     1       4.967  -6.780  -2.915  0.00  0.00    +0.001 A 
ATOM     18  C   UNL     1       4.533  -7.609  -3.904  0.00  0.00    +0.008 A 
ATOM     19  C   UNL     1       4.634  -7.203  -5.245  0.00  0.00    -0.018 A 
ATOM     20  C   UNL     1       5.188  -5.934  -5.548  0.00  0.00    -0.013 A 
ATOM     21  C   UNL     1       5.289  -5.528  -6.889  0.00  0.00    +0.009 A 
ATOM     22  C   UNL     1       4.855  -6.357  -7.878  0.00  0.00    +0.001 A 
ATOM     23  C   UNL     1       4.311  -7.605  -7.581  0.00  0.00    +0.001 A 
ATOM     24  C   UNL     1       4.197  -8.031  -6.294  0.00  0.00    +0.008 A 
ENDBRANCH   8  15
BRANCH   1  25
ATOM     25  O   UNL     1       6.029  -1.485  -1.284  0.00  0.00    -0.487 OA
BRANCH  25  26
ATOM     26  C   UNL     1       5.999  -0.750  -0.059  0.00  0.00    +0.270 C 
BRANCH  26  27
ATOM     27  C   UNL     1       4.772   0.164  -0.042  0.00  0.00    +0.270 C 
BRANCH  27  28
ATOM     28  O   UNL     1       3.586  -0.632  -0.035  0.00  0.00    -0.489 OA
BRANCH  28  32
ATOM     29  C   UNL     1      -0.017   1.378   0.010  0.00  0.00    +0.000 A 
ATOM     30  C   UNL     1       1.170   2.088   0.002  0.00  0.00    +0.004 A 
ATOM     31  C   UNL     1       2.377   1.417  -0.013  0.00  0.00    +0.045 A 
ATOM     32  C   UNL     1       2.399   0.030  -0.021  0.00  0.00    +0.121 A 
ATOM     33  C   UNL     1       1.207  -0.680  -0.013  0.00  0.00    +0.045 A 
ATOM     34  C   UNL     1       0.002  -0.004   0.002  0.00  0.00    +0.004 A 
ENDBRANCH  28  32
ENDBRANCH  27  28
ENDBRANCH  26  27
ENDBRANCH  25  26
ENDBRANCH   1  25
TORSDOF 6
