REMARK  Name = ZINC49523399
REMARK  8 active torsions:
REMARK  status: ('A' for Active; 'I' for Inactive)
REMARK    1  A    between atoms: C_1  and  C_2
REMARK    2  A    between atoms: C_2  and  C_3
REMARK    3  A    between atoms: C_2  and  C_4
REMARK    4  A    between atoms: C_13  and  N_16
REMARK    5  A    between atoms: C_17  and  C_19
REMARK    6  A    between atoms: N_21  and  C_22
REMARK    7  A    between atoms: C_22  and  C_23
REMARK    8  A    between atoms: C_29  and  C_31
REMARK                            x       y       z     vdW  Elec       q    Type
REMARK                         _______ _______ _______ _____ _____    ______ ____
ROOT
ATOM      1  C   UNL     1      -6.691  -4.343   2.930  0.00  0.00    +0.299 C 
ATOM      2  O   UNL     1      -5.759  -4.751   3.592  0.00  0.00    -0.265 OA
ATOM      3  N   UNL     1      -7.950  -4.707   3.242  0.00  0.00    -0.307 N 
ATOM      4  H   UNL     1      -8.695  -4.381   2.712  0.00  0.00    +0.149 HD
ENDROOT
BRANCH   1   6
ATOM      5  N   UNL     1      -5.181  -3.076   1.454  0.00  0.00    -0.278 N 
ATOM      6  C   UNL     1      -6.441  -3.439   1.767  0.00  0.00    +0.303 C 
ATOM      7  O   UNL     1      -7.372  -3.032   1.104  0.00  0.00    -0.265 OA
ATOM      8  H   UNL     1      -4.432  -3.457   1.939  0.00  0.00    +0.155 HD
BRANCH   5  18
ATOM      9  C   UNL     1      -1.377  -2.173  -1.690  0.00  0.00    +0.222 C 
ATOM     10  O   UNL     1      -1.493  -2.844  -0.685  0.00  0.00    -0.275 OA
ATOM     11  N   UNL     1      -2.397  -1.394  -2.100  0.00  0.00    -0.271 N 
ATOM     12  C   UNL     1      -2.296  -0.628  -3.350  0.00  0.00    +0.114 C 
ATOM     13  C   UNL     1      -2.822   0.787  -3.077  0.00  0.00    +0.024 C 
ATOM     14  C   UNL     1      -4.301   0.700  -2.701  0.00  0.00    +0.038 C 
ATOM     15  C   UNL     1      -4.506  -0.307  -1.600  0.00  0.00    -0.026 A 
ATOM     16  C   UNL     1      -3.575  -1.304  -1.345  0.00  0.00    +0.041 A 
ATOM     17  C   UNL     1      -3.797  -2.224  -0.329  0.00  0.00    +0.047 A 
ATOM     18  C   UNL     1      -4.955  -2.151   0.432  0.00  0.00    +0.036 A 
ATOM     19  C   UNL     1      -5.888  -1.154   0.174  0.00  0.00    +0.024 A 
ATOM     20  C   UNL     1      -5.658  -0.233  -0.833  0.00  0.00    +0.007 A 
BRANCH   9  22
ATOM     21  C   UNL     1       0.717  -0.946  -2.195  0.00  0.00    +0.017 C 
ATOM     22  C   UNL     1      -0.094  -2.212  -2.478  0.00  0.00    +0.069 C 
ATOM     23  C   UNL     1       0.720  -3.441  -2.067  0.00  0.00    +0.017 C 
ENDBRANCH   9  22
ENDBRANCH   5  18
ENDBRANCH   1   6
BRANCH   3  24
ATOM     24  C   UNL     1      -8.195  -5.593   4.382  0.00  0.00    +0.108 C 
BRANCH  24  25
ATOM     25  C   UNL     1      -9.698  -5.847   4.518  0.00  0.00    +0.009 C 
ATOM     26  C   UNL     1     -10.198  -6.614   3.291  0.00  0.00    +0.024 C 
ATOM     27  C   UNL     1     -11.709  -6.836   3.414  0.00  0.00    +0.108 C 
ATOM     28  N   UNL     1     -11.987  -7.499   4.695  0.00  0.00    -0.295 N 
ATOM     29  C   UNL     1     -11.473  -6.892   5.931  0.00  0.00    +0.108 C 
ATOM     30  C   UNL     1      -9.965  -6.670   5.780  0.00  0.00    +0.024 C 
ATOM     31  C   UNL     1     -12.701  -8.641   4.736  0.00  0.00    +0.282 C 
ATOM     32  O   UNL     1     -13.028  -9.192   3.702  0.00  0.00    -0.267 OA
BRANCH  31  33
ATOM     33  C   UNL     1     -13.085  -9.221   6.031  0.00  0.00    +0.191 A 
ATOM     34  C   UNL     1     -13.690 -10.426   6.199  0.00  0.00    +0.063 A 
ATOM     35  C   UNL     1     -13.879 -10.586   7.640  0.00  0.00    +0.021 A 
ATOM     36  C   UNL     1     -14.432 -11.586   8.444  0.00  0.00    +0.011 A 
ATOM     37  C   UNL     1     -14.458 -11.427   9.801  0.00  0.00    +0.001 A 
ATOM     38  C   UNL     1     -13.939 -10.279  10.384  0.00  0.00    +0.004 A 
ATOM     39  C   UNL     1     -13.390  -9.281   9.609  0.00  0.00    +0.047 A 
ATOM     40  C   UNL     1     -13.352  -9.421   8.226  0.00  0.00    +0.136 A 
ATOM     41  O   UNL     1     -12.886  -8.640   7.232  0.00  0.00    -0.450 OA
ENDBRANCH  31  33
ENDBRANCH  24  25
ENDBRANCH   3  24
TORSDOF 6
