REMARK  Name = ZINC39920712
REMARK  6 active torsions:
REMARK  status: ('A' for Active; 'I' for Inactive)
REMARK    1  A    between atoms: C_1  and  C_2
REMARK    2  A    between atoms: C_2  and  C_4
REMARK    3  A    between atoms: C_2  and  O_25
REMARK    4  A    between atoms: N_6  and  N_7
REMARK    5  A    between atoms: C_8  and  C_19
REMARK    6  A    between atoms: O_25  and  C_26
REMARK                            x       y       z     vdW  Elec       q    Type
REMARK                         _______ _______ _______ _____ _____    ______ ____
ROOT
ATOM      1  N   UNL     1      -3.544  -1.209   0.938  0.00  0.00    -0.191 N 
ATOM      2  C   UNL     1      -4.657  -0.261   0.885  0.00  0.00    +0.212 C 
ATOM      3  N   UNL     1      -5.761  -0.814   0.091  0.00  0.00    -0.320 N 
ATOM      4  C   UNL     1      -6.126  -2.140   0.296  0.00  0.00    +0.041 A 
ATOM      5  C   UNL     1      -7.424  -2.580   0.104  0.00  0.00    +0.024 A 
ATOM      6  C   UNL     1      -7.735  -3.909   0.325  0.00  0.00    +0.002 A 
ATOM      7  C   UNL     1      -6.758  -4.802   0.737  0.00  0.00    +0.001 A 
ATOM      8  C   UNL     1      -5.459  -4.379   0.932  0.00  0.00    +0.015 A 
ATOM      9  C   UNL     1      -5.132  -3.044   0.711  0.00  0.00    +0.059 A 
ATOM     10  C   UNL     1      -3.758  -2.540   0.890  0.00  0.00    +0.266 C 
ATOM     11  O   UNL     1      -2.828  -3.317   0.998  0.00  0.00    -0.268 OA
ATOM     12  H   UNL     1      -6.224  -0.267  -0.562  0.00  0.00    +0.148 HD
ENDROOT
BRANCH   2  13
ATOM     13  C   UNL     1      -5.143   0.017   2.284  0.00  0.00    -0.008 A 
ATOM     14  C   UNL     1      -4.260  -0.041   3.346  0.00  0.00    +0.007 A 
ATOM     15  C   UNL     1      -4.706   0.213   4.630  0.00  0.00    +0.000 A 
ATOM     16  C   UNL     1      -6.034   0.526   4.851  0.00  0.00    +0.000 A 
ATOM     17  C   UNL     1      -6.917   0.584   3.788  0.00  0.00    +0.000 A 
ATOM     18  C   UNL     1      -6.470   0.334   2.505  0.00  0.00    +0.007 A 
ENDBRANCH   2  13
BRANCH   1  21
ATOM     19  C   UNL     1      -1.426  -0.749  -0.046  0.00  0.00    +0.270 C 
ATOM     20  O   UNL     1      -1.835  -1.187  -1.100  0.00  0.00    -0.270 OA
ATOM     21  N   UNL     1      -2.233  -0.726   1.034  0.00  0.00    -0.227 N 
ATOM     22  H   UNL     1      -1.905  -0.376   1.877  0.00  0.00    +0.173 HD
BRANCH  19  24
ATOM     23  C   UNL     1      -0.044   1.273   0.345  0.00  0.00    +0.062 C 
ATOM     24  C   UNL     1      -0.015  -0.229   0.058  0.00  0.00    +0.257 C 
BRANCH  24  25
ATOM     25  O   UNL     1       0.671  -0.465  -1.174  0.00  0.00    -0.480 OA
BRANCH  25  26
ATOM     26  C   UNL     1       2.026  -0.553  -1.118  0.00  0.00    +0.122 A 
ATOM     27  C   UNL     1       2.690  -0.309   0.075  0.00  0.00    +0.045 A 
ATOM     28  C   UNL     1       4.067  -0.400   0.129  0.00  0.00    +0.004 A 
ATOM     29  C   UNL     1       4.784  -0.733  -1.005  0.00  0.00    +0.000 A 
ATOM     30  C   UNL     1       4.125  -0.976  -2.196  0.00  0.00    +0.004 A 
ATOM     31  C   UNL     1       2.747  -0.893  -2.253  0.00  0.00    +0.045 A 
ENDBRANCH  25  26
ENDBRANCH  24  25
ENDBRANCH  19  24
ENDBRANCH   1  21
TORSDOF 5
