REMARK  Name = ZINC09828924
REMARK  11 active torsions:
REMARK  status: ('A' for Active; 'I' for Inactive)
REMARK    1  A    between atoms: C_1  and  O_2
REMARK    2  A    between atoms: O_2  and  C_3
REMARK    3  A    between atoms: C_8  and  C_9
REMARK    4  A    between atoms: C_9  and  C_10
REMARK    5  A    between atoms: C_10  and  N_11
REMARK    6  A    between atoms: C_12  and  C_14
REMARK    7  A    between atoms: N_16  and  C_17
REMARK    8  A    between atoms: C_17  and  C_18
REMARK    9  A    between atoms: C_18  and  C_20
REMARK   10  A    between atoms: C_18  and  N_67
REMARK   11  A    between atoms: N_27  and  C_30
REMARK                            x       y       z     vdW  Elec       q    Type
REMARK                         _______ _______ _______ _____ _____    ______ ____
ROOT
ATOM      1  C   UNL     1      -2.696   3.989   0.078  0.00  0.00    +0.017 C 
ENDROOT
BRANCH   1   7
ATOM      2  C   UNL     1      -3.020   1.951   1.346  0.00  0.00    -0.059 C 
ATOM      3  C   UNL     1      -3.612   1.381   2.637  0.00  0.00    +0.086 C 
ATOM      4  N   UNL     1      -5.061   1.622   2.657  0.00  0.00    -0.331 N 
ATOM      5  C   UNL     1      -5.355   3.060   2.579  0.00  0.00    +0.086 C 
ATOM      6  C   UNL     1      -4.763   3.630   1.288  0.00  0.00    -0.059 C 
ATOM      7  N   UNL     1      -3.303   3.401   1.291  0.00  0.00    +0.389 N 
ATOM      8  H   UNL     1      -2.896   3.852   2.119  0.00  0.00    -0.081 HD
BRANCH   4   9
ATOM      9  C   UNL     1      -5.649   1.051   3.790  0.00  0.00    +0.065 A 
ATOM     10  C   UNL     1      -7.026   1.102   3.961  0.00  0.00    +0.026 A 
ATOM     11  C   UNL     1      -7.604   0.534   5.080  0.00  0.00    +0.002 A 
ATOM     12  C   UNL     1      -6.812  -0.078   6.034  0.00  0.00    +0.003 A 
ATOM     13  C   UNL     1      -5.440  -0.128   5.871  0.00  0.00    +0.040 A 
ATOM     14  C   UNL     1      -4.855   0.435   4.752  0.00  0.00    +0.144 A 
ATOM     15  F   UNL     1      -3.514   0.388   4.593  0.00  0.00    -0.204 F 
ENDBRANCH   4   9
ENDBRANCH   1   7
BRANCH   1  16
ATOM     16  C   UNL     1      -2.993   5.466   0.048  0.00  0.00    +0.093 A 
ATOM     17  C   UNL     1      -3.297   6.186  -1.047  0.00  0.00    +0.043 A 
ATOM     18  C   UNL     1      -3.501   7.518  -0.618  0.00  0.00    +0.041 A 
ATOM     19  C   UNL     1      -3.301   7.534   0.712  0.00  0.00    +0.195 A 
ATOM     20  O   UNL     1      -2.994   6.289   1.110  0.00  0.00    -0.469 OA
ENDBRANCH   1  16
BRANCH   1  21
ATOM     21  C   UNL     1      -1.182   3.774   0.125  0.00  0.00    +0.097 C 
BRANCH  21  24
ATOM     22  C   UNL     1       0.673   4.296   1.615  0.00  0.00    +0.299 C 
ATOM     23  O   UNL     1       1.434   3.880   0.766  0.00  0.00    -0.265 OA
ATOM     24  N   UNL     1      -0.656   4.284   1.393  0.00  0.00    -0.309 N 
ATOM     25  H   UNL     1      -1.264   4.613   2.074  0.00  0.00    +0.149 HD
BRANCH  22  27
ATOM     26  N   UNL     1       2.539   4.824   3.133  0.00  0.00    -0.307 N 
ATOM     27  C   UNL     1       1.210   4.817   2.909  0.00  0.00    +0.299 C 
ATOM     28  O   UNL     1       0.450   5.233   3.758  0.00  0.00    -0.265 OA
ATOM     29  H   UNL     1       3.147   4.491   2.455  0.00  0.00    +0.149 HD
BRANCH  26  30
ATOM     30  C   UNL     1       3.066   5.334   4.402  0.00  0.00    +0.109 C 
BRANCH  30  31
ATOM     31  C   UNL     1       4.592   5.230   4.399  0.00  0.00    +0.057 C 
BRANCH  31  37
ATOM     32  C   UNL     1       5.211   4.920   6.809  0.00  0.00    +0.123 A 
ATOM     33  C   UNL     1       5.711   5.406   8.009  0.00  0.00    +0.046 A 
ATOM     34  C   UNL     1       6.129   6.719   8.100  0.00  0.00    +0.004 A 
ATOM     35  C   UNL     1       6.050   7.549   6.997  0.00  0.00    +0.000 A 
ATOM     36  C   UNL     1       5.558   7.066   5.799  0.00  0.00    +0.007 A 
ATOM     37  C   UNL     1       5.133   5.755   5.704  0.00  0.00    -0.004 A 
BRANCH  32  39
ATOM     38  C   UNL     1       4.909   2.826   7.895  0.00  0.00    +0.277 C 
ATOM     39  O   UNL     1       4.800   3.628   6.717  0.00  0.00    -0.495 OA
ENDBRANCH  32  39
ENDBRANCH  31  37
ENDBRANCH  30  31
ENDBRANCH  26  30
ENDBRANCH  22  27
ENDBRANCH  21  24
ENDBRANCH   1  21
TORSDOF 10
