REMARK  Name = ZINC12684245
REMARK  8 active torsions:
REMARK  status: ('A' for Active; 'I' for Inactive)
REMARK    1  A    between atoms: C_1  and  C_2
REMARK    2  A    between atoms: C_11  and  N_29
REMARK    3  A    between atoms: C_13  and  C_15
REMARK    4  A    between atoms: C_15  and  C_16
REMARK    5  A    between atoms: C_16  and  N_17
REMARK    6  A    between atoms: N_17  and  C_18
REMARK    7  A    between atoms: C_18  and  C_20
REMARK    8  A    between atoms: C_18  and  C_21
REMARK                            x       y       z     vdW  Elec       q    Type
REMARK                         _______ _______ _______ _____ _____    ______ ____
ROOT
ATOM      1  C   UNL     1      -1.228  -0.766  -0.672  0.00  0.00    +0.008 C 
ATOM      2  C   UNL     1       0.180  -0.174  -0.772  0.00  0.00    -0.009 C 
ATOM      3  C   UNL     1       1.026  -0.647   0.413  0.00  0.00    +0.008 C 
ATOM      4  C   UNL     1       2.490  -0.268   0.190  0.00  0.00    +0.037 C 
ATOM      5  C   UNL     1       2.573   1.225  -0.119  0.00  0.00    -0.025 A 
ATOM      6  C   UNL     1       1.477   1.904  -0.528  0.00  0.00    -0.004 A 
ATOM      7  S   UNL     1       2.024   3.576  -0.765  0.00  0.00    -0.073 S 
ATOM      8  C   UNL     1       3.717   3.365  -0.319  0.00  0.00    +0.114 A 
ATOM      9  C   UNL     1       3.804   1.987   0.004  0.00  0.00    +0.051 A 
ATOM     10  C   UNL     1       5.080   1.501   0.411  0.00  0.00    +0.128 A 
ATOM     11  N   UNL     1       6.060   2.402   0.445  0.00  0.00    -0.217 NA
ATOM     12  C   UNL     1       5.904   3.673   0.131  0.00  0.00    +0.134 A 
ATOM     13  N   UNL     1       4.744   4.190  -0.257  0.00  0.00    -0.225 NA
ATOM     14  C   UNL     1       0.098   1.359  -0.736  0.00  0.00    +0.046 C 
ENDROOT
BRANCH  10  15
ATOM     15  N   UNL     1       5.288   0.176   0.749  0.00  0.00    -0.343 N 
ATOM     16  H   UNL     1       6.288  -0.162   1.059  0.00  0.00    +0.144 HD
ATOM     17  H   UNL     1       4.453  -0.539   0.708  0.00  0.00    +0.144 HD
ENDBRANCH  10  15
BRANCH  12  18
ATOM     18  C   UNL     1       7.102   4.583   0.214  0.00  0.00    +0.091 C 
BRANCH  18  19
ATOM     19  C   UNL     1       7.831   4.592  -1.130  0.00  0.00    +0.089 C 
BRANCH  19  20
ATOM     20  N   UNL     1       8.999   5.480  -1.048  0.00  0.00    -0.309 NA
ATOM     21  H   UNL     1       8.667   6.500  -0.805  0.00  0.00    +0.123 HD
BRANCH  20  22
ATOM     22  C   UNL     1       9.725   5.513  -2.325  0.00  0.00    +0.084 C 
ATOM     23  C   UNL     1       9.084   6.549  -3.250  0.00  0.00    +0.029 C 
BRANCH  22  24
ATOM     24  C   UNL     1      11.164   5.885  -2.074  0.00  0.00    +0.005 A 
ATOM     25  C   UNL     1      11.517   6.528  -0.903  0.00  0.00    +0.011 A 
ATOM     26  C   UNL     1      12.837   6.864  -0.669  0.00  0.00    +0.039 A 
ATOM     27  C   UNL     1      13.806   6.568  -1.614  0.00  0.00    +0.126 A 
ATOM     28  C   UNL     1      13.452   5.929  -2.789  0.00  0.00    +0.077 A 
ATOM     29  C   UNL     1      12.130   5.587  -3.020  0.00  0.00    +0.131 A 
ATOM     30  F   UNL     1      11.784   4.964  -4.168  0.00  0.00    -0.205 F 
ATOM     31  F   UNL     1      15.095   6.902  -1.387  0.00  0.00    -0.205 F 
ENDBRANCH  22  24
ENDBRANCH  20  22
ENDBRANCH  19  20
ENDBRANCH  18  19
ENDBRANCH  12  18
TORSDOF 6
