REMARK  Name = ZINC38710753
REMARK  11 active torsions:
REMARK  status: ('A' for Active; 'I' for Inactive)
REMARK    1  A    between atoms: C_1  and  C_2
REMARK    2  A    between atoms: C_2  and  C_3
REMARK    3  A    between atoms: C_2  and  C_4
REMARK    4  A    between atoms: C_4  and  N_5
REMARK    5  A    between atoms: C_8  and  N_19
REMARK    6  A    between atoms: C_14  and  C_17
REMARK    7  A    between atoms: C_14  and  C_18
REMARK    8  A    between atoms: N_19  and  S_20
REMARK    9  A    between atoms: S_20  and  C_23
REMARK   10  A    between atoms: C_26  and  O_29
REMARK   11  A    between atoms: O_29  and  C_30
REMARK                            x       y       z     vdW  Elec       q    Type
REMARK                         _______ _______ _______ _____ _____    ______ ____
ROOT
ATOM      1  N   UNL     1      -1.672  -1.447  -1.039  0.00  0.00    -0.267 N 
ATOM      2  C   UNL     1      -1.632  -2.297  -2.153  0.00  0.00    +0.080 A 
ATOM      3  C   UNL     1      -0.745  -2.060  -3.189  0.00  0.00    +0.051 A 
ATOM      4  C   UNL     1      -0.723  -2.910  -4.287  0.00  0.00    +0.050 A 
ATOM      5  C   UNL     1      -1.588  -3.994  -4.343  0.00  0.00    +0.028 A 
ATOM      6  C   UNL     1      -2.473  -4.232  -3.308  0.00  0.00    +0.049 A 
ATOM      7  C   UNL     1      -2.497  -3.389  -2.210  0.00  0.00    +0.142 A 
ATOM      8  O   UNL     1      -3.355  -3.623  -1.181  0.00  0.00    -0.489 OA
ATOM      9  C   UNL     1      -2.805  -4.173   0.013  0.00  0.00    +0.244 C 
ATOM     10  C   UNL     1      -1.498  -3.470   0.371  0.00  0.00    +0.076 C 
ATOM     11  C   UNL     1      -1.642  -1.980   0.203  0.00  0.00    +0.229 C 
ATOM     12  O   UNL     1      -1.736  -1.263   1.176  0.00  0.00    -0.275 OA
ATOM     13  C   UNL     1      -1.135  -3.782   1.825  0.00  0.00    +0.024 C 
ATOM     14  C   UNL     1      -0.382  -3.975  -0.546  0.00  0.00    +0.024 C 
ENDROOT
BRANCH   4  15
ATOM     15  N   UNL     1       0.172  -2.674  -5.336  0.00  0.00    -0.216 N 
ATOM     16  H   UNL     1       0.272  -1.779  -5.697  0.00  0.00    +0.174 HD
BRANCH  15  17
ATOM     17  S   UNL     1       1.063  -3.922  -5.962  0.00  0.00    +0.072 S 
ATOM     18  O   UNL     1       0.142  -4.955  -6.285  0.00  0.00    -0.150 OA
ATOM     19  O   UNL     1       1.939  -3.353  -6.925  0.00  0.00    -0.150 OA
BRANCH  17  20
ATOM     20  C   UNL     1       2.078  -4.541  -4.661  0.00  0.00    +0.109 A 
ATOM     21  C   UNL     1       3.368  -4.067  -4.507  0.00  0.00    +0.032 A 
ATOM     22  C   UNL     1       4.166  -4.551  -3.489  0.00  0.00    +0.048 A 
ATOM     23  C   UNL     1       3.672  -5.512  -2.619  0.00  0.00    +0.130 A 
ATOM     24  C   UNL     1       2.377  -5.986  -2.775  0.00  0.00    +0.048 A 
ATOM     25  C   UNL     1       1.581  -5.495  -3.792  0.00  0.00    +0.032 A 
BRANCH  23  26
ATOM     26  O   UNL     1       4.455  -5.990  -1.617  0.00  0.00    -0.406 OA
BRANCH  26  27
ATOM     27  C   UNL     1       3.881  -6.979  -0.760  0.00  0.00    +0.575 C 
ATOM     28  F   UNL     1       3.516  -8.097  -1.517  0.00  0.00    -0.133 F 
ATOM     29  F   UNL     1       4.817  -7.357   0.209  0.00  0.00    -0.133 F 
ATOM     30  F   UNL     1       2.748  -6.450  -0.132  0.00  0.00    -0.133 F 
ENDBRANCH  26  27
ENDBRANCH  23  26
ENDBRANCH  17  20
ENDBRANCH  15  17
ENDBRANCH   4  15
BRANCH   1  31
ATOM     31  C   UNL     1      -1.738   0.005  -1.219  0.00  0.00    +0.116 C 
BRANCH  31  33
ATOM     32  C   UNL     1      -0.388   2.073  -1.600  0.00  0.00    +0.009 C 
ATOM     33  C   UNL     1      -0.321   0.576  -1.288  0.00  0.00    +0.001 C 
ATOM     34  C   UNL     1       0.379   0.367   0.056  0.00  0.00    +0.009 C 
ENDBRANCH  31  33
ENDBRANCH   1  31
TORSDOF 7
