REMARK  Name = ZINC04288507
REMARK  3 active torsions:
REMARK  status: ('A' for Active; 'I' for Inactive)
REMARK    1  A    between atoms: C_2  and  C_9
REMARK    2  A    between atoms: N_11  and  S_12
REMARK    3  A    between atoms: S_12  and  C_15
REMARK                            x       y       z     vdW  Elec       q    Type
REMARK                         _______ _______ _______ _____ _____    ______ ____
ROOT
ATOM      1  C   UNL     1       1.994   4.338   0.130  0.00  0.00    +0.117 C 
ATOM      2  H   UNL     1       3.991   4.614  -0.143  0.00  0.00    +0.157 HD
ATOM      3  N   UNL     1       1.643   5.668   0.206  0.00  0.00    -0.201 N 
ATOM      4  H   UNL     1       0.724   5.917   0.388  0.00  0.00    +0.175 HD
ATOM      5  N   UNL     1       3.245   3.931  -0.012  0.00  0.00    -0.385 N 
ATOM      6  H   UNL     1       3.464   2.929   0.010  0.00  0.00    +0.157 HD
ENDROOT
BRANCH   1   8
ATOM      7  C   UNL     1       1.284   1.935   0.138  0.00  0.00    +0.051 A 
ATOM      8  C   UNL     1       0.949   3.289   0.213  0.00  0.00    +0.019 A 
ATOM      9  C   UNL     1      -0.398   3.629   0.369  0.00  0.00    +0.051 A 
ATOM     10  C   UNL     1      -1.340   2.620   0.443  0.00  0.00    +0.132 A 
ATOM     11  N   UNL     1      -0.982   1.353   0.363  0.00  0.00    -0.224 NA
ATOM     12  C   UNL     1       0.279   0.990   0.221  0.00  0.00    +0.132 A 
ATOM     13 CL   UNL     1       0.679  -0.697   0.129  0.00  0.00    -0.062 Cl
ATOM     14 CL   UNL     1      -3.016   3.027   0.637  0.00  0.00    -0.062 Cl
ENDBRANCH   1   8
BRANCH   3  15
ATOM     15  S   UNL     1       2.791   6.841  -0.015  0.00  0.00    +0.075 S 
ATOM     16  O   UNL     1       3.488   6.508  -1.208  0.00  0.00    -0.150 OA
ATOM     17  O   UNL     1       2.135   8.089   0.161  0.00  0.00    -0.150 OA
BRANCH  15  18
ATOM     18  C   UNL     1       3.949   6.691   1.304  0.00  0.00    +0.128 A 
ATOM     19  C   UNL     1       5.261   6.349   1.036  0.00  0.00    +0.051 A 
ATOM     20  C   UNL     1       6.172   6.236   2.070  0.00  0.00    +0.061 A 
ATOM     21  C   UNL     1       5.767   6.456   3.376  0.00  0.00    +0.061 A 
ATOM     22  C   UNL     1       4.453   6.793   3.645  0.00  0.00    +0.043 A 
ATOM     23  C   UNL     1       3.544   6.911   2.608  0.00  0.00    +0.069 A 
ATOM     24 CL   UNL     1       1.895   7.335   2.945  0.00  0.00    -0.081 Cl
ATOM     25 CL   UNL     1       6.909   6.308   4.676  0.00  0.00    -0.082 Cl
ATOM     26 CL   UNL     1       7.822   5.812   1.732  0.00  0.00    -0.082 Cl
ENDBRANCH  15  18
ENDBRANCH   3  15
TORSDOF 3
