REMARK  Name = ZINC36636658
REMARK  13 active torsions:
REMARK  status: ('A' for Active; 'I' for Inactive)
REMARK    1  A    between atoms: C_1  and  C_2
REMARK    2  A    between atoms: C_5  and  C_9
REMARK    3  A    between atoms: C_7  and  C_8
REMARK    4  A    between atoms: C_9  and  C_11
REMARK    5  A    between atoms: C_9  and  N_12
REMARK    6  A    between atoms: C_13  and  C_15
REMARK    7  A    between atoms: C_15  and  S_16
REMARK    8  A    between atoms: S_16  and  C_17
REMARK    9  A    between atoms: C_21  and  C_25
REMARK   10  A    between atoms: C_22  and  C_24
REMARK   11  A    between atoms: N_28  and  C_29
REMARK   12  A    between atoms: C_29  and  C_30
REMARK   13  A    between atoms: C_29  and  C_31
REMARK                            x       y       z     vdW  Elec       q    Type
REMARK                         _______ _______ _______ _____ _____    ______ ____
ROOT
ATOM      1  S   UNL     1       3.494  -7.968  -1.247  0.00  0.00    -0.078 S 
ENDROOT
BRANCH   1   2
ATOM      2  C   UNL     1       4.341  -8.359  -2.742  0.00  0.00    +0.173 A 
ATOM      3  N   UNL     1       4.552  -7.415  -3.636  0.00  0.00    -0.216 NA
ATOM      4  C   UNL     1       5.187  -7.680  -4.771  0.00  0.00    +0.117 A 
ATOM      5  C   UNL     1       5.664  -8.969  -5.076  0.00  0.00    +0.075 A 
ATOM      6  C   UNL     1       6.337  -9.085  -6.359  0.00  0.00    -0.026 A 
ATOM      7  C   UNL     1       6.454  -7.999  -7.138  0.00  0.00    -0.008 A 
ATOM      8  S   UNL     1       5.656  -6.719  -6.187  0.00  0.00    -0.073 S 
ATOM      9  C   UNL     1       7.106  -7.888  -8.492  0.00  0.00    +0.052 C 
ATOM     10  C   UNL     1       6.896 -10.410  -6.809  0.00  0.00    +0.045 C 
ATOM     11  C   UNL     1       5.420  -9.973  -4.088  0.00  0.00    +0.263 A 
ATOM     12  O   UNL     1       5.797 -11.119  -4.265  0.00  0.00    -0.267 OA
ATOM     13  N   UNL     1       4.776  -9.635  -2.955  0.00  0.00    -0.285 N 
BRANCH  13  14
ATOM     14  C   UNL     1       4.529 -10.659  -1.936  0.00  0.00    +0.087 C 
ATOM     15  C   UNL     1       3.708 -11.797  -2.545  0.00  0.00    +0.031 C 
ATOM     16  C   UNL     1       5.865 -11.207  -1.430  0.00  0.00    +0.031 C 
ENDBRANCH  13  14
ENDBRANCH   1   2
BRANCH   1  17
ATOM     17  C   UNL     1       3.120  -6.200  -1.405  0.00  0.00    +0.173 C 
BRANCH  17  19
ATOM     18  N   UNL     1       2.002  -4.443  -0.070  0.00  0.00    -0.308 N 
ATOM     19  C   UNL     1       2.385  -5.731  -0.175  0.00  0.00    +0.224 C 
ATOM     20  O   UNL     1       2.139  -6.512   0.719  0.00  0.00    -0.275 OA
ATOM     21  H   UNL     1       2.199  -3.818  -0.785  0.00  0.00    +0.149 HD
BRANCH  18  22
ATOM     22  C   UNL     1       1.288  -3.987   1.125  0.00  0.00    +0.100 C 
ATOM     23  C   UNL     1      -0.208  -4.266   0.963  0.00  0.00    +0.033 C 
BRANCH  22  28
ATOM     24  C   UNL     1       2.122   1.689   1.821  0.00  0.00    +0.044 C 
ATOM     25  C   UNL     1       1.905   0.209   1.640  0.00  0.00    -0.048 A 
ATOM     26  C   UNL     1       1.704  -0.311   0.374  0.00  0.00    +0.004 A 
ATOM     27  C   UNL     1       1.504  -1.668   0.208  0.00  0.00    +0.006 A 
ATOM     28  C   UNL     1       1.506  -2.507   1.307  0.00  0.00    -0.027 A 
ATOM     29  C   UNL     1       1.708  -1.988   2.572  0.00  0.00    +0.009 A 
ATOM     30  C   UNL     1       1.912  -0.631   2.738  0.00  0.00    -0.047 A 
ATOM     31  C   UNL     1       2.137  -0.066   4.117  0.00  0.00    +0.044 C 
ENDBRANCH  22  28
ENDBRANCH  18  22
ENDBRANCH  17  19
ENDBRANCH   1  17
TORSDOF 6
