REMARK  Name = ZINC08299065
REMARK  12 active torsions:
REMARK  status: ('A' for Active; 'I' for Inactive)
REMARK    1  A    between atoms: C_1  and  C_2
REMARK    2  A    between atoms: N_4  and  C_5
REMARK    3  A    between atoms: C_5  and  C_6
REMARK    4  A    between atoms: C_6  and  N_7
REMARK    5  A    between atoms: C_8  and  C_10
REMARK    6  A    between atoms: C_18  and  C_20
REMARK    7  A    between atoms: C_20  and  N_21
REMARK    8  A    between atoms: C_23  and  C_26
REMARK    9  A    between atoms: C_29  and  C_32
REMARK   10  A    between atoms: C_32  and  C_33
REMARK   11  A    between atoms: C_32  and  C_34
REMARK   12  A    between atoms: C_32  and  C_35
REMARK                            x       y       z     vdW  Elec       q    Type
REMARK                         _______ _______ _______ _____ _____    ______ ____
ROOT
ATOM      1  C   UNL     1      -8.223  -0.413  -3.561  0.00  0.00    +0.061 C 
ATOM      2  C   UNL     1      -6.691  -0.380  -3.569  0.00  0.00    -0.065 C 
ATOM      3  C   UNL     1      -6.678   1.776  -2.466  0.00  0.00    -0.078 C 
ATOM      4  C   UNL     1      -8.209   1.805  -2.426  0.00  0.00    -0.015 C 
ATOM      5  C   UNL     1      -8.729   0.364  -2.339  0.00  0.00    -0.004 C 
ATOM      6  C   UNL     1      -8.157  -0.287  -1.073  0.00  0.00    -0.010 C 
ATOM      7  C   UNL     1      -6.628  -0.257  -1.151  0.00  0.00    -0.046 C 
ATOM      8  N   UNL     1      -6.186   0.383  -2.408  0.00  0.00    +0.383 N 
ATOM      9  H   UNL     1      -5.159   0.391  -2.436  0.00  0.00    -0.081 HD
ENDROOT
BRANCH   1  11
ATOM     10  N   UNL     1      -8.430  -0.292  -6.022  0.00  0.00    -0.314 N 
ATOM     11  C   UNL     1      -8.749   0.226  -4.820  0.00  0.00    +0.215 C 
ATOM     12  O   UNL     1      -9.459   1.207  -4.751  0.00  0.00    -0.276 OA
ATOM     13  H   UNL     1      -7.863  -1.077  -6.078  0.00  0.00    +0.149 HD
BRANCH  10  14
ATOM     14  C   UNL     1      -8.942   0.330  -7.247  0.00  0.00    +0.123 C 
BRANCH  14  15
ATOM     15  C   UNL     1      -8.436  -0.448  -8.463  0.00  0.00    +0.123 C 
BRANCH  15  19
ATOM     16  C   UNL     1      -9.155   0.296 -12.149  0.00  0.00    +0.109 C 
ATOM     17  C   UNL     1      -8.629  -0.344 -10.890  0.00  0.00    +0.210 C 
ATOM     18  O   UNL     1      -7.919  -1.325 -10.959  0.00  0.00    -0.276 OA
ATOM     19  N   UNL     1      -8.947   0.174  -9.687  0.00  0.00    -0.314 N 
ATOM     20  H   UNL     1      -9.515   0.959  -9.632  0.00  0.00    +0.149 HD
ENDBRANCH  15  19
ENDBRANCH  14  15
ENDBRANCH  10  14
ENDBRANCH   1  11
BRANCH   7  21
ATOM     21  C   UNL     1      -6.072   0.537   0.033  0.00  0.00    +0.130 C 
BRANCH  21  22
ATOM     22  N   UNL     1      -4.609   0.466   0.026  0.00  0.00    -0.253 N 
ATOM     23  C   UNL     1      -3.766   1.524   0.028  0.00  0.00    +0.138 A 
ATOM     24  C   UNL     1      -2.505   1.002   0.019  0.00  0.00    +0.113 A 
ATOM     25  N   UNL     1      -2.653  -0.335   0.007  0.00  0.00    -0.130 NA
ATOM     26  N   UNL     1      -3.909  -0.613   0.016  0.00  0.00    -0.065 NA
BRANCH  24  27
ATOM     27  C   UNL     1      -1.228   1.757   0.017  0.00  0.00    +0.004 A 
ATOM     28  C   UNL     1      -0.013   1.076   0.008  0.00  0.00    +0.010 A 
ATOM     29  C   UNL     1       1.173   1.783   0.000  0.00  0.00    +0.005 A 
ATOM     30  C   UNL     1       1.155   3.166   0.009  0.00  0.00    -0.042 A 
ATOM     31  C   UNL     1      -0.048   3.848   0.024  0.00  0.00    +0.005 A 
ATOM     32  C   UNL     1      -1.239   3.150   0.031  0.00  0.00    +0.010 A 
BRANCH  30  33
ATOM     33  C   UNL     1       2.452   3.934   0.001  0.00  0.00    -0.013 C 
ATOM     34  C   UNL     1       3.247   3.580  -1.258  0.00  0.00    +0.015 C 
ATOM     35  C   UNL     1       2.157   5.435   0.012  0.00  0.00    +0.015 C 
ATOM     36  C   UNL     1       3.270   3.565   1.240  0.00  0.00    +0.015 C 
ENDBRANCH  30  33
ENDBRANCH  24  27
ENDBRANCH  21  22
ENDBRANCH   7  21
TORSDOF 8
