REMARK  Name = ZINC14329254
REMARK  6 active torsions:
REMARK  status: ('A' for Active; 'I' for Inactive)
REMARK    1  A    between atoms: C_1  and  C_2
REMARK    2  A    between atoms: C_2  and  C_4
REMARK    3  A    between atoms: C_2  and  N_19
REMARK    4  A    between atoms: N_6  and  C_7
REMARK    5  A    between atoms: C_22  and  C_25
REMARK    6  A    between atoms: C_25  and  C_27
REMARK                            x       y       z     vdW  Elec       q    Type
REMARK                         _______ _______ _______ _____ _____    ______ ____
ROOT
ATOM      1  N   UNL     1       0.909  -1.210   0.394  0.00  0.00    +0.387 N 
ATOM      2  C   UNL     1       0.872  -2.325  -0.560  0.00  0.00    -0.077 C 
ATOM      3  C   UNL     1       1.758  -3.465  -0.054  0.00  0.00    -0.007 C 
ATOM      4  C   UNL     1       3.197  -2.961   0.088  0.00  0.00    +0.057 C 
ATOM      5  C   UNL     1       3.213  -1.752   1.028  0.00  0.00    -0.007 C 
ATOM      6  C   UNL     1       2.273  -0.675   0.481  0.00  0.00    -0.077 C 
ATOM      7  H   UNL     1       0.619  -1.538   1.302  0.00  0.00    -0.081 HD
ENDROOT
BRANCH   1   9
ATOM      8  C   UNL     1       0.096   1.045   0.891  0.00  0.00    -0.004 C 
ATOM      9  C   UNL     1      -0.003  -0.151  -0.058  0.00  0.00    +0.016 C 
BRANCH   9  10
ATOM     10  C   UNL     1      -1.417  -0.673  -0.062  0.00  0.00    +0.203 C 
ATOM     11  O   UNL     1      -1.742  -1.550   0.711  0.00  0.00    -0.277 OA
ATOM     12  N   UNL     1      -2.320  -0.166  -0.925  0.00  0.00    -0.287 N 
ATOM     13  H   UNL     1      -2.044   0.485  -1.589  0.00  0.00    +0.155 HD
BRANCH  12  14
ATOM     14  C   UNL     1      -3.656  -0.580  -0.862  0.00  0.00    +0.035 A 
ATOM     15  C   UNL     1      -4.414  -0.656  -2.026  0.00  0.00    +0.025 A 
ATOM     16  C   UNL     1      -5.732  -1.063  -1.971  0.00  0.00    +0.029 A 
ATOM     17  C   UNL     1      -6.303  -1.396  -0.752  0.00  0.00    +0.067 A 
ATOM     18  C   UNL     1      -5.545  -1.320   0.418  0.00  0.00    +0.069 A 
ATOM     19  C   UNL     1      -4.221  -0.917   0.359  0.00  0.00    +0.051 A 
ATOM     20  N   UNL     1      -6.379  -1.710   1.464  0.00  0.00    -0.306 N 
ATOM     21  H   UNL     1      -6.130  -1.758   2.400  0.00  0.00    +0.170 HD
ATOM     22  C   UNL     1      -7.588  -2.010   0.954  0.00  0.00    +0.325 A 
ATOM     23  O   UNL     1      -8.547  -2.386   1.601  0.00  0.00    -0.247 OA
ATOM     24  N   UNL     1      -7.575  -1.831  -0.380  0.00  0.00    -0.306 N 
ATOM     25  H   UNL     1      -8.323  -1.979  -0.980  0.00  0.00    +0.170 HD
ENDBRANCH  12  14
ENDBRANCH   9  10
ENDBRANCH   1   9
BRANCH   4  26
ATOM     26  C   UNL     1       4.060  -4.056   0.661  0.00  0.00    +0.166 C 
ATOM     27  O   UNL     1       3.561  -4.931   1.337  0.00  0.00    -0.292 OA
BRANCH  26  28
ATOM     28  C   UNL     1       5.505  -4.063   0.402  0.00  0.00    +0.021 A 
ATOM     29  C   UNL     1       6.085  -3.051  -0.373  0.00  0.00    +0.015 A 
ATOM     30  C   UNL     1       7.440  -3.062  -0.615  0.00  0.00    +0.050 A 
ATOM     31  C   UNL     1       8.238  -4.075  -0.093  0.00  0.00    +0.162 A 
ATOM     32  C   UNL     1       7.668  -5.084   0.681  0.00  0.00    +0.163 A 
ATOM     33  C   UNL     1       6.309  -5.078   0.932  0.00  0.00    +0.060 A 
ATOM     34  O   UNL     1       8.438  -6.078   1.205  0.00  0.00    -0.485 OA
ATOM     35  C   UNL     1       9.737  -6.256   0.631  0.00  0.00    +0.270 C 
ATOM     36  C   UNL     1      10.396  -4.877   0.496  0.00  0.00    +0.270 C 
ATOM     37  O   UNL     1       9.572  -4.066  -0.349  0.00  0.00    -0.485 OA
ENDBRANCH  26  28
ENDBRANCH   4  26
TORSDOF 5
