REMARK  Name = ZINC43679913
REMARK  7 active torsions:
REMARK  status: ('A' for Active; 'I' for Inactive)
REMARK    1  A    between atoms: C_1  and  C_2
REMARK    2  A    between atoms: C_2  and  N_3
REMARK    3  A    between atoms: C_4  and  C_6
REMARK    4  A    between atoms: C_10  and  N_12
REMARK    5  A    between atoms: N_15  and  C_16
REMARK    6  A    between atoms: C_16  and  C_18
REMARK    7  A    between atoms: C_16  and  C_19
REMARK                            x       y       z     vdW  Elec       q    Type
REMARK                         _______ _______ _______ _____ _____    ______ ____
ROOT
ATOM      1  N   UNL     1       2.452  -5.454  -4.260  0.00  0.00    -0.269 N 
ATOM      2  C   UNL     1       2.993  -5.883  -5.417  0.00  0.00    +0.304 C 
ATOM      3  O   UNL     1       3.439  -5.080  -6.213  0.00  0.00    -0.252 OA
ATOM      4  N   UNL     1       3.038  -7.201  -5.692  0.00  0.00    -0.290 N 
ATOM      5  H   UNL     1       2.165  -6.096  -3.591  0.00  0.00    +0.156 HD
ATOM      6  H   UNL     1       2.682  -7.842  -5.057  0.00  0.00    +0.151 HD
ENDROOT
BRANCH   1  11
ATOM      7  C   UNL     1       1.888  -1.856  -4.833  0.00  0.00    +0.038 A 
ATOM      8  C   UNL     1       2.011  -1.365  -3.532  0.00  0.00    +0.013 A 
ATOM      9  C   UNL     1       2.277  -2.230  -2.491  0.00  0.00    +0.003 A 
ATOM     10  C   UNL     1       2.423  -3.584  -2.731  0.00  0.00    +0.023 A 
ATOM     11  C   UNL     1       2.303  -4.083  -4.022  0.00  0.00    +0.035 A 
ATOM     12  C   UNL     1       2.029  -3.223  -5.074  0.00  0.00    +0.036 A 
BRANCH   7  14
ATOM     13  N   UNL     1       1.466   0.389  -5.716  0.00  0.00    -0.312 N 
ATOM     14  C   UNL     1       1.603  -0.931  -5.951  0.00  0.00    +0.244 C 
ATOM     15  O   UNL     1       1.491  -1.362  -7.082  0.00  0.00    -0.270 OA
ATOM     16  H   UNL     1       1.556   0.732  -4.813  0.00  0.00    +0.149 HD
BRANCH  13  18
ATOM     17  C   UNL     1       1.078   2.734  -6.288  0.00  0.00    +0.024 C 
ATOM     18  C   UNL     1       1.184   1.305  -6.823  0.00  0.00    +0.101 C 
ENDBRANCH  13  18
ENDBRANCH   7  14
ENDBRANCH   1  11
BRANCH   4  19
ATOM     19  C   UNL     1       3.626  -7.667  -6.951  0.00  0.00    +0.137 C 
ATOM     20  C   UNL     1       2.568  -7.623  -8.055  0.00  0.00    +0.036 C 
BRANCH  19  21
ATOM     21  C   UNL     1       4.117  -9.082  -6.782  0.00  0.00    +0.126 A 
ATOM     22  C   UNL     1       5.262  -9.562  -7.287  0.00  0.00    +0.055 A 
ATOM     23  C   UNL     1       5.331 -10.970  -6.878  0.00  0.00    +0.020 A 
ATOM     24  C   UNL     1       6.250 -11.999  -7.078  0.00  0.00    +0.011 A 
ATOM     25  C   UNL     1       6.009 -13.235  -6.546  0.00  0.00    +0.001 A 
ATOM     26  C   UNL     1       4.858 -13.471  -5.809  0.00  0.00    +0.004 A 
ATOM     27  C   UNL     1       3.938 -12.465  -5.600  0.00  0.00    +0.047 A 
ATOM     28  C   UNL     1       4.163 -11.201  -6.132  0.00  0.00    +0.135 A 
ATOM     29  O   UNL     1       3.474 -10.044  -6.098  0.00  0.00    -0.458 OA
ENDBRANCH  19  21
ENDBRANCH   4  19
TORSDOF 5
