REMARK  Name = ZINC35034622
REMARK  7 active torsions:
REMARK  status: ('A' for Active; 'I' for Inactive)
REMARK    1  A    between atoms: C_1  and  C_2
REMARK    2  A    between atoms: C_2  and  N_3
REMARK    3  A    between atoms: C_13  and  C_14
REMARK    4  A    between atoms: C_14  and  C_16
REMARK    5  A    between atoms: C_14  and  N_17
REMARK    6  A    between atoms: C_21  and  C_24
REMARK    7  A    between atoms: C_25  and  C_27
REMARK                            x       y       z     vdW  Elec       q    Type
REMARK                         _______ _______ _______ _____ _____    ______ ____
ROOT
ATOM      1  N   UNL     1       3.956  -1.250   0.549  0.00  0.00    +0.388 N 
ATOM      2  C   UNL     1       4.252  -2.592   0.032  0.00  0.00    -0.059 C 
ATOM      3  C   UNL     1       5.452  -2.520  -0.918  0.00  0.00    +0.090 C 
ATOM      4  N   UNL     1       6.572  -1.884  -0.206  0.00  0.00    -0.298 N 
ATOM      5  C   UNL     1       6.320  -0.609   0.483  0.00  0.00    +0.057 C 
ATOM      6  C   UNL     1       5.078  -0.772   1.366  0.00  0.00    -0.055 C 
ATOM      7  C   UNL     1       7.528  -0.245   1.349  0.00  0.00    +0.026 C 
ATOM      8  C   UNL     1       7.793  -2.453  -0.186  0.00  0.00    +0.247 C 
ATOM      9  O   UNL     1       8.678  -1.969   0.492  0.00  0.00    -0.270 OA
ATOM     10  H   UNL     1       3.812  -0.619  -0.225  0.00  0.00    -0.081 HD
ENDROOT
BRANCH   8  11
ATOM     11  C   UNL     1       8.057  -3.665  -0.989  0.00  0.00    +0.038 A 
ATOM     12  C   UNL     1       7.323  -3.909  -2.152  0.00  0.00    +0.014 A 
ATOM     13  C   UNL     1       7.573  -5.042  -2.898  0.00  0.00    +0.022 A 
ATOM     14  C   UNL     1       8.549  -5.938  -2.495  0.00  0.00    +0.059 A 
ATOM     15  C   UNL     1       9.281  -5.702  -1.342  0.00  0.00    +0.060 A 
ATOM     16  C   UNL     1       9.044  -4.568  -0.592  0.00  0.00    +0.034 A 
ATOM     17 CL   UNL     1      10.504  -6.830  -0.846  0.00  0.00    -0.082 Cl
ATOM     18 CL   UNL     1       8.857  -7.362  -3.439  0.00  0.00    -0.082 Cl
ENDBRANCH   8  11
BRANCH   1  19
ATOM     19  C   UNL     1       2.740  -1.301   1.371  0.00  0.00    -0.004 C 
ATOM     20  C   UNL     1       2.367   0.114   1.818  0.00  0.00    -0.005 C 
BRANCH  19  31
ATOM     21  N   UNL     1       1.105  -3.089   0.939  0.00  0.00    -0.298 N 
ATOM     22  C   UNL     1       0.087  -3.655   0.250  0.00  0.00    +0.262 A 
ATOM     23  O   UNL     1      -0.380  -4.730   0.579  0.00  0.00    -0.267 OA
ATOM     24  C   UNL     1      -0.434  -2.920  -0.913  0.00  0.00    +0.066 A 
ATOM     25  C   UNL     1      -1.480  -3.415  -1.689  0.00  0.00    +0.035 A 
ATOM     26  C   UNL     1      -1.929  -2.684  -2.769  0.00  0.00    +0.042 A 
ATOM     27  C   UNL     1      -1.347  -1.462  -3.086  0.00  0.00    +0.022 A 
ATOM     28  C   UNL     1      -0.313  -0.957  -2.331  0.00  0.00    +0.030 A 
ATOM     29  C   UNL     1       0.159  -1.679  -1.233  0.00  0.00    +0.078 A 
ATOM     30  N   UNL     1       1.176  -1.218  -0.462  0.00  0.00    -0.235 NA
ATOM     31  C   UNL     1       1.611  -1.886   0.562  0.00  0.00    +0.099 A 
ATOM     32 CL   UNL     1      -3.231  -3.295  -3.740  0.00  0.00    -0.084 Cl
BRANCH  21  34
ATOM     33  C   UNL     1       1.000  -3.241   3.378  0.00  0.00    +0.027 C 
ATOM     34  C   UNL     1       1.661  -3.778   2.107  0.00  0.00    +0.123 C 
ENDBRANCH  21  34
ENDBRANCH  19  31
ENDBRANCH   1  19
TORSDOF 4
