REMARK  Name = ZINC38660046
REMARK  14 active torsions:
REMARK  status: ('A' for Active; 'I' for Inactive)
REMARK    1  A    between atoms: C_1  and  C_2
REMARK    2  A    between atoms: C_2  and  C_3
REMARK    3  A    between atoms: C_3  and  C_4
REMARK    4  A    between atoms: C_4  and  O_5
REMARK    5  A    between atoms: O_5  and  C_6
REMARK    6  A    between atoms: C_9  and  C_14
REMARK    7  A    between atoms: C_11  and  O_12
REMARK    8  A    between atoms: O_12  and  C_13
REMARK    9  A    between atoms: C_19  and  O_28
REMARK   10  A    between atoms: C_23  and  N_27
REMARK   11  A    between atoms: C_24  and  C_25
REMARK   12  A    between atoms: O_28  and  C_29
REMARK   13  A    between atoms: C_29  and  C_31
REMARK   14  A    between atoms: C_34  and  C_37
REMARK                            x       y       z     vdW  Elec       q    Type
REMARK                         _______ _______ _______ _____ _____    ______ ____
ROOT
ATOM      1  C   UNL     1       1.827  -8.023  -3.156  0.00  0.00    +0.098 C 
ATOM      2  C   UNL     1       0.454  -8.639  -3.209  0.00  0.00    +0.008 A 
ATOM      3  C   UNL     1      -0.335  -8.447  -4.330  0.00  0.00    +0.012 A 
ATOM      4  C   UNL     1      -1.597  -9.004  -4.397  0.00  0.00    +0.047 A 
ATOM      5  C   UNL     1      -2.079  -9.759  -3.337  0.00  0.00    +0.135 A 
ATOM      6  C   UNL     1      -1.292  -9.953  -2.213  0.00  0.00    +0.093 A 
ATOM      7  C   UNL     1      -0.023  -9.392  -2.148  0.00  0.00    +0.138 A 
ATOM      8  O   UNL     1       0.735  -9.591  -1.041  0.00  0.00    -0.441 OA
ATOM      9  C   UNL     1       2.065  -9.406  -1.097  0.00  0.00    +0.199 C 
ATOM     10  C   UNL     1       2.642  -8.673  -2.074  0.00  0.00    +0.098 C 
ENDROOT
BRANCH   1  14
ATOM     11  C   UNL     1       1.471  -3.841  -2.338  0.00  0.00    +0.162 A 
ATOM     12  C   UNL     1       0.986  -4.770  -1.433  0.00  0.00    +0.050 A 
ATOM     13  C   UNL     1       1.102  -6.122  -1.700  0.00  0.00    +0.008 A 
ATOM     14  C   UNL     1       1.702  -6.549  -2.870  0.00  0.00    -0.031 A 
ATOM     15  C   UNL     1       2.189  -5.627  -3.777  0.00  0.00    +0.054 A 
ATOM     16  C   UNL     1       2.071  -4.271  -3.518  0.00  0.00    +0.162 A 
BRANCH  16  17
ATOM     17  O   UNL     1       2.544  -3.362  -4.413  0.00  0.00    -0.491 OA
ATOM     18  C   UNL     1       3.146  -3.876  -5.602  0.00  0.00    +0.277 C 
ENDBRANCH  16  17
BRANCH  11  19
ATOM     19  O   UNL     1       1.357  -2.511  -2.077  0.00  0.00    -0.488 OA
BRANCH  19  20
ATOM     20  C   UNL     1       0.731  -2.143  -0.846  0.00  0.00    +0.229 C 
BRANCH  20  21
ATOM     21  C   UNL     1       0.694  -0.618  -0.729  0.00  0.00    +0.041 C 
BRANCH  21  23
ATOM     22  C   UNL     1      -0.013   1.301   0.706  0.00  0.00    +0.004 C 
ATOM     23  C   UNL     1       0.024  -0.224   0.589  0.00  0.00    -0.000 C 
ENDBRANCH  21  23
ENDBRANCH  20  21
ENDBRANCH  19  20
ENDBRANCH  11  19
ENDBRANCH   1  14
BRANCH   9  24
ATOM     24  N   UNL     1       2.858  -9.979  -0.134  0.00  0.00    -0.328 N 
ATOM     25  H   UNL     1       2.457 -10.507   0.574  0.00  0.00    +0.145 HD
ATOM     26  H   UNL     1       3.819  -9.855  -0.161  0.00  0.00    +0.145 HD
ENDBRANCH   9  24
BRANCH  10  27
ATOM     27  C   UNL     1       4.065  -8.514  -2.077  0.00  0.00    +0.101 C 
ATOM     28  N   UNL     1       5.194  -8.388  -2.079  0.00  0.00    -0.191 NA
ENDBRANCH  10  27
BRANCH   5  29
ATOM     29  O   UNL     1      -3.321 -10.307  -3.401  0.00  0.00    -0.422 OA
BRANCH  29  30
ATOM     30  C   UNL     1      -3.523 -11.314  -4.272  0.00  0.00    +0.344 C 
ATOM     31  O   UNL     1      -2.588 -11.776  -4.895  0.00  0.00    -0.245 OA
BRANCH  30  32
ATOM     32  C   UNL     1      -4.883 -11.857  -4.470  0.00  0.00    +0.059 A 
ATOM     33  C   UNL     1      -5.961 -11.325  -3.760  0.00  0.00    +0.015 A 
ATOM     34  C   UNL     1      -7.228 -11.837  -3.950  0.00  0.00    +0.004 A 
ATOM     35  C   UNL     1      -7.431 -12.874  -4.842  0.00  0.00    -0.050 A 
ATOM     36  C   UNL     1      -6.368 -13.406  -5.550  0.00  0.00    +0.004 A 
ATOM     37  C   UNL     1      -5.096 -12.901  -5.373  0.00  0.00    +0.015 A 
ATOM     38  C   UNL     1      -8.818 -13.428  -5.044  0.00  0.00    +0.044 C 
ENDBRANCH  30  32
ENDBRANCH  29  30
ENDBRANCH   5  29
TORSDOF 11
