REMARK  Name = ZINC66647038
REMARK  4 active torsions:
REMARK  status: ('A' for Active; 'I' for Inactive)
REMARK    1  A    between atoms: C_1  and  C_2
REMARK    2  A    between atoms: C_7  and  C_8
REMARK    3  A    between atoms: C_10  and  C_13
REMARK    4  A    between atoms: N_15  and  C_16
REMARK                            x       y       z     vdW  Elec       q    Type
REMARK                         _______ _______ _______ _____ _____    ______ ____
ROOT
ATOM      1  C   UNL     1      -0.121  -0.125   2.565  0.00  0.00    +0.109 A 
ATOM      2  N   UNL     1      -0.006  -0.661   3.766  0.00  0.00    -0.234 NA
ATOM      3  C   UNL     1      -0.108   0.131   4.824  0.00  0.00    +0.133 A 
ATOM      4  C   UNL     1      -0.328   1.470   4.635  0.00  0.00    +0.080 A 
ATOM      5  S   UNL     1      -0.381   1.596   2.957  0.00  0.00    -0.075 S 
ENDROOT
BRANCH   1  12
ATOM      6  C   UNL     1       2.016  -1.993   2.008  0.00  0.00    +0.044 C 
ATOM      7  C   UNL     1       0.978  -1.682   0.961  0.00  0.00    -0.041 A 
ATOM      8  C   UNL     1       1.038  -2.293  -0.275  0.00  0.00    +0.004 A 
ATOM      9  C   UNL     1       0.086  -2.008  -1.238  0.00  0.00    +0.000 A 
ATOM     10  C   UNL     1      -0.931  -1.109  -0.969  0.00  0.00    +0.001 A 
ATOM     11  C   UNL     1      -1.002  -0.492   0.263  0.00  0.00    +0.011 A 
ATOM     12  C   UNL     1      -0.048  -0.779   1.240  0.00  0.00    +0.010 A 
ENDBRANCH   1  12
BRANCH   3  13
ATOM     13  C   UNL     1       0.014  -0.420   6.185  0.00  0.00    +0.263 C 
ATOM     14  O   UNL     1      -0.081   0.314   7.150  0.00  0.00    -0.269 OA
ATOM     15  N   UNL     1       0.230  -1.739   6.360  0.00  0.00    -0.306 N 
ATOM     16  H   UNL     1       0.306  -2.325   5.591  0.00  0.00    +0.149 HD
BRANCH  15  17
ATOM     17  C   UNL     1       0.351  -2.288   7.713  0.00  0.00    +0.091 C 
ATOM     18  C   UNL     1      -0.021  -3.776   7.700  0.00  0.00    +0.033 C 
ATOM     19  C   UNL     1      -0.064  -4.276   9.146  0.00  0.00    +0.097 C 
ATOM     20  C   UNL     1       1.182  -3.853   9.870  0.00  0.00    +0.213 C 
ATOM     21  O   UNL     1       1.467  -4.422  10.902  0.00  0.00    -0.276 OA
ATOM     22  N   UNL     1       1.990  -2.884   9.440  0.00  0.00    -0.314 N 
ATOM     23  C   UNL     1       1.794  -2.145   8.198  0.00  0.00    +0.126 C 
ATOM     24  H   UNL     1       2.756  -2.654   9.989  0.00  0.00    +0.149 HD
ENDBRANCH  15  17
ENDBRANCH   3  13
TORSDOF 3
