REMARK  Name = ZINC63110955
REMARK  11 active torsions:
REMARK  status: ('A' for Active; 'I' for Inactive)
REMARK    1  A    between atoms: C_1  and  C_2
REMARK    2  A    between atoms: N_4  and  C_5
REMARK    3  A    between atoms: C_5  and  C_7
REMARK    4  A    between atoms: C_5  and  C_17
REMARK    5  A    between atoms: C_7  and  C_8
REMARK    6  A    between atoms: N_19  and  C_20
REMARK    7  A    between atoms: C_20  and  C_21
REMARK    8  A    between atoms: C_21  and  C_23
REMARK    9  A    between atoms: C_21  and  N_30
REMARK   10  A    between atoms: N_30  and  C_31
REMARK   11  A    between atoms: N_30  and  C_32
REMARK                            x       y       z     vdW  Elec       q    Type
REMARK                         _______ _______ _______ _____ _____    ______ ____
ROOT
ATOM      1  C   UNL     1      -0.453  -2.389  -0.106  0.00  0.00    +0.163 C 
ENDROOT
BRANCH   1   5
ATOM      2  C   UNL     1       0.862   1.206  -0.077  0.00  0.00    +0.109 C 
ATOM      3  C   UNL     1       0.796  -0.299  -0.023  0.00  0.00    +0.211 C 
ATOM      4  O   UNL     1       1.809  -0.945   0.145  0.00  0.00    -0.276 OA
ATOM      5  N   UNL     1      -0.388  -0.927  -0.160  0.00  0.00    -0.304 N 
ATOM      6  H   UNL     1      -1.198  -0.410  -0.293  0.00  0.00    +0.149 HD
ENDBRANCH   1   5
BRANCH   1   7
ATOM      7  C   UNL     1       0.060  -2.866   1.228  0.00  0.00    +0.234 C 
ATOM      8  O   UNL     1       0.764  -2.143   1.901  0.00  0.00    -0.274 OA
ATOM      9  N   UNL     1      -0.263  -4.097   1.674  0.00  0.00    -0.315 N 
ATOM     10  H   UNL     1      -0.826  -4.675   1.135  0.00  0.00    +0.149 HD
BRANCH   9  11
ATOM     11  C   UNL     1       0.235  -4.560   2.971  0.00  0.00    +0.093 C 
BRANCH  11  12
ATOM     12  C   UNL     1      -0.376  -5.925   3.294  0.00  0.00    -0.020 C 
BRANCH  12  13
ATOM     13  C   UNL     1       0.123  -6.946   2.303  0.00  0.00    -0.041 A 
ATOM     14  C   UNL     1      -0.625  -7.240   1.178  0.00  0.00    +0.003 A 
ATOM     15  C   UNL     1      -0.168  -8.176   0.270  0.00  0.00    +0.000 A 
ATOM     16  C   UNL     1       1.037  -8.819   0.485  0.00  0.00    +0.001 A 
ATOM     17  C   UNL     1       1.786  -8.526   1.610  0.00  0.00    +0.020 A 
ATOM     18  C   UNL     1       1.331  -7.585   2.517  0.00  0.00    +0.043 A 
ATOM     19 CL   UNL     1       2.274  -7.211   3.926  0.00  0.00    -0.083 Cl
ENDBRANCH  12  13
BRANCH  12  20
ATOM     20  N   UNL     1      -1.840  -5.838   3.212  0.00  0.00    +0.382 N 
ATOM     21  C   UNL     1      -2.428  -7.137   3.565  0.00  0.00    -0.096 C 
ATOM     22  C   UNL     1      -2.322  -4.812   4.146  0.00  0.00    -0.096 C 
ATOM     23  H   UNL     1      -2.110  -5.590   2.272  0.00  0.00    -0.082 HD
ENDBRANCH  12  20
ENDBRANCH  11  12
ENDBRANCH   9  11
ENDBRANCH   1   7
BRANCH   1  24
ATOM     24  C   UNL     1       0.409  -2.979  -1.224  0.00  0.00    +0.065 C 
BRANCH  24  25
ATOM     25  C   UNL     1      -0.176  -2.603  -2.561  0.00  0.00    -0.039 C 
ATOM     26  C   UNL     1       0.180  -1.555  -3.339  0.00  0.00    -0.001 A 
ATOM     27  C   UNL     1       1.180  -0.492  -3.178  0.00  0.00    +0.010 A 
ATOM     28  C   UNL     1       1.307   0.441  -4.149  0.00  0.00    +0.001 A 
ATOM     29  C   UNL     1       0.511   0.418  -5.302  0.00  0.00    +0.002 A 
ATOM     30  C   UNL     1      -0.428  -0.527  -5.521  0.00  0.00    +0.026 A 
ATOM     31  C   UNL     1      -0.648  -1.557  -4.566  0.00  0.00    +0.043 A 
ATOM     32  N   UNL     1      -1.483  -2.567  -4.547  0.00  0.00    -0.380 N 
ATOM     33  C   UNL     1      -1.275  -3.324  -3.308  0.00  0.00    +0.144 C 
ATOM     34  H   UNL     1      -2.128  -2.781  -5.240  0.00  0.00    +0.160 HD
ENDBRANCH  24  25
ENDBRANCH   1  24
TORSDOF 8
