REMARK  Name = ZINC24892813
REMARK  11 active torsions:
REMARK  status: ('A' for Active; 'I' for Inactive)
REMARK    1  A    between atoms: C_1  and  C_2
REMARK    2  A    between atoms: C_2  and  C_4
REMARK    3  A    between atoms: C_2  and  N_10
REMARK    4  A    between atoms: C_4  and  C_5
REMARK    5  A    between atoms: N_10  and  C_11
REMARK    6  A    between atoms: N_10  and  C_20
REMARK    7  A    between atoms: C_11  and  C_12
REMARK    8  A    between atoms: C_15  and  O_18
REMARK    9  A    between atoms: O_18  and  C_19
REMARK   10  A    between atoms: C_20  and  C_21
REMARK   11  A    between atoms: N_23  and  N_24
REMARK                            x       y       z     vdW  Elec       q    Type
REMARK                         _______ _______ _______ _____ _____    ______ ____
ROOT
ATOM      1  N   UNL     1      -0.189   2.171  -0.636  0.00  0.00    +0.390 N 
ATOM      2  H   UNL     1      -0.047   3.247  -0.451  0.00  0.00    -0.080 HD
ENDROOT
BRANCH   1   4
ATOM      3  C   UNL     1      -2.465   3.031  -0.914  0.00  0.00    -0.013 C 
ATOM      4  C   UNL     1      -1.609   1.861  -0.425  0.00  0.00    -0.066 C 
BRANCH   4   5
ATOM      5  C   UNL     1      -1.977   0.599  -1.207  0.00  0.00    +0.027 C 
BRANCH   5   6
ATOM      6  C   UNL     1      -1.227  -0.580  -0.641  0.00  0.00    -0.012 A 
ATOM      7  C   UNL     1      -1.528  -1.344   0.438  0.00  0.00    +0.011 A 
ATOM      8  C   UNL     1      -0.687  -2.388   0.774  0.00  0.00    +0.008 A 
ATOM      9  C   UNL     1       0.418  -2.611   0.021  0.00  0.00    +0.045 A 
ATOM     10  S   UNL     1       0.290  -1.326  -1.212  0.00  0.00    -0.102 S 
ENDBRANCH   5   6
ENDBRANCH   4   5
ENDBRANCH   1   4
BRANCH   1  11
ATOM     11  C   UNL     1       0.210   1.895  -2.022  0.00  0.00    -0.042 C 
BRANCH  11  12
ATOM     12  C   UNL     1      -0.393   2.931  -2.935  0.00  0.00    -0.064 A 
ATOM     13  C   UNL     1      -1.368   2.566  -3.845  0.00  0.00    +0.005 A 
ATOM     14  C   UNL     1      -1.926   3.516  -4.679  0.00  0.00    +0.046 A 
ATOM     15  C   UNL     1      -1.500   4.834  -4.611  0.00  0.00    +0.120 A 
ATOM     16  C   UNL     1      -0.517   5.197  -3.701  0.00  0.00    +0.046 A 
ATOM     17  C   UNL     1       0.034   4.245  -2.865  0.00  0.00    +0.005 A 
BRANCH  15  18
ATOM     18  O   UNL     1      -2.044   5.769  -5.433  0.00  0.00    -0.495 OA
ATOM     19  C   UNL     1      -3.051   5.324  -6.345  0.00  0.00    +0.277 C 
ENDBRANCH  15  18
ENDBRANCH  11  12
ENDBRANCH   1  11
BRANCH   1  20
ATOM     20  C   UNL     1       0.657   1.435   0.312  0.00  0.00    +0.021 C 
BRANCH  20  21
ATOM     21  C   UNL     1       0.505   2.030   1.688  0.00  0.00    +0.213 C 
ATOM     22  O   UNL     1      -0.280   2.936   1.874  0.00  0.00    -0.276 OA
ATOM     23  N   UNL     1       1.242   1.556   2.713  0.00  0.00    -0.225 N 
ATOM     24  H   UNL     1       1.954   0.735   2.544  0.00  0.00    +0.173 HD
BRANCH  23  25
ATOM     25  N   UNL     1       1.101   2.110   3.992  0.00  0.00    -0.137 N 
ATOM     26  C   UNL     1       0.450   1.510   5.010  0.00  0.00    +0.263 C 
ATOM     27  O   UNL     1      -0.102   0.431   4.994  0.00  0.00    -0.271 OA
ATOM     28  C   UNL     1       0.555   2.466   6.176  0.00  0.00    +0.114 C 
ATOM     29  C   UNL     1       1.305   1.814   7.332  0.00  0.00    +0.035 C 
ATOM     30  C   UNL     1       1.425   2.807   8.491  0.00  0.00    +0.003 C 
ATOM     31  C   UNL     1       0.027   3.233   8.944  0.00  0.00    +0.000 C 
ATOM     32  C   UNL     1      -0.703   3.907   7.780  0.00  0.00    +0.003 C 
ATOM     33  C   UNL     1      -0.832   2.919   6.618  0.00  0.00    +0.035 C 
ATOM     34  N   UNL     1       1.320   3.599   5.640  0.00  0.00    -0.284 N 
ATOM     35  C   UNL     1       1.599   3.297   4.357  0.00  0.00    +0.326 C 
ATOM     36  O   UNL     1       2.231   4.023   3.614  0.00  0.00    -0.251 OA
ATOM     37  H   UNL     1       1.547   4.463   6.282  0.00  0.00    +0.151 HD
ENDBRANCH  23  25
ENDBRANCH  20  21
ENDBRANCH   1  20
TORSDOF 9
