REMARK  Name = ZINC09227895
REMARK  14 active torsions:
REMARK  status: ('A' for Active; 'I' for Inactive)
REMARK    1  A    between atoms: C_1  and  C_2
REMARK    2  A    between atoms: C_2  and  N_80
REMARK    3  A    between atoms: C_6  and  C_8
REMARK    4  A    between atoms: C_8  and  N_9
REMARK    5  A    between atoms: C_10  and  C_12
REMARK    6  A    between atoms: N_15  and  C_30
REMARK    7  A    between atoms: C_16  and  C_17
REMARK    8  A    between atoms: C_23  and  O_25
REMARK    9  A    between atoms: O_25  and  C_26
REMARK   10  A    between atoms: C_26  and  C_27
REMARK   11  A    between atoms: C_26  and  C_28
REMARK   12  A    between atoms: C_26  and  C_29
REMARK   13  A    between atoms: C_33  and  C_37
REMARK   14  A    between atoms: C_34  and  C_36
REMARK                            x       y       z     vdW  Elec       q    Type
REMARK                         _______ _______ _______ _____ _____    ______ ____
ROOT
ATOM      1  C   UNL     1       1.464   1.064   2.209  0.00  0.00    +0.078 A 
ATOM      2  C   UNL     1       1.636   0.391   3.440  0.00  0.00    +0.148 A 
ATOM      3  N   UNL     1       0.479  -0.090   3.804  0.00  0.00    -0.174 NA
ATOM      4  N   UNL     1      -0.477   0.251   2.841  0.00  0.00    -0.236 N 
ATOM      5  C   UNL     1       0.131   0.951   1.866  0.00  0.00    +0.060 A 
ENDROOT
BRANCH   5   6
ATOM      6  C   UNL     1      -0.523   1.514   0.631  0.00  0.00    +0.042 C 
ATOM      7  C   UNL     1       0.180   0.966  -0.613  0.00  0.00    +0.029 C 
ATOM      8  C   UNL     1      -0.508   1.513  -1.868  0.00  0.00    +0.112 C 
ATOM      9  N   UNL     1      -0.539   2.979  -1.789  0.00  0.00    -0.267 N 
ATOM     10  C   UNL     1      -1.113   3.611  -0.593  0.00  0.00    +0.112 C 
ATOM     11  C   UNL     1      -0.418   3.040   0.647  0.00  0.00    +0.029 C 
ATOM     12  C   UNL     1      -0.050   3.732  -2.795  0.00  0.00    +0.403 C 
ATOM     13  O   UNL     1       0.422   3.198  -3.778  0.00  0.00    -0.226 OA
BRANCH  12  14
ATOM     14  O   UNL     1      -0.085   5.075  -2.709  0.00  0.00    -0.445 OA
BRANCH  14  15
ATOM     15  C   UNL     1       0.460   5.821  -3.829  0.00  0.00    +0.107 C 
ATOM     16  C   UNL     1      -0.316   5.470  -5.101  0.00  0.00    +0.055 C 
ATOM     17  C   UNL     1       0.333   7.321  -3.553  0.00  0.00    +0.055 C 
ATOM     18  C   UNL     1       1.935   5.459  -4.015  0.00  0.00    +0.055 C 
ENDBRANCH  14  15
ENDBRANCH  12  14
ENDBRANCH   5   6
BRANCH   4  19
ATOM     19  C   UNL     1      -1.837  -0.083   2.883  0.00  0.00    +0.066 A 
ATOM     20  C   UNL     1      -2.790   0.820   2.429  0.00  0.00    +0.028 A 
ATOM     21  C   UNL     1      -4.129   0.487   2.469  0.00  0.00    +0.006 A 
ATOM     22  C   UNL     1      -4.523  -0.741   2.968  0.00  0.00    -0.047 A 
ATOM     23  C   UNL     1      -3.578  -1.640   3.426  0.00  0.00    -0.046 A 
ATOM     24  C   UNL     1      -2.236  -1.314   3.385  0.00  0.00    +0.031 A 
ATOM     25  C   UNL     1      -4.011  -2.977   3.970  0.00  0.00    +0.044 C 
ATOM     26  C   UNL     1      -5.986  -1.100   3.015  0.00  0.00    +0.044 C 
ENDBRANCH   4  19
BRANCH   1  28
ATOM     27  N   UNL     1       3.795   1.698   1.839  0.00  0.00    -0.313 N 
ATOM     28  C   UNL     1       2.511   1.757   1.437  0.00  0.00    +0.247 C 
ATOM     29  O   UNL     1       2.215   2.381   0.436  0.00  0.00    -0.270 OA
ATOM     30  H   UNL     1       4.031   1.200   2.638  0.00  0.00    +0.149 HD
BRANCH  27  31
ATOM     31  C   UNL     1       4.836   2.387   1.071  0.00  0.00    +0.089 C 
BRANCH  31  35
ATOM     32  C   UNL     1       7.396   3.625   3.343  0.00  0.00    -0.078 C 
ATOM     33  C   UNL     1       7.808   4.114   1.932  0.00  0.00    -0.020 C 
ATOM     34  C   UNL     1       7.274   2.994   1.009  0.00  0.00    -0.016 C 
ATOM     35  C   UNL     1       6.167   2.298   1.821  0.00  0.00    -0.051 C 
ATOM     36  N   UNL     1       6.080   3.013   3.094  0.00  0.00    +0.382 N 
ATOM     37  H   UNL     1       5.363   3.746   3.031  0.00  0.00    -0.081 HD
BRANCH  36  39
ATOM     38  C   UNL     1       5.909   2.765   5.549  0.00  0.00    -0.017 C 
ATOM     39  C   UNL     1       5.721   2.071   4.199  0.00  0.00    -0.082 C 
ENDBRANCH  36  39
ENDBRANCH  31  35
ENDBRANCH  27  31
ENDBRANCH   1  28
TORSDOF 8
