REMARK  Name = ZINC12845559
REMARK  5 active torsions:
REMARK  status: ('A' for Active; 'I' for Inactive)
REMARK    1  A    between atoms: C_4  and  C_7
REMARK    2  A    between atoms: C_10  and  C_36
REMARK    3  A    between atoms: C_14  and  C_17
REMARK    4  A    between atoms: N_19  and  C_20
REMARK    5  A    between atoms: N_23  and  C_25
REMARK                            x       y       z     vdW  Elec       q    Type
REMARK                         _______ _______ _______ _____ _____    ______ ____
ROOT
ATOM      1  C   UNL     1       3.711  -0.707  -0.038  0.00  0.00    +0.104 C 
ATOM      2  C   UNL     1       4.019  -1.179  -1.463  0.00  0.00    +0.063 C 
ATOM      3  C   UNL     1       2.875  -2.062  -1.976  0.00  0.00    +0.215 C 
ATOM      4  N   UNL     1       2.574  -3.081  -0.965  0.00  0.00    -0.238 N 
ATOM      5  C   UNL     1       2.937  -2.978   0.335  0.00  0.00    +0.130 A 
ATOM      6  C   UNL     1       2.490  -4.114   0.984  0.00  0.00    +0.096 A 
ATOM      7  C   UNL     1       1.837  -4.911   0.011  0.00  0.00    +0.149 A 
ATOM      8  N   UNL     1       1.894  -4.286  -1.134  0.00  0.00    -0.177 NA
ATOM      9  N   UNL     1       3.630  -1.889   0.844  0.00  0.00    -0.322 N 
ATOM     10  H   UNL     1       4.040  -1.901   1.723  0.00  0.00    +0.148 HD
ENDROOT
BRANCH   1  14
ATOM     11  C   UNL     1      -0.017   1.378   0.010  0.00  0.00    +0.000 A 
ATOM     12  C   UNL     1       1.171   2.086   0.002  0.00  0.00    +0.000 A 
ATOM     13  C   UNL     1       2.377   1.411  -0.013  0.00  0.00    +0.005 A 
ATOM     14  C   UNL     1       2.396   0.029  -0.020  0.00  0.00    -0.027 A 
ATOM     15  C   UNL     1       1.208  -0.679  -0.012  0.00  0.00    +0.005 A 
ATOM     16  C   UNL     1       0.002  -0.004   0.002  0.00  0.00    +0.000 A 
ENDBRANCH   1  14
BRANCH   6  17
ATOM     17  C   UNL     1       2.661  -4.434   2.407  0.00  0.00    +0.253 C 
ATOM     18  O   UNL     1       3.247  -3.659   3.139  0.00  0.00    -0.270 OA
ATOM     19  N   UNL     1       2.169  -5.587   2.902  0.00  0.00    -0.279 N 
ATOM     20  H   UNL     1       1.702  -6.206   2.318  0.00  0.00    +0.155 HD
BRANCH  19  21
ATOM     21  C   UNL     1       2.333  -5.894   4.266  0.00  0.00    +0.072 A 
ATOM     22  C   UNL     1       2.978  -5.095   5.221  0.00  0.00    +0.157 A 
ATOM     23  N   UNL     1       2.930  -5.711   6.374  0.00  0.00    -0.177 NA
ATOM     24  N   UNL     1       2.254  -6.925   6.198  0.00  0.00    -0.264 N 
ATOM     25  C   UNL     1       1.890  -7.014   4.892  0.00  0.00    +0.132 A 
BRANCH  24  26
ATOM     26  C   UNL     1       1.982  -7.919   7.239  0.00  0.00    +0.064 C 
ATOM     27  C   UNL     1       2.301  -9.317   6.705  0.00  0.00    +0.033 C 
ATOM     28  C   UNL     1       2.017 -10.355   7.792  0.00  0.00    -0.008 C 
ATOM     29  C   UNL     1       2.889 -10.065   9.015  0.00  0.00    +0.007 C 
ATOM     30  C   UNL     1       2.570  -8.667   9.549  0.00  0.00    -0.008 C 
ATOM     31  C   UNL     1       2.854  -7.629   8.462  0.00  0.00    +0.033 C 
ATOM     32  C   UNL     1       1.094  -8.598   9.947  0.00  0.00    +0.007 C 
ATOM     33  C   UNL     1       0.222  -8.889   8.724  0.00  0.00    -0.008 C 
ATOM     34  C   UNL     1       0.541 -10.287   8.190  0.00  0.00    +0.007 C 
ATOM     35  C   UNL     1       0.506  -7.850   7.636  0.00  0.00    +0.033 C 
ENDBRANCH  24  26
ENDBRANCH  19  21
ENDBRANCH   6  17
BRANCH   3  36
ATOM     36  C   UNL     1       3.296  -2.740  -3.281  0.00  0.00    +0.412 C 
ATOM     37  F   UNL     1       4.428  -3.530  -3.052  0.00  0.00    -0.168 F 
ATOM     38  F   UNL     1       2.251  -3.545  -3.747  0.00  0.00    -0.168 F 
ATOM     39  F   UNL     1       3.595  -1.764  -4.238  0.00  0.00    -0.168 F 
ENDBRANCH   3  36
TORSDOF 5
