REMARK  Name = ZINC15103914
REMARK  8 active torsions:
REMARK  status: ('A' for Active; 'I' for Inactive)
REMARK    1  A    between atoms: C_1  and  N_63
REMARK    2  A    between atoms: C_2  and  C_3
REMARK    3  A    between atoms: C_2  and  N_63
REMARK    4  A    between atoms: C_8  and  N_9
REMARK    5  A    between atoms: C_15  and  C_16
REMARK    6  A    between atoms: C_15  and  N_63
REMARK    7  A    between atoms: N_18  and  C_19
REMARK    8  A    between atoms: C_20  and  C_28
REMARK                            x       y       z     vdW  Elec       q    Type
REMARK                         _______ _______ _______ _____ _____    ______ ____
ROOT
ATOM      1  C   UNL     1       1.120   2.216  -0.094  0.00  0.00    +0.201 C 
ATOM      2  O   UNL     1       2.142   1.661  -0.437  0.00  0.00    -0.278 OA
ATOM      3  N   UNL     1      -0.010   1.501   0.078  0.00  0.00    -0.281 N 
ATOM      4  H   UNL     1      -0.828   1.945   0.349  0.00  0.00    +0.155 HD
ENDROOT
BRANCH   3   5
ATOM      5  C   UNL     1      -0.003   0.132  -0.139  0.00  0.00    +0.084 A 
ATOM      6  C   UNL     1      -1.052  -0.767  -0.010  0.00  0.00    +0.068 A 
ATOM      7  C   UNL     1      -0.780  -2.164  -0.303  0.00  0.00    -0.023 A 
ATOM      8  C   UNL     1       0.491  -2.439  -0.665  0.00  0.00    -0.004 A 
ATOM      9  S   UNL     1       1.320  -0.875  -0.628  0.00  0.00    -0.077 S 
ATOM     10  C   UNL     1       1.061  -3.778  -1.016  0.00  0.00    +0.043 C 
ATOM     11  C   UNL     1       0.079  -4.861  -0.544  0.00  0.00    +0.005 C 
ATOM     12  C   UNL     1      -1.331  -4.481  -1.004  0.00  0.00    +0.005 C 
ATOM     13  C   UNL     1      -1.827  -3.268  -0.214  0.00  0.00    +0.037 C 
BRANCH   6  14
ATOM     14  C   UNL     1      -2.388  -0.323   0.402  0.00  0.00    +0.244 C 
ATOM     15  O   UNL     1      -3.201   0.020  -0.436  0.00  0.00    -0.270 OA
ATOM     16  N   UNL     1      -2.714  -0.293   1.709  0.00  0.00    -0.325 N 
ATOM     17  H   UNL     1      -2.066  -0.566   2.377  0.00  0.00    +0.145 HD
ATOM     18  H   UNL     1      -3.597   0.001   1.982  0.00  0.00    +0.145 HD
ENDBRANCH   6  14
ENDBRANCH   3   5
BRANCH   1  19
ATOM     19  C   UNL     1       1.113   3.704   0.141  0.00  0.00    +0.019 C 
BRANCH  19  21
ATOM     20  C   UNL     1       2.816   4.119  -1.528  0.00  0.00    -0.095 C 
ATOM     21  N   UNL     1       2.473   4.231  -0.095  0.00  0.00    +0.386 N 
ATOM     22  H   UNL     1       3.144   3.680   0.453  0.00  0.00    -0.081 HD
BRANCH  21  23
ATOM     23  C   UNL     1       2.550   5.644   0.333  0.00  0.00    -0.041 C 
BRANCH  23  24
ATOM     24  C   UNL     1       3.999   6.044   0.427  0.00  0.00    -0.043 A 
ATOM     25  C   UNL     1       4.562   6.840  -0.551  0.00  0.00    +0.003 A 
ATOM     26  C   UNL     1       5.891   7.211  -0.464  0.00  0.00    +0.000 A 
ATOM     27  C   UNL     1       6.664   6.778   0.598  0.00  0.00    +0.002 A 
ATOM     28  C   UNL     1       6.110   5.978   1.577  0.00  0.00    +0.023 A 
ATOM     29  C   UNL     1       4.773   5.607   1.494  0.00  0.00    +0.031 A 
BRANCH  29  30
ATOM     30  N   UNL     1       4.210   4.797   2.483  0.00  0.00    -0.330 N 
ATOM     31  C   UNL     1       4.258   5.456   3.794  0.00  0.00    +0.105 C 
ATOM     32  C   UNL     1       3.505   4.607   4.821  0.00  0.00    +0.019 C 
ATOM     33  C   UNL     1       4.150   3.221   4.902  0.00  0.00    +0.003 C 
ATOM     34  C   UNL     1       4.130   2.576   3.513  0.00  0.00    +0.019 C 
ATOM     35  C   UNL     1       4.865   3.484   2.524  0.00  0.00    +0.105 C 
ENDBRANCH  29  30
ENDBRANCH  23  24
ENDBRANCH  21  23
ENDBRANCH  19  21
ENDBRANCH   1  19
TORSDOF 7
