REMARK  Name = ZINC63140399
REMARK  13 active torsions:
REMARK  status: ('A' for Active; 'I' for Inactive)
REMARK    1  A    between atoms: C_1  and  C_2
REMARK    2  A    between atoms: C_2  and  O_3
REMARK    3  A    between atoms: O_3  and  C_4
REMARK    4  A    between atoms: C_4  and  C_5
REMARK    5  A    between atoms: C_4  and  O_38
REMARK    6  A    between atoms: C_5  and  C_6
REMARK    7  A    between atoms: C_6  and  C_7
REMARK    8  A    between atoms: C_7  and  N_8
REMARK    9  A    between atoms: C_28  and  C_30
REMARK   10  A    between atoms: C_35  and  O_36
REMARK   11  A    between atoms: O_36  and  C_37
REMARK   12  A    between atoms: O_38  and  C_39
REMARK   13  A    between atoms: C_39  and  C_40
REMARK                            x       y       z     vdW  Elec       q    Type
REMARK                         _______ _______ _______ _____ _____    ______ ____
ROOT
ATOM      1  N   UNL     1       4.420  -2.128   3.668  0.00  0.00    -0.291 N 
ATOM      2  C   UNL     1       4.948  -3.408   3.224  0.00  0.00    +0.203 C 
ATOM      3  C   UNL     1       6.437  -3.399   3.121  0.00  0.00    +0.234 C 
ATOM      4  O   UNL     1       6.983  -4.420   2.760  0.00  0.00    -0.274 OA
ATOM      5  N   UNL     1       7.213  -2.344   3.397  0.00  0.00    -0.279 N 
ATOM      6  C   UNL     1       6.671  -1.057   3.821  0.00  0.00    +0.167 C 
ATOM      7  C   UNL     1       5.182  -1.068   3.932  0.00  0.00    +0.237 C 
ATOM      8  O   UNL     1       4.632  -0.048   4.288  0.00  0.00    -0.274 OA
ATOM      9  C   UNL     1       7.105   0.045   2.838  0.00  0.00    +0.065 C 
ATOM     10  C   UNL     1       8.580  -0.155   2.592  0.00  0.00    -0.034 C 
ATOM     11  C   UNL     1       9.606   0.684   2.661  0.00  0.00    -0.001 A 
ATOM     12  C   UNL     1       9.671   2.136   2.893  0.00  0.00    +0.010 A 
ATOM     13  C   UNL     1      10.915   2.684   2.923  0.00  0.00    +0.001 A 
ATOM     14  C   UNL     1      12.087   1.941   2.748  0.00  0.00    +0.002 A 
ATOM     15  C   UNL     1      12.120   0.604   2.519  0.00  0.00    +0.026 A 
ATOM     16  C   UNL     1      10.873  -0.083   2.458  0.00  0.00    +0.043 A 
ATOM     17  N   UNL     1      10.614  -1.337   2.233  0.00  0.00    -0.375 N 
ATOM     18  C   UNL     1       9.161  -1.510   2.205  0.00  0.00    +0.131 C 
ATOM     19  C   UNL     1       8.678  -2.509   3.261  0.00  0.00    +0.137 C 
ATOM     20  H   UNL     1      11.271  -2.039   2.106  0.00  0.00    +0.160 HD
ENDROOT
BRANCH  19  21
ATOM     21  C   UNL     1       9.349  -2.223   4.580  0.00  0.00    +0.017 A 
ATOM     22  C   UNL     1       9.163  -1.003   5.200  0.00  0.00    +0.009 A 
ATOM     23  C   UNL     1       9.778  -0.740   6.410  0.00  0.00    +0.001 A 
ATOM     24  C   UNL     1      10.582  -1.697   7.002  0.00  0.00    +0.004 A 
ATOM     25  C   UNL     1      10.771  -2.919   6.385  0.00  0.00    +0.046 A 
ATOM     26  C   UNL     1      10.150  -3.187   5.174  0.00  0.00    +0.125 A 
BRANCH  26  27
ATOM     27  O   UNL     1      10.330  -4.390   4.568  0.00  0.00    -0.495 OA
ATOM     28  C   UNL     1      11.168  -5.335   5.238  0.00  0.00    +0.277 C 
ENDBRANCH  26  27
ENDBRANCH  19  21
BRANCH   1  29
ATOM     29  C   UNL     1       2.970  -1.996   3.827  0.00  0.00    +0.108 C 
BRANCH  29  30
ATOM     30  C   UNL     1       2.353  -1.526   2.508  0.00  0.00    +0.024 C 
BRANCH  30  31
ATOM     31  C   UNL     1       0.838  -1.387   2.674  0.00  0.00    +0.063 C 
BRANCH  31  32
ATOM     32  C   UNL     1       0.221  -0.918   1.355  0.00  0.00    +0.250 C 
BRANCH  32  33
ATOM     33  O   UNL     1       0.690   0.397   1.051  0.00  0.00    -0.352 OA
BRANCH  33  35
ATOM     34  C   UNL     1       1.153   2.147  -0.550  0.00  0.00    +0.034 C 
ATOM     35  C   UNL     1       0.733   0.690  -0.347  0.00  0.00    +0.159 C 
ENDBRANCH  33  35
ENDBRANCH  32  33
BRANCH  32  36
ATOM     36  O   UNL     1      -1.202  -0.900   1.475  0.00  0.00    -0.352 OA
BRANCH  36  37
ATOM     37  C   UNL     1      -1.890  -0.804   0.226  0.00  0.00    +0.159 C 
ATOM     38  C   UNL     1      -3.394  -0.961   0.458  0.00  0.00    +0.034 C 
ENDBRANCH  36  37
ENDBRANCH  32  36
ENDBRANCH  31  32
ENDBRANCH  30  31
ENDBRANCH  29  30
ENDBRANCH   1  29
TORSDOF 10
