REMARK  Name = ZINC26266895
REMARK  5 active torsions:
REMARK  status: ('A' for Active; 'I' for Inactive)
REMARK    1  A    between atoms: C_4  and  C_7
REMARK    2  A    between atoms: C_10  and  C_19
REMARK    3  A    between atoms: N_12  and  C_13
REMARK    4  A    between atoms: C_24  and  C_29
REMARK    5  A    between atoms: C_25  and  C_27
REMARK                            x       y       z     vdW  Elec       q    Type
REMARK                         _______ _______ _______ _____ _____    ______ ____
ROOT
ATOM      1  C   UNL     1      -2.893  -2.513   0.017  0.00  0.00    +0.134 C 
ATOM      2  C   UNL     1      -1.373  -2.260  -0.003  0.00  0.00    +0.091 C 
ATOM      3  C   UNL     1      -1.254  -0.752   0.010  0.00  0.00    +0.123 C 
ATOM      4  N   UNL     1      -2.437  -0.227   0.024  0.00  0.00    -0.178 NA
ATOM      5  N   UNL     1      -3.471  -1.161   0.029  0.00  0.00    -0.216 N 
ENDROOT
BRANCH   3   6
ATOM      6  C   UNL     1       0.002  -0.004   0.002  0.00  0.00    +0.266 C 
ATOM      7  O   UNL     1       1.064  -0.598  -0.011  0.00  0.00    -0.268 OA
ATOM      8  N   UNL     1      -0.016   1.344   0.009  0.00  0.00    -0.249 N 
ATOM      9  C   UNL     1       1.172   2.051   0.002  0.00  0.00    +0.224 A 
ATOM     10  N   UNL     1       2.414   1.500  -0.007  0.00  0.00    -0.201 NA
ATOM     11  C   UNL     1       3.322   2.538  -0.016  0.00  0.00    +0.179 A 
ATOM     12  C   UNL     1       2.573   3.710  -0.002  0.00  0.00    +0.179 A 
ATOM     13  N   UNL     1       1.275   3.359   0.008  0.00  0.00    -0.201 NA
ATOM     14  H   UNL     1      -0.976   1.881   0.021  0.00  0.00    +0.158 HD
BRANCH  12  15
ATOM     15  C   UNL     1       3.089   5.045   0.001  0.00  0.00    +0.122 C 
ATOM     16  N   UNL     1       3.499   6.105   0.003  0.00  0.00    -0.189 NA
ENDBRANCH  12  15
BRANCH  11  17
ATOM     17  C   UNL     1       4.750   2.431  -0.030  0.00  0.00    +0.122 C 
ATOM     18  N   UNL     1       5.883   2.346  -0.042  0.00  0.00    -0.189 NA
ENDBRANCH  11  17
ENDBRANCH   3   6
BRANCH   1  22
ATOM     19  C   UNL     1      -4.093  -4.628  -3.496  0.00  0.00    +0.000 A 
ATOM     20  C   UNL     1      -4.005  -5.291  -2.286  0.00  0.00    +0.000 A 
ATOM     21  C   UNL     1      -3.617  -4.607  -1.149  0.00  0.00    +0.005 A 
ATOM     22  C   UNL     1      -3.316  -3.260  -1.223  0.00  0.00    -0.025 A 
ATOM     23  C   UNL     1      -3.408  -2.595  -2.432  0.00  0.00    +0.005 A 
ATOM     24  C   UNL     1      -3.792  -3.281  -3.569  0.00  0.00    +0.000 A 
ENDBRANCH   1  22
BRANCH   5  25
ATOM     25  C   UNL     1      -4.835  -0.861   0.044  0.00  0.00    +0.052 A 
ATOM     26  C   UNL     1      -5.773  -1.887   0.042  0.00  0.00    +0.025 A 
ATOM     27  C   UNL     1      -7.121  -1.587   0.062  0.00  0.00    +0.002 A 
ATOM     28  C   UNL     1      -7.537  -0.268   0.073  0.00  0.00    +0.000 A 
ATOM     29  C   UNL     1      -6.607   0.755   0.069  0.00  0.00    +0.002 A 
ATOM     30  C   UNL     1      -5.257   0.463   0.054  0.00  0.00    +0.025 A 
ENDBRANCH   5  25
TORSDOF 5
