REMARK  Name = ZINC37112667
REMARK  10 active torsions:
REMARK  status: ('A' for Active; 'I' for Inactive)
REMARK    1  A    between atoms: C_1  and  C_2
REMARK    2  A    between atoms: C_2  and  C_3
REMARK    3  A    between atoms: C_3  and  C_5
REMARK    4  A    between atoms: C_3  and  N_6
REMARK    5  A    between atoms: N_6  and  C_7
REMARK    6  A    between atoms: N_6  and  C_9
REMARK    7  A    between atoms: C_7  and  C_8
REMARK    8  A    between atoms: C_9  and  C_11
REMARK    9  A    between atoms: C_9  and  C_13
REMARK   10  A    between atoms: C_11  and  N_12
REMARK                            x       y       z     vdW  Elec       q    Type
REMARK                         _______ _______ _______ _____ _____    ______ ____
ROOT
ATOM      1  C   UNL     1       0.404   1.314  -1.718  0.00  0.00    -0.055 C 
ENDROOT
BRANCH   1   2
ATOM      2  C   UNL     1       0.411   1.365  -0.212  0.00  0.00    -0.058 A 
ATOM      3  C   UNL     1       1.400   2.068   0.450  0.00  0.00    +0.051 A 
ATOM      4  C   UNL     1       1.410   2.117   1.836  0.00  0.00    +0.163 A 
ATOM      5  C   UNL     1       0.421   1.459   2.558  0.00  0.00    +0.176 A 
ATOM      6  C   UNL     1      -0.569   0.754   1.888  0.00  0.00    +0.063 A 
ATOM      7  C   UNL     1      -0.574   0.713   0.505  0.00  0.00    +0.021 A 
ATOM      8 BR   UNL     1      -1.913  -0.147   2.865  0.00  0.00    -0.046 Br
ATOM      9  O   UNL     1       0.407   1.500   3.918  0.00  0.00    -0.484 OA
ATOM     10  C   UNL     1       1.621   1.903   4.562  0.00  0.00    +0.270 C 
ATOM     11  C   UNL     1       2.156   3.149   3.844  0.00  0.00    +0.270 C 
ATOM     12  O   UNL     1       2.393   2.810   2.473  0.00  0.00    -0.485 OA
ENDBRANCH   1   2
BRANCH   1  13
ATOM     13  N   UNL     1      -0.117   0.014  -2.162  0.00  0.00    +0.385 N 
ATOM     14  H   UNL     1       0.113  -0.692  -1.478  0.00  0.00    -0.081 HD
BRANCH  13  15
ATOM     15  C   UNL     1       0.486  -0.340  -3.453  0.00  0.00    -0.071 C 
ATOM     16  C   UNL     1       0.109  -1.778  -3.815  0.00  0.00    -0.013 C 
BRANCH  15  18
ATOM     17  C   UNL     1       2.434   1.202  -3.719  0.00  0.00    +0.002 C 
ATOM     18  C   UNL     1       2.008  -0.222  -3.355  0.00  0.00    -0.019 C 
ENDBRANCH  15  18
ENDBRANCH  13  15
BRANCH  13  19
ATOM     19  C   UNL     1      -1.577   0.096  -2.309  0.00  0.00    -0.081 C 
ATOM     20  C   UNL     1      -2.206  -1.238  -1.902  0.00  0.00    -0.017 C 
ENDBRANCH  13  19
ENDBRANCH   1  13
BRANCH   1  21
ATOM     21  C   UNL     1      -0.487   2.433  -2.261  0.00  0.00    -0.098 C 
BRANCH  21  22
ATOM     22  N   UNL     1      -0.618   2.291  -3.718  0.00  0.00    +0.377 N 
ATOM     23  H   UNL     1       0.290   2.384  -4.148  0.00  0.00    -0.090 HD
ATOM     24  H   UNL     1      -1.001   1.383  -3.934  0.00  0.00    -0.090 HD
ATOM     25  H   UNL     1      -1.233   3.008  -4.072  0.00  0.00    -0.090 HD
ENDBRANCH  21  22
ENDBRANCH   1  21
TORSDOF 7
