REMARK  Name = ZINC14624916
REMARK  6 active torsions:
REMARK  status: ('A' for Active; 'I' for Inactive)
REMARK    1  A    between atoms: C_1  and  C_2
REMARK    2  A    between atoms: C_4  and  C_33
REMARK    3  A    between atoms: C_5  and  C_9
REMARK    4  A    between atoms: C_6  and  C_8
REMARK    5  A    between atoms: C_15  and  C_17
REMARK    6  A    between atoms: C_17  and  N_18
REMARK                            x       y       z     vdW  Elec       q    Type
REMARK                         _______ _______ _______ _____ _____    ______ ____
ROOT
ATOM      1  C   UNL     1      -3.993   7.230  -5.007  0.00  0.00    +0.081 A 
ATOM      2  C   UNL     1      -3.221   6.755  -6.030  0.00  0.00    +0.076 A 
ATOM      3  S   UNL     1      -2.062   5.737  -5.126  0.00  0.00    -0.060 S 
ATOM      4  C   UNL     1      -2.725   6.039  -3.494  0.00  0.00    +0.165 A 
ATOM      5  N   UNL     1      -3.724   6.859  -3.764  0.00  0.00    -0.225 NA
ATOM      6  N   UNL     1      -2.299   5.547  -2.267  0.00  0.00    -0.263 N 
ATOM      7  C   UNL     1      -1.244   4.710  -2.206  0.00  0.00    +0.237 C 
ATOM      8  O   UNL     1      -0.667   4.387  -3.223  0.00  0.00    -0.274 OA
ATOM      9  H   UNL     1      -2.760   5.806  -1.454  0.00  0.00    +0.157 HD
ENDROOT
BRANCH   1  14
ATOM     10  C   UNL     1      -8.373  10.808  -6.089  0.00  0.00    +0.044 C 
ATOM     11  C   UNL     1      -7.227   9.872  -5.806  0.00  0.00    -0.050 A 
ATOM     12  C   UNL     1      -7.440   8.728  -5.058  0.00  0.00    +0.007 A 
ATOM     13  C   UNL     1      -6.394   7.867  -4.795  0.00  0.00    -0.041 A 
ATOM     14  C   UNL     1      -5.121   8.152  -5.285  0.00  0.00    +0.007 A 
ATOM     15  C   UNL     1      -4.911   9.309  -6.034  0.00  0.00    -0.041 A 
ATOM     16  C   UNL     1      -5.965  10.159  -6.295  0.00  0.00    +0.007 A 
ATOM     17  C   UNL     1      -3.536   9.627  -6.562  0.00  0.00    +0.044 C 
ATOM     18  C   UNL     1      -6.628   6.621  -3.980  0.00  0.00    +0.044 C 
ENDBRANCH   1  14
BRANCH   7  19
ATOM     19  C   UNL     1      -0.781   4.176  -0.875  0.00  0.00    +0.214 C 
BRANCH  19  20
ATOM     20  N   UNL     1       0.372   3.296  -1.076  0.00  0.00    -0.215 N 
ATOM     21  C   UNL     1       1.657   3.713  -1.068  0.00  0.00    +0.251 C 
ATOM     22  O   UNL     1       2.062   4.843  -0.899  0.00  0.00    -0.272 OA
ATOM     23  C   UNL     1       2.477   2.474  -1.314  0.00  0.00    +0.138 C 
ATOM     24  C   UNL     1       3.327   2.613  -2.583  0.00  0.00    +0.045 C 
ATOM     25  C   UNL     1       4.687   3.078  -2.015  0.00  0.00    +0.038 C 
ATOM     26  C   UNL     1       4.721   2.562  -0.592  0.00  0.00    -0.042 A 
ATOM     27  C   UNL     1       3.442   2.215  -0.188  0.00  0.00    -0.012 A 
ATOM     28  C   UNL     1       3.236   1.718   1.088  0.00  0.00    +0.006 A 
ATOM     29  C   UNL     1       4.299   1.567   1.957  0.00  0.00    +0.000 A 
ATOM     30  C   UNL     1       5.575   1.913   1.554  0.00  0.00    +0.000 A 
ATOM     31  C   UNL     1       5.784   2.410   0.281  0.00  0.00    +0.004 A 
ATOM     32  N   UNL     1       1.493   1.399  -1.444  0.00  0.00    -0.281 N 
ATOM     33  C   UNL     1       0.283   1.978  -1.296  0.00  0.00    +0.310 C 
ATOM     34  O   UNL     1      -0.768   1.370  -1.352  0.00  0.00    -0.252 OA
ATOM     35  H   UNL     1       1.673   0.461  -1.609  0.00  0.00    +0.152 HD
ENDBRANCH  19  20
ENDBRANCH   7  19
TORSDOF 3
