REMARK  Name = ZINC20734451
REMARK  9 active torsions:
REMARK  status: ('A' for Active; 'I' for Inactive)
REMARK    1  A    between atoms: C_1  and  C_2
REMARK    2  A    between atoms: C_2  and  C_3
REMARK    3  A    between atoms: C_2  and  C_4
REMARK    4  A    between atoms: C_4  and  C_5
REMARK    5  A    between atoms: C_5  and  C_7
REMARK    6  A    between atoms: C_5  and  N_11
REMARK    7  A    between atoms: C_7  and  O_9
REMARK    8  A    between atoms: O_9  and  C_10
REMARK    9  A    between atoms: C_23  and  C_25
REMARK                            x       y       z     vdW  Elec       q    Type
REMARK                         _______ _______ _______ _____ _____    ______ ____
ROOT
ATOM      1  N   UNL     1       1.072  -2.327  -0.682  0.00  0.00    -0.286 N 
ATOM      2  C   UNL     1       0.333  -2.533  -1.790  0.00  0.00    +0.304 C 
ATOM      3  O   UNL     1      -0.881  -2.522  -1.722  0.00  0.00    -0.253 OA
ATOM      4  N   UNL     1       0.940  -2.750  -2.974  0.00  0.00    -0.273 N 
ATOM      5  C   UNL     1       0.155  -2.861  -4.213  0.00  0.00    +0.116 C 
ATOM      6  C   UNL     1       0.523  -1.699  -5.145  0.00  0.00    +0.074 C 
ATOM      7  C   UNL     1       2.022  -1.550  -5.167  0.00  0.00    +0.040 A 
ATOM      8  C   UNL     1       2.862  -2.067  -4.244  0.00  0.00    +0.062 A 
ATOM      9  N   UNL     1       4.109  -1.732  -4.584  0.00  0.00    -0.348 N 
ATOM     10  C   UNL     1       4.077  -1.028  -5.685  0.00  0.00    +0.171 A 
ATOM     11  N   UNL     1       2.790  -0.894  -6.080  0.00  0.00    -0.349 N 
ATOM     12  H   UNL     1       2.474  -0.421  -6.866  0.00  0.00    +0.166 HD
ATOM     13  C   UNL     1       2.406  -2.876  -3.059  0.00  0.00    +0.159 C 
ATOM     14  H   UNL     1       2.039  -2.396  -0.724  0.00  0.00    +0.151 HD
ATOM     15  H   UNL     1       4.910  -1.972  -4.092  0.00  0.00    +0.167 HD
ENDROOT
BRANCH  13  16
ATOM     16  C   UNL     1       2.785  -4.322  -3.253  0.00  0.00    +0.017 A 
ATOM     17  C   UNL     1       3.193  -4.768  -4.497  0.00  0.00    +0.011 A 
ATOM     18  C   UNL     1       3.542  -6.093  -4.677  0.00  0.00    +0.042 A 
ATOM     19  C   UNL     1       3.483  -6.976  -3.613  0.00  0.00    +0.161 A 
ATOM     20  C   UNL     1       3.075  -6.531  -2.366  0.00  0.00    +0.194 A 
ATOM     21  C   UNL     1       2.731  -5.201  -2.185  0.00  0.00    +0.167 A 
ATOM     22  F   UNL     1       2.339  -4.763  -0.969  0.00  0.00    -0.202 F 
ATOM     23  F   UNL     1       3.018  -7.392  -1.326  0.00  0.00    -0.199 F 
ATOM     24  F   UNL     1       3.824  -8.271  -3.791  0.00  0.00    -0.202 F 
ENDBRANCH  13  16
BRANCH   1  25
ATOM     25  C   UNL     1       0.415  -1.999   0.586  0.00  0.00    +0.183 C 
BRANCH  25  26
ATOM     26  C   UNL     1       1.375  -1.241   1.468  0.00  0.00    +0.327 C 
ATOM     27  O   UNL     1       2.492  -1.000   1.077  0.00  0.00    -0.249 OA
BRANCH  26  28
ATOM     28  O   UNL     1       0.988  -0.835   2.687  0.00  0.00    -0.467 OA
ATOM     29  C   UNL     1       1.948  -0.121   3.468  0.00  0.00    +0.280 C 
ENDBRANCH  26  28
ENDBRANCH  25  26
BRANCH  25  30
ATOM     30  C   UNL     1      -0.011  -3.290   1.288  0.00  0.00    +0.036 C 
BRANCH  30  32
ATOM     31  C   UNL     1      -1.415  -5.347   1.088  0.00  0.00    +0.007 C 
ATOM     32  C   UNL     1      -1.078  -3.997   0.451  0.00  0.00    -0.015 C 
ATOM     33  C   UNL     1      -2.339  -3.131   0.394  0.00  0.00    +0.007 C 
ENDBRANCH  30  32
ENDBRANCH  25  30
ENDBRANCH   1  25
TORSDOF 6
