REMARK  Name = ZINC45648090
REMARK  4 active torsions:
REMARK  status: ('A' for Active; 'I' for Inactive)
REMARK    1  A    between atoms: C_1  and  C_2
REMARK    2  A    between atoms: C_2  and  C_4
REMARK    3  A    between atoms: C_2  and  O_12
REMARK    4  A    between atoms: O_12  and  C_13
REMARK                            x       y       z     vdW  Elec       q    Type
REMARK                         _______ _______ _______ _____ _____    ______ ____
ROOT
ATOM      1  C   UNL     1      -0.044   1.273   0.345  0.00  0.00    +0.062 C 
ATOM      2  C   UNL     1      -0.015  -0.229   0.058  0.00  0.00    +0.256 C 
ENDROOT
BRANCH   2   3
ATOM      3  C   UNL     1      -1.426  -0.748  -0.046  0.00  0.00    +0.259 C 
ATOM      4  O   UNL     1      -1.835  -1.187  -1.100  0.00  0.00    -0.271 OA
ATOM      5  N   UNL     1      -2.233  -0.726   1.034  0.00  0.00    -0.260 N 
ATOM      6  C   UNL     1      -3.535  -1.205   0.938  0.00  0.00    +0.188 A 
ATOM      7  N   UNL     1      -4.157  -1.720  -0.104  0.00  0.00    -0.126 NA
ATOM      8  N   UNL     1      -5.355  -2.117  -0.037  0.00  0.00    -0.148 NA
ATOM      9  C   UNL     1      -6.002  -2.014   1.106  0.00  0.00    +0.183 A 
ATOM     10  S   UNL     1      -4.728  -1.286   2.127  0.00  0.00    -0.039 S 
ATOM     11  H   UNL     1      -1.905  -0.376   1.877  0.00  0.00    +0.157 HD
ENDBRANCH   2   3
BRANCH   2  12
ATOM     12  O   UNL     1       0.671  -0.465  -1.174  0.00  0.00    -0.480 OA
BRANCH  12  13
ATOM     13  C   UNL     1       2.026  -0.553  -1.118  0.00  0.00    +0.123 A 
ATOM     14  C   UNL     1       2.690  -0.309   0.076  0.00  0.00    +0.047 A 
ATOM     15  C   UNL     1       4.067  -0.399   0.131  0.00  0.00    +0.025 A 
ATOM     16  C   UNL     1       4.786  -0.733  -1.003  0.00  0.00    +0.059 A 
ATOM     17  C   UNL     1       4.126  -0.977  -2.196  0.00  0.00    +0.063 A 
ATOM     18  C   UNL     1       2.747  -0.893  -2.253  0.00  0.00    +0.067 A 
ATOM     19 CL   UNL     1       5.030  -1.395  -3.618  0.00  0.00    -0.082 Cl
ATOM     20 CL   UNL     1       6.516  -0.844  -0.931  0.00  0.00    -0.082 Cl
ENDBRANCH  12  13
ENDBRANCH   2  12
TORSDOF 3
