REMARK  Name = ZINC06822065
REMARK  12 active torsions:
REMARK  status: ('A' for Active; 'I' for Inactive)
REMARK    1  A    between atoms: C_1  and  C_2
REMARK    2  A    between atoms: C_2  and  C_3
REMARK    3  A    between atoms: C_6  and  N_9
REMARK    4  A    between atoms: N_9  and  C_10
REMARK    5  A    between atoms: C_10  and  C_12
REMARK    6  A    between atoms: C_10  and  C_18
REMARK    7  A    between atoms: C_15  and  C_17
REMARK    8  A    between atoms: N_20  and  C_21
REMARK    9  A    between atoms: C_21  and  C_22
REMARK   10  A    between atoms: C_28  and  C_30
REMARK   11  A    between atoms: C_31  and  N_38
REMARK   12  A    between atoms: C_32  and  C_35
REMARK                            x       y       z     vdW  Elec       q    Type
REMARK                         _______ _______ _______ _____ _____    ______ ____
ROOT
ATOM      1  N   UNL     1       1.173  -2.122  -0.146  0.00  0.00    -0.248 N 
ATOM      2  C   UNL     1       0.085  -2.878   0.100  0.00  0.00    +0.262 C 
ATOM      3  O   UNL     1       0.210  -4.067   0.332  0.00  0.00    -0.269 OA
ENDROOT
BRANCH   1   7
ATOM      4  C   UNL     1       0.756   1.962  -0.849  0.00  0.00    -0.048 A 
ATOM      5  C   UNL     1       0.825   1.489   0.448  0.00  0.00    +0.005 A 
ATOM      6  C   UNL     1       0.964   0.136   0.685  0.00  0.00    +0.024 A 
ATOM      7  C   UNL     1       1.033  -0.751  -0.382  0.00  0.00    +0.038 A 
ATOM      8  C   UNL     1       0.963  -0.272  -1.684  0.00  0.00    +0.024 A 
ATOM      9  C   UNL     1       0.825   1.082  -1.914  0.00  0.00    +0.005 A 
BRANCH   4  11
ATOM     10  C   UNL     1       1.990   4.082  -1.214  0.00  0.00    +0.009 C 
ATOM     11  C   UNL     1       0.606   3.440  -1.104  0.00  0.00    +0.032 C 
ENDBRANCH   4  11
ENDBRANCH   1   7
BRANCH   2  12
ATOM     12  C   UNL     1      -1.246  -2.271   0.089  0.00  0.00    +0.116 A 
ATOM     13  C   UNL     1      -2.500  -2.884   0.140  0.00  0.00    +0.076 A 
ATOM     14  C   UNL     1      -3.547  -1.963   0.108  0.00  0.00    +0.155 A 
ATOM     15  N   UNL     1      -3.272  -0.679   0.036  0.00  0.00    -0.203 NA
ATOM     16  S   UNL     1      -1.702  -0.551   0.013  0.00  0.00    +0.019 S 
BRANCH  14  17
ATOM     17  C   UNL     1      -4.946  -2.424   0.154  0.00  0.00    +0.262 C 
ATOM     18  O   UNL     1      -5.193  -3.613   0.221  0.00  0.00    -0.269 OA
ATOM     19  N   UNL     1      -5.952  -1.528   0.122  0.00  0.00    -0.324 N 
ATOM     20  H   UNL     1      -5.756  -0.580   0.069  0.00  0.00    +0.145 HD
ATOM     21  H   UNL     1      -6.873  -1.831   0.153  0.00  0.00    +0.145 HD
ENDBRANCH  14  17
BRANCH  13  22
ATOM     22  N   UNL     1      -2.683  -4.258   0.216  0.00  0.00    -0.355 N 
ATOM     23  H   UNL     1      -1.915  -4.850   0.235  0.00  0.00    +0.142 HD
ATOM     24  H   UNL     1      -3.580  -4.626   0.249  0.00  0.00    +0.142 HD
ENDBRANCH  13  22
ENDBRANCH   2  12
BRANCH   1  25
ATOM     25  C   UNL     1       2.503  -2.736  -0.166  0.00  0.00    +0.233 C 
BRANCH  25  26
ATOM     26  C   UNL     1       3.210  -2.363  -1.444  0.00  0.00    +0.135 A 
ATOM     27  C   UNL     1       3.982  -3.179  -2.183  0.00  0.00    +0.047 A 
ATOM     28  C   UNL     1       4.437  -2.423  -3.288  0.00  0.00    +0.045 A 
ATOM     29  C   UNL     1       3.922  -1.187  -3.153  0.00  0.00    +0.102 A 
ATOM     30  O   UNL     1       3.180  -1.157  -2.034  0.00  0.00    -0.462 OA
ATOM     31  C   UNL     1       4.141  -0.033  -4.097  0.00  0.00    +0.086 C 
ENDBRANCH  25  26
BRANCH  25  32
ATOM     32  C   UNL     1       3.302  -2.244   1.012  0.00  0.00    +0.242 C 
ATOM     33  O   UNL     1       2.794  -1.494   1.819  0.00  0.00    -0.273 OA
ATOM     34  N   UNL     1       4.582  -2.635   1.170  0.00  0.00    -0.311 N 
ATOM     35  H   UNL     1       4.989  -3.235   0.525  0.00  0.00    +0.149 HD
BRANCH  34  36
ATOM     36  C   UNL     1       5.359  -2.156   2.316  0.00  0.00    +0.135 C 
BRANCH  36  37
ATOM     37  C   UNL     1       6.770  -2.746   2.258  0.00  0.00    +0.135 C 
ATOM     38  C   UNL     1       7.596  -2.248   3.460  0.00  0.00    +0.035 C 
ATOM     39  C   UNL     1       8.022  -3.544   4.191  0.00  0.00    +0.031 C 
ATOM     40  C   UNL     1       7.876  -4.609   3.075  0.00  0.00    +0.160 C 
ATOM     41  O   UNL     1       6.704  -4.179   2.350  0.00  0.00    -0.375 OA
ENDBRANCH  36  37
ENDBRANCH  34  36
ENDBRANCH  25  32
ENDBRANCH   1  25
TORSDOF 10
