REMARK  Name = ZINC49055131
REMARK  8 active torsions:
REMARK  status: ('A' for Active; 'I' for Inactive)
REMARK    1  A    between atoms: C_1  and  C_2
REMARK    2  A    between atoms: C_2  and  N_3
REMARK    3  A    between atoms: C_4  and  C_6
REMARK    4  A    between atoms: C_6  and  C_7
REMARK    5  A    between atoms: C_6  and  N_8
REMARK    6  A    between atoms: C_9  and  C_11
REMARK    7  A    between atoms: N_13  and  C_14
REMARK    8  A    between atoms: C_19  and  C_20
REMARK                            x       y       z     vdW  Elec       q    Type
REMARK                         _______ _______ _______ _____ _____    ______ ____
ROOT
ATOM      1  C   UNL     1       2.593  -5.935   3.257  0.00  0.00    +0.303 C 
ATOM      2  O   UNL     1       1.738  -6.550   2.653  0.00  0.00    -0.265 OA
ATOM      3  N   UNL     1       3.566  -6.600   3.912  0.00  0.00    -0.277 N 
ATOM      4  H   UNL     1       4.293  -6.110   4.327  0.00  0.00    +0.155 HD
ENDROOT
BRANCH   3   5
ATOM      5  C   UNL     1       3.527  -7.992   3.992  0.00  0.00    +0.042 A 
ATOM      6  C   UNL     1       2.317  -8.663   3.886  0.00  0.00    +0.024 A 
ATOM      7  C   UNL     1       2.281 -10.041   3.966  0.00  0.00    +0.002 A 
ATOM      8  C   UNL     1       3.448 -10.763   4.152  0.00  0.00    +0.001 A 
ATOM      9  C   UNL     1       4.659 -10.112   4.259  0.00  0.00    +0.011 A 
ATOM     10  C   UNL     1       4.711  -8.720   4.175  0.00  0.00    +0.010 A 
BRANCH  10  11
ATOM     11  C   UNL     1       6.006  -8.017   4.283  0.00  0.00    +0.021 A 
ATOM     12  C   UNL     1       6.990  -8.161   5.225  0.00  0.00    +0.016 A 
ATOM     13  C   UNL     1       8.125  -7.387   5.120  0.00  0.00    +0.008 A 
ATOM     14  C   UNL     1       8.234  -6.509   4.090  0.00  0.00    +0.046 A 
ATOM     15  S   UNL     1       6.699  -6.765   3.216  0.00  0.00    -0.097 S 
ENDBRANCH  10  11
ENDBRANCH   3   5
BRANCH   1  17
ATOM     16  N   UNL     1       1.593  -3.778   2.621  0.00  0.00    -0.297 N 
ATOM     17  C   UNL     1       2.566  -4.442   3.275  0.00  0.00    +0.300 C 
ATOM     18  O   UNL     1       3.421  -3.827   3.879  0.00  0.00    -0.265 OA
ATOM     19  H   UNL     1       0.910  -4.269   2.138  0.00  0.00    +0.150 HD
BRANCH  16  20
ATOM     20  C   UNL     1       1.567  -2.313   2.639  0.00  0.00    +0.156 C 
ATOM     21  C   UNL     1       0.846  -1.831   3.899  0.00  0.00    +0.038 C 
BRANCH  20  23
ATOM     22  N   UNL     1       0.690  -0.484   1.223  0.00  0.00    -0.314 N 
ATOM     23  C   UNL     1       0.839  -1.809   1.419  0.00  0.00    +0.233 C 
ATOM     24  O   UNL     1       0.386  -2.595   0.615  0.00  0.00    -0.274 OA
ATOM     25  H   UNL     1       1.052   0.145   1.867  0.00  0.00    +0.149 HD
BRANCH  22  27
ATOM     26  C   UNL     1      -0.045   1.536   0.056  0.00  0.00    +0.024 C 
ATOM     27  C   UNL     1      -0.018   0.006   0.038  0.00  0.00    +0.101 C 
ENDBRANCH  22  27
ENDBRANCH  20  23
ENDBRANCH  16  20
ENDBRANCH   1  17
TORSDOF 6
