REMARK  Name = ZINC05296252
REMARK  6 active torsions:
REMARK  status: ('A' for Active; 'I' for Inactive)
REMARK    1  A    between atoms: C_1  and  C_2
REMARK    2  A    between atoms: C_3  and  C_19
REMARK    3  A    between atoms: C_4  and  C_10
REMARK    4  A    between atoms: C_13  and  N_16
REMARK    5  A    between atoms: N_21  and  N_22
REMARK    6  A    between atoms: C_23  and  C_24
REMARK                            x       y       z     vdW  Elec       q    Type
REMARK                         _______ _______ _______ _____ _____    ______ ____
ROOT
ATOM      1  C   UNL     1       0.039   1.505   0.035  0.00  0.00    +0.061 C 
ATOM      2  C   UNL     1       0.050  -0.002   0.022  0.00  0.00    +0.017 C 
ATOM      3  C   UNL     1      -1.120  -0.674   0.005  0.00  0.00    +0.057 C 
ATOM      4  C   UNL     1      -1.063  -2.188  -0.007  0.00  0.00    +0.139 C 
ATOM      5  N   UNL     1       0.274  -2.806  -0.000  0.00  0.00    -0.315 N 
ATOM      6  C   UNL     1       1.353  -1.999   0.017  0.00  0.00    +0.135 C 
ATOM      7  S   UNL     1       2.913  -2.703   0.024  0.00  0.00    -0.019 S 
ATOM      8  N   UNL     1       1.244  -0.664   0.022  0.00  0.00    -0.300 N 
ATOM      9  H   UNL     1       0.375  -3.771  -0.007  0.00  0.00    +0.149 HD
ATOM     10  H   UNL     1       2.059  -0.139   0.030  0.00  0.00    +0.154 HD
ENDROOT
BRANCH   4  11
ATOM     11  C   UNL     1      -1.813  -2.691   1.200  0.00  0.00    -0.023 A 
ATOM     12  C   UNL     1      -1.246  -2.593   2.456  0.00  0.00    +0.008 A 
ATOM     13  C   UNL     1      -1.933  -3.054   3.563  0.00  0.00    +0.033 A 
ATOM     14  C   UNL     1      -3.188  -3.613   3.413  0.00  0.00    +0.126 A 
ATOM     15  C   UNL     1      -3.756  -3.711   2.157  0.00  0.00    +0.033 A 
ATOM     16  C   UNL     1      -3.070  -3.246   1.050  0.00  0.00    +0.008 A 
BRANCH  14  17
ATOM     17  N   UNL     1      -3.924  -4.108   4.599  0.00  0.00    +0.056 N 
ATOM     18  O   UNL     1      -3.428  -4.023   5.697  0.00  0.00    -0.126 OA
ATOM     19  O   UNL     1      -5.022  -4.597   4.468  0.00  0.00    -0.126 OA
ENDBRANCH  14  17
ENDBRANCH   4  11
BRANCH   3  20
ATOM     20  C   UNL     1      -2.359   0.013   0.000  0.00  0.00    +0.261 C 
ATOM     21  O   UNL     1      -2.971   0.155  -1.042  0.00  0.00    -0.269 OA
ATOM     22  N   UNL     1      -2.860   0.508   1.150  0.00  0.00    -0.226 N 
ATOM     23  H   UNL     1      -2.339   0.458   1.967  0.00  0.00    +0.175 HD
BRANCH  22  24
ATOM     24  N   UNL     1      -4.132   1.093   1.164  0.00  0.00    -0.311 N 
ATOM     25  C   UNL     1      -4.630   1.586   2.308  0.00  0.00    +0.110 C 
ATOM     26  H   UNL     1      -4.653   1.143   0.347  0.00  0.00    +0.184 HD
BRANCH  25  27
ATOM     27  C   UNL     1      -5.853   2.264   2.303  0.00  0.00    +0.039 A 
ATOM     28  C   UNL     1      -6.337   2.887   3.474  0.00  0.00    +0.013 A 
ATOM     29  C   UNL     1      -7.528   3.542   3.449  0.00  0.00    +0.001 A 
ATOM     30  C   UNL     1      -8.293   3.617   2.288  0.00  0.00    +0.004 A 
ATOM     31  C   UNL     1      -7.883   3.038   1.126  0.00  0.00    +0.051 A 
ATOM     32  C   UNL     1      -6.658   2.349   1.078  0.00  0.00    +0.187 A 
ATOM     33  O   UNL     1      -6.274   1.828   0.040  0.00  0.00    -0.287 OA
ENDBRANCH  25  27
ENDBRANCH  22  24
ENDBRANCH   3  20
TORSDOF 5
