REMARK  Name = ZINC41919127
REMARK  4 active torsions:
REMARK  status: ('A' for Active; 'I' for Inactive)
REMARK    1  A    between atoms: C_1  and  C_2
REMARK    2  A    between atoms: C_2  and  C_3
REMARK    3  A    between atoms: N_7  and  C_8
REMARK    4  A    between atoms: C_8  and  C_14
REMARK                            x       y       z     vdW  Elec       q    Type
REMARK                         _______ _______ _______ _____ _____    ______ ____
ROOT
ATOM      1  C   UNL     1      -1.481  -0.840  -2.926  0.00  0.00    +0.147 C 
ATOM      2  C   UNL     1      -2.307  -1.682  -1.953  0.00  0.00    +0.040 C 
ATOM      3  C   UNL     1      -1.806  -3.128  -1.976  0.00  0.00    +0.003 C 
ATOM      4  C   UNL     1      -1.950  -3.695  -3.390  0.00  0.00    +0.000 C 
ATOM      5  C   UNL     1      -1.123  -2.853  -4.363  0.00  0.00    +0.003 C 
ATOM      6  C   UNL     1      -1.624  -1.407  -4.340  0.00  0.00    +0.040 C 
ENDROOT
BRANCH   1  11
ATOM      7  C   UNL     1       0.968  -0.348  -3.210  0.00  0.00    +0.088 A 
ATOM      8  N   UNL     1       2.065  -0.572  -2.539  0.00  0.00    -0.350 N 
ATOM      9  C   UNL     1       1.769  -1.248  -1.419  0.00  0.00    +0.101 A 
ATOM     10  C   UNL     1       0.438  -1.450  -1.394  0.00  0.00    +0.106 A 
ATOM     11  N   UNL     1      -0.071  -0.875  -2.527  0.00  0.00    -0.319 N 
ATOM     12  H   UNL     1       2.954  -0.294  -2.809  0.00  0.00    +0.166 HD
BRANCH   7  14
ATOM     13  C   UNL     1       1.223  -0.575  -5.666  0.00  0.00    +0.012 C 
ATOM     14  C   UNL     1       0.875   0.383  -4.524  0.00  0.00    +0.069 C 
ENDBRANCH   7  14
ENDBRANCH   1  11
BRANCH   1  15
ATOM     15  C   UNL     1      -1.974   0.584  -2.904  0.00  0.00    +0.381 C 
ATOM     16  O   UNL     1      -1.252   1.472  -2.485  0.00  0.00    -0.244 OA
ATOM     17  O   UNL     1      -3.095   0.847  -3.304  0.00  0.00    -0.244 OA
ENDBRANCH   1  15
TORSDOF 3
