REMARK  Name = ZINC21660736
REMARK  3 active torsions:
REMARK  status: ('A' for Active; 'I' for Inactive)
REMARK    1  A    between atoms: C_1  and  C_2
REMARK    2  A    between atoms: C_21  and  C_23
REMARK    3  A    between atoms: C_26  and  C_29
REMARK                            x       y       z     vdW  Elec       q    Type
REMARK                         _______ _______ _______ _____ _____    ______ ____
ROOT
ATOM      1  C   UNL     1      -1.250   2.249   0.021  0.00  0.00    +0.068 C 
ATOM      2  C   UNL     1      -0.017   1.384   0.010  0.00  0.00    +0.066 A 
ATOM      3  C   UNL     1       0.002  -0.004   0.002  0.00  0.00    +0.023 A 
ATOM      4  C   UNL     1       1.310  -0.409  -0.016  0.00  0.00    +0.136 A 
ATOM      5  N   UNL     1       2.080   0.701  -0.012  0.00  0.00    -0.185 N 
ATOM      6  N   UNL     1       1.223   1.813   0.000  0.00  0.00    -0.167 NA
ATOM      7  C   UNL     1       3.470   0.735  -0.019  0.00  0.00    +0.232 A 
ATOM      8  N   UNL     1       4.225   1.871  -0.020  0.00  0.00    -0.322 N 
ATOM      9  H   UNL     1       3.737   2.857  -0.018  0.00  0.00    +0.169 HD
ATOM     10  C   UNL     1       5.553   1.482  -0.024  0.00  0.00    +0.068 A 
ATOM     11  C   UNL     1       6.758   2.169  -0.025  0.00  0.00    +0.028 A 
ATOM     12  C   UNL     1       7.946   1.470  -0.037  0.00  0.00    +0.002 A 
ATOM     13  C   UNL     1       7.946   0.082  -0.048  0.00  0.00    +0.002 A 
ATOM     14  C   UNL     1       6.760  -0.616  -0.048  0.00  0.00    +0.030 A 
ATOM     15  C   UNL     1       5.546   0.077  -0.035  0.00  0.00    +0.091 A 
ATOM     16  N   UNL     1       4.247  -0.317  -0.032  0.00  0.00    -0.211 NA
ATOM     17  N   UNL     1       1.664  -1.757  -0.040  0.00  0.00    -0.270 N 
ATOM     18  C   UNL     1       0.690  -2.666  -0.253  0.00  0.00    +0.219 C 
ATOM     19  O   UNL     1       0.938  -3.842  -0.092  0.00  0.00    -0.275 OA
ATOM     20  C   UNL     1      -0.693  -2.267  -0.685  0.00  0.00    +0.109 C 
ATOM     21  C   UNL     1      -1.145  -0.982   0.017  0.00  0.00    +0.063 C 
ATOM     22  H   UNL     1       2.713  -2.052   0.112  0.00  0.00    +0.156 HD
ENDROOT
BRANCH  21  23
ATOM     23  C   UNL     1      -1.531  -1.290   1.441  0.00  0.00    -0.039 A 
ATOM     24  C   UNL     1      -0.608  -1.857   2.300  0.00  0.00    +0.005 A 
ATOM     25  C   UNL     1      -0.960  -2.136   3.607  0.00  0.00    +0.012 A 
ATOM     26  C   UNL     1      -2.238  -1.857   4.053  0.00  0.00    +0.055 A 
ATOM     27  C   UNL     1      -3.163  -1.294   3.193  0.00  0.00    +0.012 A 
ATOM     28  C   UNL     1      -2.809  -1.012   1.887  0.00  0.00    +0.005 A 
BRANCH  26  29
ATOM     29  C   UNL     1      -2.624  -2.166   5.477  0.00  0.00    +0.417 C 
ATOM     30  F   UNL     1      -3.134  -3.466   5.550  0.00  0.00    -0.166 F 
ATOM     31  F   UNL     1      -1.496  -2.060   6.299  0.00  0.00    -0.166 F 
ATOM     32  F   UNL     1      -3.598  -1.257   5.904  0.00  0.00    -0.166 F 
ENDBRANCH  26  29
ENDBRANCH  21  23
TORSDOF 2
