REMARK  Name = ZINC44707842
REMARK  11 active torsions:
REMARK  status: ('A' for Active; 'I' for Inactive)
REMARK    1  A    between atoms: C_1  and  C_2
REMARK    2  A    between atoms: C_8  and  C_12
REMARK    3  A    between atoms: C_12  and  C_13
REMARK    4  A    between atoms: C_13  and  N_14
REMARK    5  A    between atoms: C_15  and  C_17
REMARK    6  A    between atoms: C_28  and  C_30
REMARK    7  A    between atoms: C_32  and  C_39
REMARK    8  A    between atoms: N_34  and  C_35
REMARK    9  A    between atoms: C_35  and  C_36
REMARK   10  A    between atoms: C_35  and  C_37
REMARK   11  A    between atoms: C_35  and  C_38
REMARK                            x       y       z     vdW  Elec       q    Type
REMARK                         _______ _______ _______ _____ _____    ______ ____
ROOT
ATOM      1  C   UNL     1      -2.978  -2.002   7.507  0.00  0.00    +0.100 C 
ATOM      2  C   UNL     1      -2.157  -0.744   7.866  0.00  0.00    +0.121 C 
ATOM      3  N   UNL     1      -3.171   0.312   8.097  0.00  0.00    -0.295 N 
ATOM      4  C   UNL     1      -4.269  -0.382   8.813  0.00  0.00    +0.115 C 
ATOM      5  C   UNL     1      -4.362  -1.762   8.133  0.00  0.00    -0.004 C 
ATOM      6  C   UNL     1      -5.436  -1.744   7.050  0.00  0.00    -0.010 C 
ATOM      7  C   UNL     1      -6.810  -1.561   7.702  0.00  0.00    -0.082 C 
ATOM      8  N   UNL     1      -7.056  -2.659   8.645  0.00  0.00    +0.379 N 
ATOM      9  C   UNL     1      -6.073  -2.613   9.734  0.00  0.00    -0.082 C 
ATOM     10  C   UNL     1      -4.669  -2.841   9.168  0.00  0.00    -0.010 C 
ATOM     11  C   UNL     1      -3.110   1.610   7.738  0.00  0.00    +0.265 C 
ATOM     12  O   UNL     1      -4.035   2.356   7.994  0.00  0.00    -0.268 OA
ATOM     13  H   UNL     1      -7.985  -2.570   9.027  0.00  0.00    -0.086 HD
ATOM     14  H   UNL     1      -6.978  -3.540   8.160  0.00  0.00    -0.086 HD
ENDROOT
BRANCH  11  15
ATOM     15  C   UNL     1      -1.922   2.124   7.037  0.00  0.00    +0.124 A 
ATOM     16  C   UNL     1      -0.714   1.472   6.862  0.00  0.00    +0.057 A 
ATOM     17  C   UNL     1       0.086   2.361   6.142  0.00  0.00    +0.061 A 
ATOM     18  N   UNL     1      -0.616   3.444   5.921  0.00  0.00    -0.175 NA
ATOM     19  N   UNL     1      -1.793   3.337   6.424  0.00  0.00    -0.254 N 
ATOM     20  C   UNL     1       1.505   2.119   5.697  0.00  0.00    +0.067 C 
BRANCH  19  21
ATOM     21  C   UNL     1      -2.837   4.363   6.354  0.00  0.00    +0.056 C 
ATOM     22  C   UNL     1      -3.160   4.859   7.765  0.00  0.00    +0.036 C 
ATOM     23  C   UNL     1      -2.345   5.534   5.502  0.00  0.00    +0.036 C 
ATOM     24  C   UNL     1      -4.097   3.766   5.723  0.00  0.00    +0.036 C 
ENDBRANCH  19  21
ENDBRANCH  11  15
BRANCH   1  26
ATOM     25  N   UNL     1      -3.392  -3.340   5.468  0.00  0.00    -0.315 N 
ATOM     26  C   UNL     1      -3.096  -2.143   6.011  0.00  0.00    +0.218 C 
ATOM     27  O   UNL     1      -2.925  -1.178   5.296  0.00  0.00    -0.275 OA
ATOM     28  H   UNL     1      -3.457  -4.126   6.033  0.00  0.00    +0.149 HD
BRANCH  25  29
ATOM     29  C   UNL     1      -3.614  -3.455   4.025  0.00  0.00    +0.109 C 
BRANCH  29  30
ATOM     30  C   UNL     1      -3.930  -4.910   3.672  0.00  0.00    +0.056 C 
BRANCH  30  38
ATOM     31  C   UNL     1       0.452  -5.595   0.048  0.00  0.00    +0.044 C 
ATOM     32  C   UNL     1      -1.050  -5.478   0.018  0.00  0.00    -0.050 A 
ATOM     33  C   UNL     1      -1.721  -5.536  -1.196  0.00  0.00    +0.005 A 
ATOM     34  C   UNL     1      -3.094  -5.431  -1.246  0.00  0.00    +0.026 A 
ATOM     35  C   UNL     1      -3.817  -5.264  -0.069  0.00  0.00    +0.047 A 
ATOM     36  C   UNL     1      -3.132  -5.206   1.158  0.00  0.00    +0.003 A 
ATOM     37  C   UNL     1      -1.741  -5.320   1.186  0.00  0.00    +0.013 A 
ATOM     38  C   UNL     1      -4.160  -5.028   2.187  0.00  0.00    -0.021 A 
ATOM     39  C   UNL     1      -5.344  -4.992   1.556  0.00  0.00    +0.087 A 
ATOM     40  N   UNL     1      -5.159  -5.131   0.208  0.00  0.00    -0.360 N 
ATOM     41  H   UNL     1      -5.868  -5.135  -0.454  0.00  0.00    +0.165 HD
ENDBRANCH  30  38
ENDBRANCH  29  30
ENDBRANCH  25  29
ENDBRANCH   1  26
TORSDOF 6
