REMARK  Name = ZINC66177674
REMARK  8 active torsions:
REMARK  status: ('A' for Active; 'I' for Inactive)
REMARK    1  A    between atoms: C_1  and  C_2
REMARK    2  A    between atoms: C_6  and  C_28
REMARK    3  A    between atoms: C_8  and  N_11
REMARK    4  A    between atoms: N_14  and  C_15
REMARK    5  A    between atoms: N_14  and  C_16
REMARK    6  A    between atoms: N_19  and  C_22
REMARK    7  A    between atoms: C_28  and  C_29
REMARK    8  A    between atoms: C_28  and  C_30
REMARK                            x       y       z     vdW  Elec       q    Type
REMARK                         _______ _______ _______ _____ _____    ______ ____
ROOT
ATOM      1  N   UNL     1       2.763  -0.519   2.499  0.00  0.00    -0.296 N 
ATOM      2  C   UNL     1       2.509   0.086   3.676  0.00  0.00    +0.302 C 
ATOM      3  O   UNL     1       1.776   1.055   3.716  0.00  0.00    -0.253 OA
ATOM      4  N   UNL     1       3.069  -0.382   4.809  0.00  0.00    -0.286 N 
ATOM      5  C   UNL     1       3.953  -1.549   4.761  0.00  0.00    +0.134 C 
ATOM      6  H   UNL     1       3.348  -1.292   2.467  0.00  0.00    +0.151 HD
ENDROOT
BRANCH   1  12
ATOM      7  C   UNL     1       0.055   1.507  -0.102  0.00  0.00    +0.007 C 
ATOM      8  C   UNL     1       0.095  -0.022  -0.147  0.00  0.00    -0.012 C 
ATOM      9  C   UNL     1       0.924  -0.474  -1.351  0.00  0.00    +0.004 C 
ATOM     10  C   UNL     1       2.348   0.070  -1.222  0.00  0.00    +0.006 C 
ATOM     11  C   UNL     1       2.984  -0.462   0.064  0.00  0.00    +0.012 C 
ATOM     12  C   UNL     1       2.155  -0.009   1.267  0.00  0.00    +0.078 C 
ATOM     13  C   UNL     1       0.730  -0.554   1.139  0.00  0.00    +0.026 C 
BRANCH  11  14
ATOM     14  C   UNL     1       4.408   0.082   0.192  0.00  0.00    -0.012 C 
ATOM     15  C   UNL     1       5.276  -0.490  -0.931  0.00  0.00    +0.007 C 
ATOM     16  C   UNL     1       4.382   1.608   0.089  0.00  0.00    +0.007 C 
ENDBRANCH  11  14
ENDBRANCH   1  12
BRANCH   4  17
ATOM     17  C   UNL     1       2.793   0.276   6.089  0.00  0.00    +0.074 C 
ATOM     18  C   UNL     1       4.106   0.772   6.703  0.00  0.00    +0.004 C 
ATOM     19  C   UNL     1       3.820   1.387   8.075  0.00  0.00    -0.077 C 
ATOM     20  N   UNL     1       3.219   0.376   8.952  0.00  0.00    +0.382 N 
ATOM     21  C   UNL     1       1.926  -0.052   8.406  0.00  0.00    -0.077 C 
ATOM     22  C   UNL     1       2.138  -0.723   7.047  0.00  0.00    +0.004 C 
ATOM     23  H   UNL     1       3.836  -0.420   9.018  0.00  0.00    -0.081 HD
BRANCH  20  24
ATOM     24  C   UNL     1       3.019   0.948  10.290  0.00  0.00    -0.064 C 
ATOM     25  C   UNL     1       4.370   1.377  10.872  0.00  0.00    +0.013 C 
ATOM     26  C   UNL     1       4.161   1.899  12.296  0.00  0.00    +0.158 C 
ATOM     27  O   UNL     1       3.546   0.882  13.089  0.00  0.00    -0.380 OA
ATOM     28  C   UNL     1       2.260   0.474  12.620  0.00  0.00    +0.158 C 
ATOM     29  C   UNL     1       2.392  -0.105  11.209  0.00  0.00    +0.013 C 
ENDBRANCH  20  24
ENDBRANCH   4  17
TORSDOF 4
