REMARK  Name = ZINC50036156
REMARK  7 active torsions:
REMARK  status: ('A' for Active; 'I' for Inactive)
REMARK    1  A    between atoms: C_1  and  O_2
REMARK    2  A    between atoms: O_2  and  C_3
REMARK    3  A    between atoms: C_3  and  C_5
REMARK    4  A    between atoms: C_7  and  S_13
REMARK    5  A    between atoms: C_10  and  N_11
REMARK    6  A    between atoms: S_13  and  C_14
REMARK    7  A    between atoms: C_20  and  N_22
REMARK                            x       y       z     vdW  Elec       q    Type
REMARK                         _______ _______ _______ _____ _____    ______ ____
ROOT
ATOM      1  C   UNL     1      -1.238  -2.100   0.066  0.00  0.00    +0.081 A 
ATOM      2  C   UNL     1      -0.061  -2.853  -0.021  0.00  0.00    +0.034 A 
ATOM      3  C   UNL     1      -0.132  -4.227  -0.153  0.00  0.00    +0.052 A 
ATOM      4  C   UNL     1      -1.371  -4.864  -0.201  0.00  0.00    +0.139 A 
ATOM      5  C   UNL     1      -2.538  -4.129  -0.116  0.00  0.00    +0.063 A 
ATOM      6  C   UNL     1      -2.483  -2.748   0.023  0.00  0.00    +0.041 A 
ATOM      7  F   UNL     1      -1.432  -6.208  -0.331  0.00  0.00    -0.204 F 
ENDROOT
BRANCH   6   8
ATOM      8  N   UNL     1      -3.657  -2.009   0.114  0.00  0.00    -0.357 N 
ATOM      9  H   UNL     1      -3.620  -1.040   0.122  0.00  0.00    +0.142 HD
ATOM     10  H   UNL     1      -4.512  -2.463   0.171  0.00  0.00    +0.142 HD
ENDBRANCH   6   8
BRANCH   1  11
ATOM     11  C   UNL     1      -1.170  -0.637   0.207  0.00  0.00    +0.341 C 
ATOM     12  O   UNL     1      -2.189   0.025   0.172  0.00  0.00    -0.245 OA
BRANCH  11  14
ATOM     13  C   UNL     1       0.013   1.393   0.506  0.00  0.00    +0.280 C 
ATOM     14  O   UNL     1       0.021  -0.030   0.376  0.00  0.00    -0.464 OA
ENDBRANCH  11  14
ENDBRANCH   1  11
BRANCH   3  15
ATOM     15  S   UNL     1       1.349  -5.176  -0.263  0.00  0.00    -0.049 S 
BRANCH  15  16
ATOM     16  C   UNL     1       1.500  -5.915   1.329  0.00  0.00    +0.176 A 
ATOM     17  N   UNL     1       2.504  -6.808   1.558  0.00  0.00    -0.302 N 
ATOM     18  H   UNL     1       3.126  -7.029   0.848  0.00  0.00    +0.171 HD
ATOM     19  C   UNL     1       2.634  -7.384   2.772  0.00  0.00    +0.254 A 
ATOM     20  O   UNL     1       3.531  -8.184   2.986  0.00  0.00    -0.268 OA
ATOM     21  C   UNL     1       1.725  -7.048   3.780  0.00  0.00    +0.113 A 
ATOM     22  C   UNL     1       0.721  -6.133   3.496  0.00  0.00    +0.124 A 
ATOM     23  N   UNL     1       0.643  -5.590   2.276  0.00  0.00    -0.208 NA
BRANCH  22  24
ATOM     24  N   UNL     1      -0.192  -5.782   4.470  0.00  0.00    -0.343 N 
ATOM     25  H   UNL     1      -0.132  -6.174   5.355  0.00  0.00    +0.144 HD
ATOM     26  H   UNL     1      -0.893  -5.142   4.269  0.00  0.00    +0.144 HD
ENDBRANCH  22  24
ENDBRANCH  15  16
ENDBRANCH   3  15
TORSDOF 6
