REMARK  Name = ZINC40842963
REMARK  8 active torsions:
REMARK  status: ('A' for Active; 'I' for Inactive)
REMARK    1  A    between atoms: C_1  and  C_2
REMARK    2  A    between atoms: C_2  and  C_4
REMARK    3  A    between atoms: C_2  and  C_30
REMARK    4  A    between atoms: C_4  and  N_5
REMARK    5  A    between atoms: C_6  and  C_8
REMARK    6  A    between atoms: C_8  and  C_9
REMARK    7  A    between atoms: C_9  and  N_10
REMARK    8  A    between atoms: C_23  and  C_24
REMARK                            x       y       z     vdW  Elec       q    Type
REMARK                         _______ _______ _______ _____ _____    ______ ____
ROOT
ATOM      1  N   UNL     1      -8.000  -1.646  -4.102  0.00  0.00    -0.303 N 
ATOM      2  C   UNL     1      -8.982  -0.661  -4.194  0.00  0.00    +0.069 A 
ATOM      3  C   UNL     1      -9.884  -0.486  -3.151  0.00  0.00    +0.028 A 
ATOM      4  C   UNL     1     -10.858   0.487  -3.235  0.00  0.00    +0.002 A 
ATOM      5  C   UNL     1     -10.943   1.294  -4.357  0.00  0.00    +0.002 A 
ATOM      6  C   UNL     1     -10.052   1.131  -5.399  0.00  0.00    +0.028 A 
ATOM      7  C   UNL     1      -9.067   0.154  -5.325  0.00  0.00    +0.074 A 
ATOM      8  N   UNL     1      -8.168  -0.012  -6.375  0.00  0.00    -0.269 N 
ATOM      9  C   UNL     1      -7.195  -0.978  -6.301  0.00  0.00    +0.227 A 
ATOM     10  C   UNL     1      -7.114  -1.825  -5.103  0.00  0.00    +0.297 A 
ATOM     11  O   UNL     1      -6.255  -2.683  -5.016  0.00  0.00    -0.264 OA
ATOM     12  N   UNL     1      -6.498  -0.913  -7.415  0.00  0.00    -0.123 NA
ATOM     13  N   UNL     1      -6.968   0.019  -8.167  0.00  0.00    -0.128 NA
ATOM     14  C   UNL     1      -7.995   0.603  -7.575  0.00  0.00    +0.169 A 
ENDROOT
BRANCH  14  15
ATOM     15  C   UNL     1      -8.803   1.716  -8.115  0.00  0.00    +0.020 A 
ATOM     16  C   UNL     1      -8.929   2.905  -7.395  0.00  0.00    +0.011 A 
ATOM     17  C   UNL     1      -9.685   3.940  -7.905  0.00  0.00    +0.001 A 
ATOM     18  C   UNL     1     -10.319   3.801  -9.127  0.00  0.00    +0.000 A 
ATOM     19  C   UNL     1     -10.198   2.625  -9.846  0.00  0.00    +0.001 A 
ATOM     20  C   UNL     1      -9.440   1.585  -9.351  0.00  0.00    +0.011 A 
ENDBRANCH  14  15
BRANCH   1  21
ATOM     21  C   UNL     1      -7.927  -2.489  -2.907  0.00  0.00    +0.135 C 
BRANCH  21  22
ATOM     22  C   UNL     1      -7.011  -1.830  -1.873  0.00  0.00    +0.117 C 
BRANCH  22  24
ATOM     23  N   UNL     1      -6.182  -2.315   0.406  0.00  0.00    -0.315 N 
ATOM     24  C   UNL     1      -6.936  -2.698  -0.643  0.00  0.00    +0.215 C 
ATOM     25  O   UNL     1      -7.553  -3.741  -0.598  0.00  0.00    -0.276 OA
ATOM     26  H   UNL     1      -5.689  -1.481   0.370  0.00  0.00    +0.149 HD
BRANCH  23  27
ATOM     27  C   UNL     1      -6.109  -3.158   1.602  0.00  0.00    +0.112 C 
BRANCH  27  29
ATOM     28  C   UNL     1      -5.819  -1.184   3.106  0.00  0.00    +0.014 C 
ATOM     29  C   UNL     1      -5.194  -2.499   2.636  0.00  0.00    +0.033 C 
BRANCH  29  30
ATOM     30  C   UNL     1      -5.020  -3.423   3.814  0.00  0.00    -0.043 A 
ATOM     31  C   UNL     1      -6.122  -3.825   4.545  0.00  0.00    +0.004 A 
ATOM     32  C   UNL     1      -5.963  -4.672   5.626  0.00  0.00    +0.000 A 
ATOM     33  C   UNL     1      -4.702  -5.117   5.976  0.00  0.00    +0.000 A 
ATOM     34  C   UNL     1      -3.600  -4.715   5.244  0.00  0.00    +0.000 A 
ATOM     35  C   UNL     1      -3.760  -3.872   4.161  0.00  0.00    +0.004 A 
ENDBRANCH  29  30
ENDBRANCH  27  29
ENDBRANCH  23  27
ENDBRANCH  22  24
ENDBRANCH  21  22
ENDBRANCH   1  21
TORSDOF 7
