REMARK  Name = ZINC35483246
REMARK  17 active torsions:
REMARK  status: ('A' for Active; 'I' for Inactive)
REMARK    1  A    between atoms: C_1  and  C_2
REMARK    2  A    between atoms: C_2  and  N_3
REMARK    3  A    between atoms: N_3  and  C_4
REMARK    4  A    between atoms: N_3  and  C_6
REMARK    5  A    between atoms: C_4  and  C_5
REMARK    6  A    between atoms: C_6  and  C_7
REMARK    7  A    between atoms: C_7  and  N_8
REMARK    8  A    between atoms: C_9  and  C_24
REMARK    9  A    between atoms: C_27  and  O_33
REMARK   10  A    between atoms: C_28  and  O_30
REMARK   11  A    between atoms: O_30  and  C_31
REMARK   12  A    between atoms: C_31  and  C_32
REMARK   13  A    between atoms: O_33  and  C_34
REMARK   14  A    between atoms: C_34  and  C_35
REMARK   15  A    between atoms: C_35  and  C_36
REMARK   16  A    between atoms: C_36  and  C_37
REMARK   17  A    between atoms: C_36  and  C_38
REMARK                            x       y       z     vdW  Elec       q    Type
REMARK                         _______ _______ _______ _____ _____    ______ ____
ROOT
ATOM      1  N   UNL     1       2.011  -3.380  -2.845  0.00  0.00    -0.285 N 
ATOM      2  C   UNL     1       3.002  -4.263  -2.210  0.00  0.00    +0.145 C 
ATOM      3  C   UNL     1       2.693  -5.640  -2.699  0.00  0.00    +0.072 A 
ATOM      4  C   UNL     1       3.337  -6.930  -2.425  0.00  0.00    +0.199 A 
ATOM      5  O   UNL     1       4.182  -7.083  -1.562  0.00  0.00    -0.287 OA
ATOM      6  C   UNL     1       2.859  -8.030  -3.300  0.00  0.00    +0.064 A 
ATOM      7  C   UNL     1       3.508  -9.264  -3.302  0.00  0.00    +0.015 A 
ATOM      8  C   UNL     1       3.059 -10.265  -4.117  0.00  0.00    +0.001 A 
ATOM      9  C   UNL     1       1.962 -10.056  -4.941  0.00  0.00    +0.004 A 
ATOM     10  C   UNL     1       1.307  -8.845  -4.950  0.00  0.00    +0.047 A 
ATOM     11  C   UNL     1       1.745  -7.808  -4.126  0.00  0.00    +0.139 A 
ATOM     12  O   UNL     1       1.081  -6.630  -4.144  0.00  0.00    -0.450 OA
ATOM     13  C   UNL     1       1.618  -5.553  -3.536  0.00  0.00    +0.199 A 
ATOM     14  C   UNL     1       1.205  -4.141  -3.614  0.00  0.00    +0.283 C 
ATOM     15  O   UNL     1       0.275  -3.723  -4.274  0.00  0.00    -0.267 OA
ENDROOT
BRANCH   2  16
ATOM     16  C   UNL     1       2.868  -4.201  -0.710  0.00  0.00    -0.019 A 
ATOM     17  C   UNL     1       1.613  -4.158  -0.131  0.00  0.00    +0.009 A 
ATOM     18  C   UNL     1       1.484  -4.101   1.244  0.00  0.00    +0.050 A 
ATOM     19  C   UNL     1       2.615  -4.086   2.046  0.00  0.00    +0.162 A 
ATOM     20  C   UNL     1       3.877  -4.129   1.463  0.00  0.00    +0.162 A 
ATOM     21  C   UNL     1       3.999  -4.192   0.084  0.00  0.00    +0.055 A 
BRANCH  20  22
ATOM     22  O   UNL     1       4.990  -4.115   2.245  0.00  0.00    -0.489 OA
BRANCH  22  23
ATOM     23  C   UNL     1       6.253  -4.162   1.578  0.00  0.00    +0.226 C 
ATOM     24  C   UNL     1       7.378  -4.137   2.615  0.00  0.00    +0.048 C 
ENDBRANCH  22  23
ENDBRANCH  20  22
BRANCH  19  25
ATOM     25  O   UNL     1       2.490  -4.029   3.399  0.00  0.00    -0.488 OA
BRANCH  25  26
ATOM     26  C   UNL     1       1.163  -3.987   3.927  0.00  0.00    +0.229 C 
BRANCH  26  27
ATOM     27  C   UNL     1       1.223  -3.926   5.454  0.00  0.00    +0.044 C 
BRANCH  27  28
ATOM     28  C   UNL     1      -0.198  -3.881   6.020  0.00  0.00    -0.014 C 
ATOM     29  C   UNL     1      -0.918  -5.191   5.695  0.00  0.00    +0.007 C 
ATOM     30  C   UNL     1      -0.137  -3.694   7.537  0.00  0.00    +0.007 C 
ENDBRANCH  27  28
ENDBRANCH  26  27
ENDBRANCH  25  26
ENDBRANCH  19  25
ENDBRANCH   2  16
BRANCH   1  31
ATOM     31  C   UNL     1       1.913  -1.929  -2.670  0.00  0.00    +0.090 C 
BRANCH  31  32
ATOM     32  C   UNL     1       0.994  -1.619  -1.487  0.00  0.00    -0.060 C 
BRANCH  32  33
ATOM     33  N   UNL     1       0.788  -0.168  -1.393  0.00  0.00    +0.380 N 
ATOM     34  H   UNL     1       1.683   0.297  -1.351  0.00  0.00    -0.082 HD
BRANCH  33  36
ATOM     35  C   UNL     1      -0.056   1.826  -2.538  0.00  0.00    -0.017 C 
ATOM     36  C   UNL     1       0.050   0.300  -2.574  0.00  0.00    -0.082 C 
ENDBRANCH  33  36
BRANCH  33  37
ATOM     37  C   UNL     1       0.019   0.141  -0.180  0.00  0.00    -0.082 C 
ATOM     38  C   UNL     1       0.851  -0.210   1.055  0.00  0.00    -0.017 C 
ENDBRANCH  33  37
ENDBRANCH  32  33
ENDBRANCH  31  32
ENDBRANCH   1  31
TORSDOF 12
