REMARK  Name = ZINC02108837
REMARK  11 active torsions:
REMARK  status: ('A' for Active; 'I' for Inactive)
REMARK    1  A    between atoms: C_1  and  C_2
REMARK    2  A    between atoms: C_2  and  C_3
REMARK    3  A    between atoms: C_3  and  C_4
REMARK    4  A    between atoms: C_4  and  C_5
REMARK    5  A    between atoms: C_5  and  C_6
REMARK    6  A    between atoms: C_6  and  C_8
REMARK    7  A    between atoms: C_6  and  N_10
REMARK    8  A    between atoms: C_8  and  C_9
REMARK    9  A    between atoms: C_11  and  C_13
REMARK   10  A    between atoms: C_18  and  N_19
REMARK   11  A    between atoms: C_22  and  C_38
REMARK                            x       y       z     vdW  Elec       q    Type
REMARK                         _______ _______ _______ _____ _____    ______ ____
ROOT
ATOM      1  N   UNL     1      -5.171   2.843   3.445  0.00  0.00    -0.191 N 
ATOM      2  C   UNL     1      -4.740   2.955   4.721  0.00  0.00    +0.257 C 
ATOM      3  O   UNL     1      -4.441   2.055   5.476  0.00  0.00    -0.272 OA
ATOM      4  C   UNL     1      -4.709   4.437   5.009  0.00  0.00    +0.153 C 
ATOM      5  C   UNL     1      -3.333   4.893   5.431  0.00  0.00    +0.053 A 
ATOM      6  C   UNL     1      -2.657   5.877   4.795  0.00  0.00    -0.015 A 
ATOM      7  C   UNL     1      -1.396   6.034   5.499  0.00  0.00    +0.003 A 
ATOM      8  C   UNL     1      -0.309   6.891   5.305  0.00  0.00    +0.010 A 
ATOM      9  C   UNL     1       0.744   6.763   6.178  0.00  0.00    +0.001 A 
ATOM     10  C   UNL     1       0.740   5.833   7.204  0.00  0.00    +0.002 A 
ATOM     11  C   UNL     1      -0.323   4.973   7.419  0.00  0.00    +0.026 A 
ATOM     12  C   UNL     1      -1.406   5.080   6.548  0.00  0.00    +0.047 A 
ATOM     13  N   UNL     1      -2.591   4.407   6.473  0.00  0.00    -0.356 N 
ATOM     14  H   UNL     1      -2.865   3.692   7.068  0.00  0.00    +0.166 HD
ATOM     15  C   UNL     1      -3.127   6.650   3.590  0.00  0.00    +0.056 C 
ATOM     16  C   UNL     1      -4.633   6.437   3.374  0.00  0.00    +0.115 C 
ATOM     17  N   UNL     1      -4.930   5.034   3.670  0.00  0.00    -0.265 N 
ATOM     18  C   UNL     1      -5.330   4.046   2.870  0.00  0.00    +0.317 C 
ATOM     19  O   UNL     1      -5.786   4.214   1.756  0.00  0.00    -0.252 OA
ATOM     20  C   UNL     1      -5.781   4.846   6.021  0.00  0.00    +0.048 C 
ENDROOT
BRANCH   1  26
ATOM     21  C   UNL     1      -4.389   0.988   2.093  0.00  0.00    +0.059 A 
ATOM     22  C   UNL     1      -4.647  -0.225   1.450  0.00  0.00    +0.015 A 
ATOM     23  C   UNL     1      -5.902  -0.789   1.525  0.00  0.00    +0.001 A 
ATOM     24  C   UNL     1      -6.913  -0.154   2.227  0.00  0.00    +0.002 A 
ATOM     25  C   UNL     1      -6.674   1.047   2.864  0.00  0.00    +0.025 A 
ATOM     26  C   UNL     1      -5.415   1.628   2.803  0.00  0.00    +0.058 A 
BRANCH  21  28
ATOM     27  N   UNL     1      -2.062   0.977   1.338  0.00  0.00    -0.308 N 
ATOM     28  C   UNL     1      -3.046   1.595   2.021  0.00  0.00    +0.246 C 
ATOM     29  O   UNL     1      -2.826   2.653   2.579  0.00  0.00    -0.270 OA
ATOM     30  H   UNL     1      -2.237   0.133   0.893  0.00  0.00    +0.149 HD
BRANCH  27  31
ATOM     31  C   UNL     1      -0.729   1.579   1.267  0.00  0.00    +0.073 C 
BRANCH  31  32
ATOM     32  C   UNL     1       0.079   1.179   2.503  0.00  0.00    +0.019 C 
ATOM     33  C   UNL     1      -0.570   1.778   3.752  0.00  0.00    +0.006 C 
ENDBRANCH  31  32
BRANCH  31  34
ATOM     34  C   UNL     1      -0.013   1.086   0.008  0.00  0.00    +0.022 C 
BRANCH  34  35
ATOM     35  C   UNL     1      -0.753   1.593  -1.232  0.00  0.00    +0.002 C 
BRANCH  35  36
ATOM     36  C   UNL     1      -0.037   1.099  -2.490  0.00  0.00    -0.000 C 
BRANCH  36  38
ATOM     37  C   UNL     1      -0.060   1.113  -4.989  0.00  0.00    +0.004 C 
ATOM     38  C   UNL     1      -0.777   1.606  -3.730  0.00  0.00    -0.003 C 
ENDBRANCH  36  38
ENDBRANCH  35  36
ENDBRANCH  34  35
ENDBRANCH  31  34
ENDBRANCH  27  31
ENDBRANCH  21  28
ENDBRANCH   1  26
TORSDOF 8
