REMARK  Name = ZINC39983776
REMARK  14 active torsions:
REMARK  status: ('A' for Active; 'I' for Inactive)
REMARK    1  A    between atoms: C_1  and  C_2
REMARK    2  A    between atoms: C_3  and  C_32
REMARK    3  A    between atoms: C_4  and  C_31
REMARK    4  A    between atoms: C_7  and  C_8
REMARK    5  A    between atoms: C_8  and  C_10
REMARK    6  A    between atoms: C_10  and  C_12
REMARK    7  A    between atoms: C_10  and  O_13
REMARK    8  A    between atoms: O_13  and  C_14
REMARK    9  A    between atoms: C_14  and  C_16
REMARK   10  A    between atoms: C_16  and  C_18
REMARK   11  A    between atoms: C_16  and  N_19
REMARK   12  A    between atoms: N_19  and  S_20
REMARK   13  A    between atoms: S_20  and  C_23
REMARK   14  A    between atoms: C_32  and  C_34
REMARK                            x       y       z     vdW  Elec       q    Type
REMARK                         _______ _______ _______ _____ _____    ______ ____
ROOT
ATOM      1  C   UNL     1       0.329  -2.332   5.681  0.00  0.00    +0.326 C 
ATOM      2  O   UNL     1       0.727  -3.414   5.317  0.00  0.00    -0.249 OA
ENDROOT
BRANCH   1   3
ATOM      3  C   UNL     1       0.503  -1.910   7.118  0.00  0.00    +0.182 C 
ATOM      4  C   UNL     1      -0.868  -1.641   7.740  0.00  0.00    +0.037 C 
BRANCH   3   5
ATOM      5  N   UNL     1       1.177  -2.977   7.862  0.00  0.00    -0.176 NA
ATOM      6  H   UNL     1       1.000  -3.906   7.646  0.00  0.00    +0.149 HD
BRANCH   5   7
ATOM      7  S   UNL     1       2.240  -2.598   9.073  0.00  0.00    +0.059 S 
ATOM      8  O   UNL     1       2.699  -3.830   9.612  0.00  0.00    -0.153 OA
ATOM      9  O   UNL     1       3.127  -1.621   8.545  0.00  0.00    -0.153 OA
BRANCH   7  10
ATOM     10  C   UNL     1       1.317  -1.803  10.347  0.00  0.00    +0.107 A 
ATOM     11  C   UNL     1       1.156  -0.430  10.330  0.00  0.00    +0.030 A 
ATOM     12  C   UNL     1       0.433   0.194  11.328  0.00  0.00    +0.023 A 
ATOM     13  C   UNL     1      -0.131  -0.555  12.346  0.00  0.00    +0.059 A 
ATOM     14  C   UNL     1       0.030  -1.930  12.363  0.00  0.00    +0.061 A 
ATOM     15  C   UNL     1       0.750  -2.554  11.359  0.00  0.00    +0.050 A 
ATOM     16 CL   UNL     1      -0.677  -2.871  13.639  0.00  0.00    -0.082 Cl
ATOM     17 CL   UNL     1      -1.039   0.229  13.601  0.00  0.00    -0.082 Cl
ENDBRANCH   7  10
ENDBRANCH   5   7
ENDBRANCH   3   5
ENDBRANCH   1   3
BRANCH   1  18
ATOM     18  O   UNL     1      -0.268  -1.507   4.807  0.00  0.00    -0.452 OA
BRANCH  18  19
ATOM     19  C   UNL     1      -0.399  -1.972   3.462  0.00  0.00    +0.245 C 
ATOM     20  C   UNL     1      -1.726  -2.719   3.308  0.00  0.00    +0.061 C 
BRANCH  19  21
ATOM     21  C   UNL     1      -0.371  -0.797   2.519  0.00  0.00    +0.219 C 
ATOM     22  O   UNL     1      -0.525   0.329   2.947  0.00  0.00    -0.287 OA
BRANCH  21  29
ATOM     23  C   UNL     1      -0.275   1.458   0.383  0.00  0.00    +0.047 C 
ATOM     24  C   UNL     1      -0.118  -0.026   0.167  0.00  0.00    -0.012 A 
ATOM     25  C   UNL     1       0.111  -0.678  -1.065  0.00  0.00    +0.041 A 
ATOM     26  C   UNL     1       0.189  -2.038  -0.799  0.00  0.00    +0.024 A 
ATOM     27  N   UNL     1       0.018  -2.227   0.517  0.00  0.00    -0.355 N 
ATOM     28  H   UNL     1       0.028  -3.086   0.966  0.00  0.00    +0.166 HD
ATOM     29  C   UNL     1      -0.166  -1.006   1.134  0.00  0.00    +0.090 A 
ATOM     30  C   UNL     1       0.424  -3.121  -1.819  0.00  0.00    +0.064 C 
BRANCH  25  31
ATOM     31  C   UNL     1       0.242  -0.039  -2.379  0.00  0.00    +0.162 C 
ATOM     32  O   UNL     1      -0.746   0.181  -3.047  0.00  0.00    -0.292 OA
ATOM     33  C   UNL     1       1.604   0.344  -2.898  0.00  0.00    +0.091 C 
ENDBRANCH  25  31
ENDBRANCH  21  29
ENDBRANCH  19  21
ENDBRANCH  18  19
ENDBRANCH   1  18
TORSDOF 9
