REMARK  Name = ZINC43548623
REMARK  10 active torsions:
REMARK  status: ('A' for Active; 'I' for Inactive)
REMARK    1  A    between atoms: C_1  and  C_2
REMARK    2  A    between atoms: C_2  and  C_3
REMARK    3  A    between atoms: C_3  and  C_4
REMARK    4  A    between atoms: C_4  and  N_5
REMARK    5  A    between atoms: C_12  and  C_36
REMARK    6  A    between atoms: C_15  and  C_25
REMARK    7  A    between atoms: C_17  and  O_24
REMARK    8  A    between atoms: C_21  and  C_23
REMARK    9  A    between atoms: C_25  and  C_27
REMARK   10  A    between atoms: C_25  and  C_28
REMARK                            x       y       z     vdW  Elec       q    Type
REMARK                         _______ _______ _______ _____ _____    ______ ____
ROOT
ATOM      1  N   UNL     1       2.438  -1.898  -3.784  0.00  0.00    -0.325 N 
ATOM      2  C   UNL     1       2.354  -3.281  -3.830  0.00  0.00    +0.136 A 
ATOM      3  N   UNL     1       2.553  -4.078  -4.856  0.00  0.00    -0.340 N 
ATOM      4  C   UNL     1       2.437  -5.401  -4.753  0.00  0.00    +0.031 A 
ATOM      5  C   UNL     1       2.102  -5.848  -3.517  0.00  0.00    +0.013 A 
ATOM      6  S   UNL     1       1.981  -4.350  -2.582  0.00  0.00    -0.059 S 
ATOM      7  C   UNL     1       1.902  -7.261  -3.087  0.00  0.00    +0.051 C 
ATOM      8  C   UNL     1       1.788  -8.143  -4.333  0.00  0.00    -0.022 C 
ATOM      9  C   UNL     1       0.427  -7.956  -5.002  0.00  0.00    +0.008 C 
ATOM     10  C   UNL     1       0.324  -8.906  -6.198  0.00  0.00    +0.007 C 
ATOM     11  C   UNL     1       1.452  -8.617  -7.189  0.00  0.00    +0.029 C 
ATOM     12  C   UNL     1       2.809  -8.780  -6.501  0.00  0.00    +0.123 C 
ATOM     13  C   UNL     1       2.892  -7.781  -5.334  0.00  0.00    +0.033 C 
ATOM     14  C   UNL     1       2.648  -6.377  -5.899  0.00  0.00    +0.039 C 
ATOM     15  C   UNL     1       3.861  -5.941  -6.724  0.00  0.00    +0.014 C 
ATOM     16  C   UNL     1       1.936  -9.611  -3.928  0.00  0.00    +0.012 C 
ATOM     17  H   UNL     1       2.665  -1.399  -4.584  0.00  0.00    +0.148 HD
ATOM     18  H   UNL     1       2.791  -3.692  -5.714  0.00  0.00    +0.167 HD
ENDROOT
BRANCH  12  19
ATOM     19  O   UNL     1       2.938 -10.113  -6.005  0.00  0.00    -0.391 OA
ATOM     20  H   UNL     1       2.883 -10.795  -6.689  0.00  0.00    +0.210 HD
ENDBRANCH  12  19
BRANCH  11  21
ATOM     21  C   UNL     1       1.359  -9.594  -8.363  0.00  0.00    +0.078 C 
ATOM     22  C   UNL     1       2.487  -9.306  -9.356  0.00  0.00    +0.017 C 
BRANCH  21  23
ATOM     23  C   UNL     1       0.029  -9.428  -9.051  0.00  0.00    +0.219 C 
ATOM     24  O   UNL     1      -0.544  -8.360  -9.014  0.00  0.00    -0.275 OA
ATOM     25  N   UNL     1      -0.524 -10.467  -9.707  0.00  0.00    -0.297 N 
ATOM     26  C   UNL     1       0.200 -11.740  -9.858  0.00  0.00    +0.136 C 
ATOM     27  C   UNL     1      -0.725 -12.878  -9.414  0.00  0.00    +0.179 C 
ATOM     28  O   UNL     1      -1.971 -12.770 -10.107  0.00  0.00    -0.377 OA
ATOM     29  C   UNL     1      -2.694 -11.569  -9.827  0.00  0.00    +0.179 C 
ATOM     30  C   UNL     1      -1.872 -10.366 -10.288  0.00  0.00    +0.136 C 
ENDBRANCH  21  23
ENDBRANCH  11  21
BRANCH   1  31
ATOM     31  C   UNL     1       2.182  -1.190  -2.527  0.00  0.00    +0.103 C 
BRANCH  31  32
ATOM     32  C   UNL     1       2.339   0.316  -2.749  0.00  0.00    +0.018 C 
BRANCH  32  34
ATOM     33  C   UNL     1       2.229   2.561  -1.659  0.00  0.00    +0.004 C 
ATOM     34  C   UNL     1       2.072   1.055  -1.437  0.00  0.00    -0.002 C 
ENDBRANCH  32  34
ENDBRANCH  31  32
ENDBRANCH   1  31
TORSDOF 6
