REMARK  Name = ZINC26786689
REMARK  6 active torsions:
REMARK  status: ('A' for Active; 'I' for Inactive)
REMARK    1  A    between atoms: C_3  and  C_10
REMARK    2  A    between atoms: C_5  and  N_7
REMARK    3  A    between atoms: N_12  and  N_13
REMARK    4  A    between atoms: N_13  and  C_14
REMARK    5  A    between atoms: N_17  and  S_18
REMARK    6  A    between atoms: S_18  and  C_21
REMARK                            x       y       z     vdW  Elec       q    Type
REMARK                         _______ _______ _______ _____ _____    ______ ____
ROOT
ATOM      1  C   UNL     1      -8.703   1.746   0.184  0.00  0.00    +0.094 C 
ATOM      2  C   UNL     1      -8.667   3.095   0.114  0.00  0.00    +0.058 C 
ATOM      3  C   UNL     1      -9.920   3.859   0.147  0.00  0.00    +0.091 C 
ATOM      4  N   UNL     1      -9.888   5.163   0.080  0.00  0.00    -0.129 NA
ATOM      5  C   UNL     1     -11.221   3.159   0.256  0.00  0.00    -0.010 C 
ATOM      6  C   UNL     1     -11.255   1.822   0.326  0.00  0.00    +0.010 C 
ATOM      7  C   UNL     1      -9.999   1.053   0.288  0.00  0.00    +0.205 C 
ATOM      8  O   UNL     1     -10.032  -0.162   0.348  0.00  0.00    -0.286 OA
ATOM      9  C   UNL     1     -12.552   1.069   0.438  0.00  0.00    +0.066 C 
ATOM     10  C   UNL     1     -13.648   1.938   0.971  0.00  0.00    -0.026 C 
ATOM     11  C   UNL     1     -13.615   3.233   0.902  0.00  0.00    -0.026 C 
ATOM     12  C   UNL     1     -12.478   3.984   0.284  0.00  0.00    +0.064 C 
ENDROOT
BRANCH   4  13
ATOM     13  S   UNL     1     -11.077   5.981  -0.732  0.00  0.00    +0.099 S 
ATOM     14  O   UNL     1     -11.533   5.115  -1.763  0.00  0.00    -0.146 OA
ATOM     15  O   UNL     1     -11.949   6.516   0.254  0.00  0.00    -0.146 OA
BRANCH  13  16
ATOM     16  C   UNL     1     -10.314   7.354  -1.529  0.00  0.00    +0.113 A 
ATOM     17  C   UNL     1     -10.220   8.568  -0.874  0.00  0.00    +0.030 A 
ATOM     18  C   UNL     1      -9.616   9.645  -1.496  0.00  0.00    +0.022 A 
ATOM     19  C   UNL     1      -9.116   9.511  -2.779  0.00  0.00    +0.041 A 
ATOM     20  C   UNL     1      -9.216   8.297  -3.436  0.00  0.00    +0.022 A 
ATOM     21  C   UNL     1      -9.814   7.220  -2.811  0.00  0.00    +0.030 A 
ATOM     22 CL   UNL     1      -8.365  10.865  -3.564  0.00  0.00    -0.084 Cl
ENDBRANCH  13  16
ENDBRANCH   4  13
BRANCH   1  23
ATOM     23  N   UNL     1      -7.522   1.015   0.153  0.00  0.00    -0.261 N 
ATOM     24  H   UNL     1      -7.553  -0.083   0.211  0.00  0.00    +0.170 HD
BRANCH  23  27
ATOM     25  C   UNL     1      -5.145   0.967   0.018  0.00  0.00    +0.260 C 
ATOM     26  O   UNL     1      -5.180  -0.246   0.082  0.00  0.00    -0.269 OA
ATOM     27  N   UNL     1      -6.291   1.676   0.049  0.00  0.00    -0.232 N 
ATOM     28  H   UNL     1      -6.260   2.774  -0.009  0.00  0.00    +0.173 HD
BRANCH  25  31
ATOM     29  C   UNL     1      -2.588   3.703  -0.267  0.00  0.00    +0.003 A 
ATOM     30  C   UNL     1      -3.803   3.058  -0.165  0.00  0.00    +0.013 A 
ATOM     31  C   UNL     1      -3.847   1.665  -0.092  0.00  0.00    +0.040 A 
ATOM     32  C   UNL     1      -2.658   0.933  -0.124  0.00  0.00    +0.045 A 
ATOM     33  C   UNL     1      -1.450   1.590  -0.227  0.00  0.00    +0.127 A 
ATOM     34  C   UNL     1      -1.414   2.972  -0.293  0.00  0.00    +0.033 A 
BRANCH  33  35
ATOM     35  N   UNL     1      -0.189   0.816  -0.260  0.00  0.00    +0.056 N 
ATOM     36  O   UNL     1      -0.219  -0.400  -0.196  0.00  0.00    -0.126 OA
ATOM     37  O   UNL     1       0.879   1.395  -0.355  0.00  0.00    -0.126 OA
ENDBRANCH  33  35
ENDBRANCH  25  31
ENDBRANCH  23  27
ENDBRANCH   1  23
TORSDOF 6
