REMARK  Name = ZINC49657590
REMARK  6 active torsions:
REMARK  status: ('A' for Active; 'I' for Inactive)
REMARK    1  A    between atoms: C_1  and  C_2
REMARK    2  A    between atoms: N_5  and  C_8
REMARK    3  A    between atoms: C_11  and  N_14
REMARK    4  A    between atoms: C_15  and  C_17
REMARK    5  A    between atoms: C_17  and  C_18
REMARK    6  A    between atoms: N_22  and  C_30
REMARK                            x       y       z     vdW  Elec       q    Type
REMARK                         _______ _______ _______ _____ _____    ______ ____
ROOT
ATOM      1  N   UNL     1      -2.581  -6.295   4.685  0.00  0.00    -0.285 N 
ATOM      2  C   UNL     1      -3.502  -7.193   4.284  0.00  0.00    +0.221 C 
ATOM      3  O   UNL     1      -3.829  -7.246   3.117  0.00  0.00    -0.275 OA
ATOM      4  H   UNL     1      -2.261  -6.304   5.601  0.00  0.00    +0.155 HD
ENDROOT
BRANCH   1   8
ATOM      5  C   UNL     1      -1.102  -3.477   1.989  0.00  0.00    +0.030 A 
ATOM      6  C   UNL     1      -2.426  -3.888   1.907  0.00  0.00    +0.025 A 
ATOM      7  C   UNL     1      -2.915  -4.821   2.800  0.00  0.00    +0.025 A 
ATOM      8  C   UNL     1      -2.084  -5.348   3.779  0.00  0.00    +0.033 A 
ATOM      9  C   UNL     1      -0.760  -4.938   3.861  0.00  0.00    +0.025 A 
ATOM     10  C   UNL     1      -0.268  -4.010   2.964  0.00  0.00    +0.025 A 
BRANCH   5  15
ATOM     11  C   UNL     1      -0.086   1.556   0.025  0.00  0.00    +0.007 C 
ATOM     12  C   UNL     1      -0.049   0.027   0.016  0.00  0.00    -0.011 C 
ATOM     13  C   UNL     1      -1.479  -0.518   0.019  0.00  0.00    +0.022 C 
ATOM     14  C   UNL     1      -1.438  -2.049  -0.025  0.00  0.00    +0.105 C 
ATOM     15  N   UNL     1      -0.606  -2.532   1.085  0.00  0.00    -0.330 N 
ATOM     16  C   UNL     1       0.758  -2.003   1.227  0.00  0.00    +0.105 C 
ATOM     17  C   UNL     1       0.692  -0.473   1.258  0.00  0.00    +0.022 C 
ENDBRANCH   5  15
ENDBRANCH   1   8
BRANCH   2  18
ATOM     18  C   UNL     1      -4.127  -8.130   5.285  0.00  0.00    +0.150 C 
BRANCH  18  19
ATOM     19  C   UNL     1      -5.133  -9.039   4.574  0.00  0.00    +0.268 C 
ATOM     20  C   UNL     1      -5.665 -10.058   5.550  0.00  0.00    +0.261 C 
ATOM     21  O   UNL     1      -5.134 -11.144   5.646  0.00  0.00    -0.271 OA
ATOM     22  N   UNL     1      -6.734  -9.756   6.317  0.00  0.00    -0.268 N 
ATOM     23  C   UNL     1      -7.409  -8.546   6.102  0.00  0.00    +0.078 A 
ATOM     24  C   UNL     1      -8.358  -8.100   7.008  0.00  0.00    +0.027 A 
ATOM     25  C   UNL     1      -9.006  -6.898   6.789  0.00  0.00    +0.002 A 
ATOM     26  C   UNL     1      -8.709  -6.142   5.670  0.00  0.00    +0.004 A 
ATOM     27  C   UNL     1      -7.766  -6.584   4.761  0.00  0.00    +0.047 A 
ATOM     28  C   UNL     1      -7.117  -7.789   4.970  0.00  0.00    +0.143 A 
ATOM     29  O   UNL     1      -6.211  -8.250   4.067  0.00  0.00    -0.477 OA
ATOM     30  C   UNL     1      -7.183 -10.681   7.360  0.00  0.00    +0.138 C 
ENDBRANCH  18  19
ENDBRANCH   2  18
TORSDOF 4
