REMARK  Name = ZINC39559387
REMARK  5 active torsions:
REMARK  status: ('A' for Active; 'I' for Inactive)
REMARK    1  A    between atoms: C_6  and  C_7
REMARK    2  A    between atoms: C_10  and  C_12
REMARK    3  A    between atoms: N_14  and  C_15
REMARK    4  A    between atoms: C_17  and  C_27
REMARK    5  A    between atoms: C_20  and  N_21
REMARK                            x       y       z     vdW  Elec       q    Type
REMARK                         _______ _______ _______ _____ _____    ______ ____
ROOT
ATOM      1  C   UNL     1      -6.792   0.310  -0.040  0.00  0.00    +0.056 A 
ATOM      2  C   UNL     1      -7.583  -0.824  -0.022  0.00  0.00    +0.038 A 
ATOM      3  C   UNL     1      -8.973  -0.704  -0.104  0.00  0.00    +0.038 A 
ATOM      4  C   UNL     1      -9.559   0.561  -0.204  0.00  0.00    +0.015 A 
ATOM      5  C   UNL     1      -8.768   1.688  -0.221  0.00  0.00    +0.026 A 
ATOM      6  C   UNL     1      -7.385   1.572  -0.134  0.00  0.00    +0.051 A 
ENDROOT
BRANCH   6   7
ATOM      7  N   UNL     1      -6.590   2.715  -0.146  0.00  0.00    -0.328 N 
ATOM      8  C   UNL     1      -6.098   3.272  -1.413  0.00  0.00    +0.105 C 
ATOM      9  C   UNL     1      -6.488   4.751  -1.487  0.00  0.00    +0.019 C 
ATOM     10  C   UNL     1      -5.972   5.474  -0.241  0.00  0.00    +0.003 C 
ATOM     11  C   UNL     1      -6.616   4.866   1.007  0.00  0.00    +0.019 C 
ATOM     12  C   UNL     1      -6.232   3.391   1.109  0.00  0.00    +0.105 C 
ENDBRANCH   6   7
BRANCH   3  13
ATOM     13  C   UNL     1      -9.820  -1.912  -0.086  0.00  0.00    +0.242 C 
ATOM     14  O   UNL     1      -9.309  -3.012   0.000  0.00  0.00    -0.270 OA
ATOM     15  N   UNL     1     -11.161  -1.795  -0.165  0.00  0.00    -0.325 N 
ATOM     16  H   UNL     1     -11.568  -0.918  -0.234  0.00  0.00    +0.145 HD
ATOM     17  H   UNL     1     -11.718  -2.589  -0.153  0.00  0.00    +0.145 HD
ENDBRANCH   3  13
BRANCH   1  20
ATOM     18  C   UNL     1      -4.845  -0.889   0.623  0.00  0.00    +0.284 C 
ATOM     19  O   UNL     1      -5.553  -1.718   1.164  0.00  0.00    -0.266 OA
ATOM     20  N   UNL     1      -5.399   0.195   0.042  0.00  0.00    -0.277 N 
ATOM     21  H   UNL     1      -4.832   0.895  -0.318  0.00  0.00    +0.155 HD
BRANCH  18  25
ATOM     22  C   UNL     1      -1.258  -0.717   0.212  0.00  0.00    +0.136 A 
ATOM     23  C   UNL     1      -1.343  -1.893   0.902  0.00  0.00    +0.050 A 
ATOM     24  C   UNL     1      -2.699  -2.124   1.153  0.00  0.00    +0.055 A 
ATOM     25  C   UNL     1      -3.392  -1.068   0.601  0.00  0.00    +0.190 A 
ATOM     26  O   UNL     1      -2.497  -0.227   0.042  0.00  0.00    -0.450 OA
BRANCH  22  32
ATOM     27  C   UNL     1      -0.056   1.127  -0.953  0.00  0.00    +0.014 A 
ATOM     28  C   UNL     1       1.112   1.712  -1.393  0.00  0.00    +0.039 A 
ATOM     29  C   UNL     1       2.331   1.099  -1.149  0.00  0.00    +0.123 A 
ATOM     30  C   UNL     1       2.384  -0.104  -0.463  0.00  0.00    +0.039 A 
ATOM     31  C   UNL     1       1.222  -0.698  -0.019  0.00  0.00    +0.014 A 
ATOM     32  C   UNL     1      -0.010  -0.085  -0.261  0.00  0.00    +0.017 A 
ATOM     33  F   UNL     1       3.473   1.677  -1.582  0.00  0.00    -0.205 F 
ENDBRANCH  22  32
ENDBRANCH  18  25
ENDBRANCH   1  20
TORSDOF 5
