REMARK  Name = ZINC09634826
REMARK  13 active torsions:
REMARK  status: ('A' for Active; 'I' for Inactive)
REMARK    1  A    between atoms: C_1  and  C_2
REMARK    2  A    between atoms: C_2  and  N_3
REMARK    3  A    between atoms: N_3  and  C_4
REMARK    4  A    between atoms: N_3  and  S_6
REMARK    5  A    between atoms: C_4  and  C_5
REMARK    6  A    between atoms: S_6  and  C_9
REMARK    7  A    between atoms: C_13  and  N_15
REMARK    8  A    between atoms: C_24  and  C_25
REMARK    9  A    between atoms: N_26  and  C_27
REMARK   10  A    between atoms: C_27  and  C_28
REMARK   11  A    between atoms: C_28  and  N_63
REMARK   12  A    between atoms: C_29  and  N_63
REMARK   13  A    between atoms: C_30  and  N_63
REMARK                            x       y       z     vdW  Elec       q    Type
REMARK                         _______ _______ _______ _____ _____    ______ ____
ROOT
ATOM      1  N   UNL     1       2.428   4.201   0.730  0.00  0.00    -0.206 N 
ATOM      2  C   UNL     1       1.369   3.420   1.000  0.00  0.00    +0.258 C 
ATOM      3  O   UNL     1       0.364   3.917   1.471  0.00  0.00    -0.269 OA
ATOM      4  C   UNL     1       1.405   1.976   0.735  0.00  0.00    +0.042 A 
ATOM      5  C   UNL     1       0.308   1.159   1.013  0.00  0.00    +0.013 A 
ATOM      6  C   UNL     1       0.381  -0.192   0.751  0.00  0.00    +0.001 A 
ATOM      7  C   UNL     1       1.532  -0.749   0.213  0.00  0.00    +0.000 A 
ATOM      8  C   UNL     1       2.628   0.041  -0.069  0.00  0.00    +0.005 A 
ATOM      9  C   UNL     1       2.574   1.406   0.189  0.00  0.00    -0.018 A 
ATOM     10  C   UNL     1       3.718   2.297  -0.094  0.00  0.00    +0.147 C 
ATOM     11  C   UNL     1       3.571   3.725   0.211  0.00  0.00    +0.239 C 
ATOM     12  O   UNL     1       4.495   4.486  -0.010  0.00  0.00    -0.274 OA
ENDROOT
BRANCH   1  17
ATOM     13  C   UNL     1       2.986   7.478   2.304  0.00  0.00    +0.107 A 
ATOM     14  C   UNL     1       2.154   8.279   1.543  0.00  0.00    +0.028 A 
ATOM     15  C   UNL     1       1.413   7.730   0.513  0.00  0.00    +0.004 A 
ATOM     16  C   UNL     1       1.502   6.378   0.241  0.00  0.00    +0.024 A 
ATOM     17  C   UNL     1       2.336   5.572   1.004  0.00  0.00    +0.046 A 
ATOM     18  C   UNL     1       3.075   6.125   2.041  0.00  0.00    +0.052 A 
BRANCH  13  19
ATOM     19  S   UNL     1       3.928   8.183   3.615  0.00  0.00    +0.061 S 
ATOM     20  O   UNL     1       5.040   7.324   3.824  0.00  0.00    -0.153 OA
ATOM     21  O   UNL     1       4.079   9.563   3.311  0.00  0.00    -0.153 OA
BRANCH  19  22
ATOM     22  N   UNL     1       3.001   8.099   4.985  0.00  0.00    -0.177 NA
BRANCH  22  24
ATOM     23  C   UNL     1       4.077   7.186   6.983  0.00  0.00    +0.022 C 
ATOM     24  C   UNL     1       3.081   6.921   5.852  0.00  0.00    +0.106 C 
ENDBRANCH  22  24
BRANCH  22  25
ATOM     25  C   UNL     1       2.101   9.203   5.329  0.00  0.00    +0.106 C 
ATOM     26  C   UNL     1       0.698   8.900   4.801  0.00  0.00    +0.022 C 
ENDBRANCH  22  25
ENDBRANCH  19  22
ENDBRANCH  13  19
ENDBRANCH   1  17
BRANCH  10  27
ATOM     27  C   UNL     1       4.887   1.802  -0.627  0.00  0.00    +0.095 C 
ATOM     28  N   UNL     1       5.871   2.655  -1.015  0.00  0.00    -0.297 NA
BRANCH  28  29
ATOM     29  C   UNL     1       7.115   2.129  -1.583  0.00  0.00    +0.122 C 
BRANCH  29  30
ATOM     30  C   UNL     1       8.047   3.290  -1.933  0.00  0.00    -0.056 C 
BRANCH  30  33
ATOM     31  C   UNL     1       9.048   2.109  -3.795  0.00  0.00    -0.097 C 
ATOM     32  C   UNL     1      10.304   3.821  -2.631  0.00  0.00    -0.097 C 
ATOM     33  N   UNL     1       9.305   2.742  -2.485  0.00  0.00    +0.377 N 
ATOM     34  H   UNL     1       9.672   2.034  -1.838  0.00  0.00    -0.083 HD
ENDBRANCH  30  33
ENDBRANCH  29  30
ENDBRANCH  28  29
ENDBRANCH  10  27
TORSDOF 9
