REMARK  Name = ZINC39965060
REMARK  11 active torsions:
REMARK  status: ('A' for Active; 'I' for Inactive)
REMARK    1  A    between atoms: C_1  and  C_2
REMARK    2  A    between atoms: C_9  and  N_14
REMARK    3  A    between atoms: C_10  and  C_11
REMARK    4  A    between atoms: C_15  and  C_17
REMARK    5  A    between atoms: C_17  and  N_18
REMARK    6  A    between atoms: N_21  and  S_24
REMARK    7  A    between atoms: S_24  and  C_27
REMARK    8  A    between atoms: C_30  and  C_33
REMARK    9  A    between atoms: C_33  and  C_34
REMARK   10  A    between atoms: C_33  and  C_35
REMARK   11  A    between atoms: C_33  and  C_36
REMARK                            x       y       z     vdW  Elec       q    Type
REMARK                         _______ _______ _______ _____ _____    ______ ____
ROOT
ATOM      1  C   UNL     1       1.898  -7.498   3.830  0.00  0.00    +0.180 C 
ENDROOT
BRANCH   1   2
ATOM      2  N   UNL     1       3.018  -7.504   4.781  0.00  0.00    -0.291 NA
ATOM      3  C   UNL     1       4.280  -7.164   4.111  0.00  0.00    +0.102 C 
ATOM      4  C   UNL     1       5.385  -7.003   5.161  0.00  0.00    +0.125 C 
ATOM      5  N   UNL     1       5.427  -8.221   5.985  0.00  0.00    -0.174 NA
ATOM      6  C   UNL     1       4.170  -8.703   6.579  0.00  0.00    +0.125 C 
ATOM      7  C   UNL     1       3.113  -8.796   5.473  0.00  0.00    +0.102 C 
BRANCH   5   8
ATOM      8  S   UNL     1       6.850  -9.028   6.237  0.00  0.00    +0.061 S 
ATOM      9  O   UNL     1       6.506 -10.371   6.551  0.00  0.00    -0.153 OA
ATOM     10  O   UNL     1       7.705  -8.694   5.152  0.00  0.00    -0.153 OA
BRANCH   8  11
ATOM     11  C   UNL     1       7.586  -8.346   7.686  0.00  0.00    +0.105 A 
ATOM     12  C   UNL     1       8.446  -7.269   7.582  0.00  0.00    +0.029 A 
ATOM     13  C   UNL     1       9.024  -6.733   8.718  0.00  0.00    +0.006 A 
ATOM     14  C   UNL     1       8.741  -7.275   9.958  0.00  0.00    -0.042 A 
ATOM     15  C   UNL     1       7.880  -8.351  10.062  0.00  0.00    +0.006 A 
ATOM     16  C   UNL     1       7.299  -8.884   8.926  0.00  0.00    +0.029 A 
BRANCH  14  17
ATOM     17  C   UNL     1       9.371  -6.692  11.197  0.00  0.00    -0.013 C 
ATOM     18  C   UNL     1       8.964  -5.223  11.333  0.00  0.00    +0.015 C 
ATOM     19  C   UNL     1       8.894  -7.469  12.425  0.00  0.00    +0.015 C 
ATOM     20  C   UNL     1      10.894  -6.791  11.089  0.00  0.00    +0.015 C 
ENDBRANCH  14  17
ENDBRANCH   8  11
ENDBRANCH   5   8
ENDBRANCH   1   2
BRANCH   1  22
ATOM     21  N   UNL     1       0.696  -5.847   2.434  0.00  0.00    -0.278 N 
ATOM     22  C   UNL     1       1.677  -6.096   3.324  0.00  0.00    +0.232 C 
ATOM     23  O   UNL     1       2.383  -5.191   3.716  0.00  0.00    -0.274 OA
ATOM     24  H   UNL     1       0.131  -6.571   2.120  0.00  0.00    +0.155 HD
BRANCH  21  32
ATOM     25  C   UNL     1      -0.019   1.526   0.010  0.00  0.00    +0.008 C 
ATOM     26  C   UNL     1       0.002  -0.004   0.002  0.00  0.00    -0.009 C 
ATOM     27  C   UNL     1      -1.434  -0.537   0.019  0.00  0.00    +0.008 C 
ATOM     28  C   UNL     1      -1.433  -2.045  -0.237  0.00  0.00    +0.037 C 
ATOM     29  C   UNL     1      -0.464  -2.704   0.734  0.00  0.00    -0.023 A 
ATOM     30  C   UNL     1       0.485  -1.986   1.374  0.00  0.00    -0.004 A 
ATOM     31  S   UNL     1       1.343  -3.167   2.373  0.00  0.00    -0.077 S 
ATOM     32  C   UNL     1       0.492  -4.557   1.968  0.00  0.00    +0.084 A 
ATOM     33  C   UNL     1      -0.459  -4.119   1.061  0.00  0.00    +0.068 A 
ATOM     34  C   UNL     1       0.739  -0.515   1.248  0.00  0.00    +0.046 C 
BRANCH  33  35
ATOM     35  C   UNL     1      -1.421  -5.045   0.456  0.00  0.00    +0.244 C 
ATOM     36  O   UNL     1      -1.149  -5.611  -0.587  0.00  0.00    -0.270 OA
ATOM     37  N   UNL     1      -2.608  -5.271   1.055  0.00  0.00    -0.325 N 
ATOM     38  H   UNL     1      -2.825  -4.821   1.886  0.00  0.00    +0.145 HD
ATOM     39  H   UNL     1      -3.244  -5.884   0.655  0.00  0.00    +0.145 HD
ENDBRANCH  33  35
ENDBRANCH  21  32
ENDBRANCH   1  22
TORSDOF 7
