REMARK  Name = ZINC05559953
REMARK  6 active torsions:
REMARK  status: ('A' for Active; 'I' for Inactive)
REMARK    1  A    between atoms: C_1  and  C_2
REMARK    2  A    between atoms: C_3  and  C_14
REMARK    3  A    between atoms: N_5  and  C_7
REMARK    4  A    between atoms: N_15  and  N_16
REMARK    5  A    between atoms: C_17  and  C_25
REMARK    6  A    between atoms: C_22  and  C_24
REMARK                            x       y       z     vdW  Elec       q    Type
REMARK                         _______ _______ _______ _____ _____    ______ ____
ROOT
ATOM      1  C   UNL     1       3.618   0.830  -0.062  0.00  0.00    +0.068 C 
ATOM      2  C   UNL     1       2.112   0.776  -0.055  0.00  0.00    +0.070 A 
ATOM      3  C   UNL     1       1.325  -0.396  -0.046  0.00  0.00    +0.054 A 
ATOM      4  C   UNL     1       0.004  -0.003  -0.043  0.00  0.00    +0.142 A 
ATOM      5  N   UNL     1      -0.015   1.349  -0.050  0.00  0.00    -0.221 N 
ATOM      6  N   UNL     1       1.308   1.806  -0.057  0.00  0.00    -0.170 NA
ATOM      7 CL   UNL     1      -1.381  -1.050  -0.031  0.00  0.00    -0.061 Cl
ENDROOT
BRANCH   5   8
ATOM      8  C   UNL     1      -1.161   2.154  -0.055  0.00  0.00    +0.067 A 
ATOM      9  C   UNL     1      -2.294   1.747  -0.747  0.00  0.00    +0.028 A 
ATOM     10  C   UNL     1      -3.425   2.541  -0.746  0.00  0.00    +0.002 A 
ATOM     11  C   UNL     1      -3.426   3.744  -0.065  0.00  0.00    +0.000 A 
ATOM     12  C   UNL     1      -2.297   4.154   0.622  0.00  0.00    +0.002 A 
ATOM     13  C   UNL     1      -1.165   3.363   0.628  0.00  0.00    +0.028 A 
ENDBRANCH   5   8
BRANCH   3  14
ATOM     14  C   UNL     1       1.826  -1.785  -0.041  0.00  0.00    +0.143 C 
ATOM     15  N   UNL     1       0.989  -2.776  -0.032  0.00  0.00    -0.191 NA
BRANCH  15  16
ATOM     16  N   UNL     1       1.458  -4.091  -0.146  0.00  0.00    -0.250 N 
ATOM     17  C   UNL     1       0.518  -5.216  -0.243  0.00  0.00    +0.090 C 
ATOM     18  C   UNL     1       0.869  -6.040  -1.491  0.00  0.00    +0.024 C 
ATOM     19  C   UNL     1       2.340  -6.455  -1.424  0.00  0.00    +0.004 C 
ATOM     20  C   UNL     1       3.224  -5.205  -1.408  0.00  0.00    +0.024 C 
ATOM     21  C   UNL     1       2.900  -4.372  -0.164  0.00  0.00    +0.090 C 
ATOM     22  C   UNL     1       3.287  -5.154   1.093  0.00  0.00    +0.029 C 
ATOM     23  C   UNL     1      -0.910  -4.681  -0.363  0.00  0.00    +0.029 C 
ENDBRANCH  15  16
ENDBRANCH   3  14
TORSDOF 3
