REMARK  Name = ZINC39665249
REMARK  11 active torsions:
REMARK  status: ('A' for Active; 'I' for Inactive)
REMARK    1  A    between atoms: C_1  and  C_2
REMARK    2  A    between atoms: C_3  and  C_12
REMARK    3  A    between atoms: C_7  and  O_8
REMARK    4  A    between atoms: O_8  and  C_9
REMARK    5  A    between atoms: C_9  and  C_11
REMARK    6  A    between atoms: C_16  and  C_25
REMARK    7  A    between atoms: N_27  and  C_28
REMARK    8  A    between atoms: C_28  and  C_29
REMARK    9  A    between atoms: C_29  and  C_31
REMARK   10  A    between atoms: C_29  and  O_32
REMARK   11  A    between atoms: O_32  and  C_33
REMARK                            x       y       z     vdW  Elec       q    Type
REMARK                         _______ _______ _______ _____ _____    ______ ____
ROOT
ATOM      1  C   UNL     1       0.991  -0.315  -5.905  0.00  0.00    +0.247 C 
ATOM      2  O   UNL     1       1.177   0.734  -6.490  0.00  0.00    -0.270 OA
ATOM      3  N   UNL     1       0.791  -1.450  -6.604  0.00  0.00    -0.296 N 
ATOM      4  C   UNL     1       0.440  -2.791  -6.078  0.00  0.00    +0.121 C 
ATOM      5  C   UNL     1      -0.576  -3.355  -7.096  0.00  0.00    +0.100 C 
ATOM      6  C   UNL     1      -0.285  -2.597  -8.403  0.00  0.00    -0.004 C 
ATOM      7  C   UNL     1       0.868  -1.639  -8.072  0.00  0.00    +0.115 C 
ATOM      8  C   UNL     1      -1.514  -1.805  -8.839  0.00  0.00    -0.010 C 
ATOM      9  C   UNL     1      -1.218  -1.106 -10.169  0.00  0.00    -0.082 C 
ATOM     10  N   UNL     1      -0.872  -2.109 -11.184  0.00  0.00    +0.379 N 
ATOM     11  C   UNL     1       0.363  -2.803 -10.801  0.00  0.00    -0.082 C 
ATOM     12  C   UNL     1       0.135  -3.573  -9.498  0.00  0.00    -0.010 C 
ATOM     13  H   UNL     1      -1.623  -2.779 -11.263  0.00  0.00    -0.086 HD
ATOM     14  H   UNL     1      -0.738  -1.652 -12.074  0.00  0.00    -0.086 HD
ENDROOT
BRANCH   1  17
ATOM     15  C   UNL     1      -0.225   1.860  -4.435  0.00  0.00    +0.048 C 
ATOM     16  C   UNL     1       0.399   0.697  -3.708  0.00  0.00    +0.004 A 
ATOM     17  C   UNL     1       0.983  -0.346  -4.427  0.00  0.00    +0.043 A 
ATOM     18  C   UNL     1       1.560  -1.419  -3.746  0.00  0.00    +0.013 A 
ATOM     19  C   UNL     1       1.551  -1.445  -2.366  0.00  0.00    +0.004 A 
ATOM     20  C   UNL     1       0.972  -0.411  -1.655  0.00  0.00    +0.047 A 
ATOM     21  C   UNL     1       0.400   0.663  -2.324  0.00  0.00    +0.135 A 
BRANCH  21  22
ATOM     22  O   UNL     1      -0.163   1.680  -1.619  0.00  0.00    -0.426 OA
BRANCH  22  23
ATOM     23  C   UNL     1       0.583   2.771  -1.380  0.00  0.00    +0.309 C 
ATOM     24  O   UNL     1       1.736   2.804  -1.740  0.00  0.00    -0.251 OA
ATOM     25  C   UNL     1      -0.017   3.952  -0.662  0.00  0.00    +0.136 C 
ENDBRANCH  22  23
ENDBRANCH  21  22
ENDBRANCH   1  17
BRANCH   5  26
ATOM     26  C   UNL     1      -0.362  -4.835  -7.286  0.00  0.00    +0.218 C 
ATOM     27  O   UNL     1       0.733  -5.318  -7.096  0.00  0.00    -0.275 OA
ATOM     28  N   UNL     1      -1.389  -5.620  -7.668  0.00  0.00    -0.312 N 
ATOM     29  H   UNL     1      -2.265  -5.233  -7.821  0.00  0.00    +0.149 HD
BRANCH  28  30
ATOM     30  C   UNL     1      -1.181  -7.059  -7.853  0.00  0.00    +0.148 C 
BRANCH  30  31
ATOM     31  C   UNL     1      -2.495  -7.713  -8.284  0.00  0.00    +0.187 C 
ATOM     32  C   UNL     1      -2.310  -9.230  -8.356  0.00  0.00    +0.053 C 
BRANCH  31  33
ATOM     33  O   UNL     1      -2.874  -7.218  -9.569  0.00  0.00    -0.488 OA
BRANCH  33  34
ATOM     34  C   UNL     1      -4.190  -7.299  -9.898  0.00  0.00    +0.121 A 
ATOM     35  C   UNL     1      -5.093  -7.876  -9.016  0.00  0.00    +0.045 A 
ATOM     36  C   UNL     1      -6.430  -7.957  -9.353  0.00  0.00    +0.004 A 
ATOM     37  C   UNL     1      -6.870  -7.465 -10.568  0.00  0.00    +0.000 A 
ATOM     38  C   UNL     1      -5.972  -6.891 -11.449  0.00  0.00    +0.004 A 
ATOM     39  C   UNL     1      -4.635  -6.801 -11.114  0.00  0.00    +0.045 A 
ENDBRANCH  33  34
ENDBRANCH  31  33
ENDBRANCH  30  31
ENDBRANCH  28  30
ENDBRANCH   5  26
TORSDOF 8
