REMARK  Name = ZINC08739681
REMARK  7 active torsions:
REMARK  status: ('A' for Active; 'I' for Inactive)
REMARK    1  A    between atoms: C_1  and  C_2
REMARK    2  A    between atoms: C_2  and  C_3
REMARK    3  A    between atoms: C_2  and  C_4
REMARK    4  A    between atoms: C_4  and  C_6
REMARK    5  A    between atoms: C_4  and  N_18
REMARK    6  A    between atoms: N_8  and  C_9
REMARK    7  A    between atoms: C_19  and  C_21
REMARK                            x       y       z     vdW  Elec       q    Type
REMARK                         _______ _______ _______ _____ _____    ______ ____
ROOT
ATOM      1  C   UNL     1      -6.920  -0.796   0.315  0.00  0.00    +0.162 C 
ENDROOT
BRANCH   1   2
ATOM      2  C   UNL     1      -6.928  -2.173   0.927  0.00  0.00    +0.238 C 
ATOM      3  O   UNL     1      -5.881  -2.747   1.144  0.00  0.00    -0.273 OA
ATOM      4  N   UNL     1      -8.098  -2.766   1.235  0.00  0.00    -0.284 N 
ATOM      5  H   UNL     1      -8.926  -2.264   1.181  0.00  0.00    +0.155 HD
BRANCH   4   6
ATOM      6  C   UNL     1      -8.119  -4.110   1.631  0.00  0.00    +0.037 A 
ATOM      7  C   UNL     1      -6.994  -4.680   2.213  0.00  0.00    +0.027 A 
ATOM      8  C   UNL     1      -7.015  -6.003   2.608  0.00  0.00    +0.051 A 
ATOM      9  C   UNL     1      -8.154  -6.768   2.418  0.00  0.00    +0.166 A 
ATOM     10  C   UNL     1      -9.282  -6.201   1.830  0.00  0.00    +0.168 A 
ATOM     11  C   UNL     1      -9.262  -4.873   1.438  0.00  0.00    +0.072 A 
ATOM     12  O   UNL     1     -10.260  -7.151   1.755  0.00  0.00    -0.453 OA
ATOM     13  C   UNL     1      -9.585  -8.412   1.926  0.00  0.00    +0.466 C 
ATOM     14  O   UNL     1      -8.425  -8.075   2.711  0.00  0.00    -0.453 OA
ENDBRANCH   4   6
ENDBRANCH   1   2
BRANCH   1  15
ATOM     15  N   UNL     1      -5.750  -0.655  -0.556  0.00  0.00    -0.305 N 
ATOM     16  C   UNL     1      -5.768   0.230  -1.571  0.00  0.00    +0.200 C 
ATOM     17  O   UNL     1      -6.753   0.912  -1.764  0.00  0.00    -0.278 OA
ATOM     18  H   UNL     1      -4.962  -1.200  -0.401  0.00  0.00    +0.149 HD
BRANCH  16  19
ATOM     19  C   UNL     1      -4.565   0.374  -2.467  0.00  0.00    +0.021 C 
ATOM     20  C   UNL     1      -4.570  -0.736  -3.518  0.00  0.00    +0.028 C 
ATOM     21  C   UNL     1      -3.520  -0.463  -4.563  0.00  0.00    -0.047 A 
ATOM     22  C   UNL     1      -3.119  -1.505  -5.386  0.00  0.00    +0.004 A 
ATOM     23  C   UNL     1      -2.162  -1.297  -6.359  0.00  0.00    +0.000 A 
ATOM     24  C   UNL     1      -1.596  -0.044  -6.509  0.00  0.00    +0.000 A 
ATOM     25  C   UNL     1      -1.988   0.991  -5.685  0.00  0.00    +0.002 A 
ATOM     26  C   UNL     1      -2.949   0.783  -4.707  0.00  0.00    -0.061 A 
ATOM     27  C   UNL     1      -3.340   1.942  -3.828  0.00  0.00    -0.045 C 
ATOM     28  N   UNL     1      -4.621   1.676  -3.159  0.00  0.00    +0.389 N 
ATOM     29  H   UNL     1      -4.808   2.417  -2.475  0.00  0.00    -0.084 HD
ATOM     30  H   UNL     1      -5.372   1.657  -3.859  0.00  0.00    -0.084 HD
ENDBRANCH  16  19
ENDBRANCH   1  15
BRANCH   1  32
ATOM     31  C   UNL     1      -5.517   0.149   2.155  0.00  0.00    +0.009 C 
ATOM     32  C   UNL     1      -6.858   0.256   1.425  0.00  0.00    +0.012 C 
ATOM     33  C   UNL     1      -6.997   1.651   0.814  0.00  0.00    +0.009 C 
ENDBRANCH   1  32
TORSDOF 5
