REMARK  Name = ZINC59385156
REMARK  7 active torsions:
REMARK  status: ('A' for Active; 'I' for Inactive)
REMARK    1  A    between atoms: C_1  and  C_2
REMARK    2  A    between atoms: C_3  and  C_17
REMARK    3  A    between atoms: C_4  and  C_10
REMARK    4  A    between atoms: C_15  and  O_16
REMARK    5  A    between atoms: N_19  and  N_20
REMARK    6  A    between atoms: C_21  and  C_22
REMARK    7  A    between atoms: C_27  and  N_28
REMARK                            x       y       z     vdW  Elec       q    Type
REMARK                         _______ _______ _______ _____ _____    ______ ____
ROOT
ATOM      1  C   UNL     1      -0.252   1.494  -0.551  0.00  0.00    +0.061 C 
ATOM      2  C   UNL     1      -0.114   0.008  -0.343  0.00  0.00    +0.017 C 
ATOM      3  C   UNL     1      -1.222  -0.763  -0.308  0.00  0.00    +0.057 C 
ATOM      4  C   UNL     1      -1.039  -2.252  -0.097  0.00  0.00    +0.143 C 
ATOM      5  N   UNL     1       0.342  -2.740   0.053  0.00  0.00    -0.315 N 
ATOM      6  C   UNL     1       1.348  -1.845  -0.005  0.00  0.00    +0.135 C 
ATOM      7  S   UNL     1       2.959  -2.398   0.167  0.00  0.00    -0.019 S 
ATOM      8  N   UNL     1       1.129  -0.538  -0.199  0.00  0.00    -0.300 N 
ATOM      9  H   UNL     1       0.523  -3.683   0.190  0.00  0.00    +0.149 HD
ATOM     10  H   UNL     1       1.896   0.054  -0.235  0.00  0.00    +0.154 HD
ENDROOT
BRANCH   4  11
ATOM     11  C   UNL     1      -1.806  -2.644   1.139  0.00  0.00    +0.019 A 
ATOM     12  C   UNL     1      -2.187  -1.679   2.052  0.00  0.00    +0.009 A 
ATOM     13  C   UNL     1      -2.890  -2.038   3.186  0.00  0.00    +0.001 A 
ATOM     14  C   UNL     1      -3.215  -3.364   3.411  0.00  0.00    +0.004 A 
ATOM     15  C   UNL     1      -2.838  -4.332   2.501  0.00  0.00    +0.046 A 
ATOM     16  C   UNL     1      -2.136  -3.973   1.359  0.00  0.00    +0.122 A 
BRANCH  16  17
ATOM     17  O   UNL     1      -1.768  -4.924   0.460  0.00  0.00    -0.506 OA
ATOM     18  H   UNL     1      -0.901  -5.315   0.634  0.00  0.00    +0.292 HD
ENDBRANCH  16  17
ENDBRANCH   4  11
BRANCH   3  19
ATOM     19  C   UNL     1      -2.512  -0.198  -0.462  0.00  0.00    +0.263 C 
ATOM     20  O   UNL     1      -2.644   1.011  -0.524  0.00  0.00    -0.269 OA
ATOM     21  N   UNL     1      -3.593  -0.999  -0.541  0.00  0.00    -0.203 N 
ATOM     22  H   UNL     1      -3.497  -1.956  -0.419  0.00  0.00    +0.178 HD
BRANCH  21  23
ATOM     23  N   UNL     1      -4.855  -0.448  -0.797  0.00  0.00    -0.187 NA
ATOM     24  C   UNL     1      -5.896  -1.219  -0.873  0.00  0.00    +0.140 C 
BRANCH  24  25
ATOM     25  C   UNL     1      -7.225  -0.640  -1.143  0.00  0.00    +0.025 A 
ATOM     26  C   UNL     1      -7.389   0.747  -1.197  0.00  0.00    +0.012 A 
ATOM     27  C   UNL     1      -8.634   1.282  -1.450  0.00  0.00    +0.001 A 
ATOM     28  C   UNL     1      -9.721   0.449  -1.652  0.00  0.00    +0.002 A 
ATOM     29  C   UNL     1      -9.567  -0.925  -1.600  0.00  0.00    +0.033 A 
ATOM     30  C   UNL     1      -8.325  -1.474  -1.353  0.00  0.00    +0.135 A 
BRANCH  30  31
ATOM     31  N   UNL     1      -8.161  -2.945  -1.305  0.00  0.00    +0.057 N 
ATOM     32  O   UNL     1      -9.088  -3.666  -1.590  0.00  0.00    -0.126 OA
ATOM     33  O   UNL     1      -7.100  -3.424  -0.980  0.00  0.00    -0.126 OA
ENDBRANCH  30  31
ENDBRANCH  24  25
ENDBRANCH  21  23
ENDBRANCH   3  19
TORSDOF 6
