REMARK  Name = ZINC08338580
REMARK  7 active torsions:
REMARK  status: ('A' for Active; 'I' for Inactive)
REMARK    1  A    between atoms: C_1  and  C_2
REMARK    2  A    between atoms: C_2  and  C_3
REMARK    3  A    between atoms: C_6  and  C_9
REMARK    4  A    between atoms: C_11  and  C_22
REMARK    5  A    between atoms: C_12  and  O_21
REMARK    6  A    between atoms: C_22  and  C_24
REMARK    7  A    between atoms: C_25  and  C_26
REMARK                            x       y       z     vdW  Elec       q    Type
REMARK                         _______ _______ _______ _____ _____    ______ ____
ROOT
ATOM      1  C   UNL     1      -1.332   2.114   0.020  0.00  0.00    +0.151 C 
ATOM      2  C   UNL     1      -1.631   2.624   1.410  0.00  0.00    +0.071 C 
ATOM      3  C   UNL     1      -1.711   3.972   1.322  0.00  0.00    +0.189 C 
ATOM      4  C   UNL     1      -1.476   4.383  -0.076  0.00  0.00    +0.288 C 
ATOM      5  O   UNL     1      -1.483   5.530  -0.476  0.00  0.00    -0.266 OA
ATOM      6  N   UNL     1      -1.254   3.299  -0.843  0.00  0.00    -0.232 N 
ATOM      7  C   UNL     1      -0.997   3.300  -2.207  0.00  0.00    +0.168 A 
ATOM      8  N   UNL     1      -0.915   4.325  -3.034  0.00  0.00    -0.233 NA
ATOM      9  C   UNL     1      -0.660   4.150  -4.315  0.00  0.00    +0.120 A 
ATOM     10  C   UNL     1      -0.481   2.886  -4.772  0.00  0.00    +0.068 A 
ATOM     11  S   UNL     1      -0.693   1.954  -3.261  0.00  0.00    -0.060 S 
ENDROOT
BRANCH   1  15
ATOM     12  C   UNL     1       2.396   0.029  -0.022  0.00  0.00    -0.048 A 
ATOM     13  C   UNL     1       1.208  -0.679  -0.014  0.00  0.00    +0.004 A 
ATOM     14  C   UNL     1       0.002  -0.004   0.002  0.00  0.00    +0.006 A 
ATOM     15  C   UNL     1      -0.017   1.378   0.010  0.00  0.00    -0.022 A 
ATOM     16  C   UNL     1       1.171   2.086   0.002  0.00  0.00    +0.006 A 
ATOM     17  C   UNL     1       2.377   1.411  -0.014  0.00  0.00    +0.004 A 
BRANCH  12  19
ATOM     18  C   UNL     1       4.142  -0.948  -1.488  0.00  0.00    +0.009 C 
ATOM     19  C   UNL     1       3.711  -0.707  -0.039  0.00  0.00    +0.032 C 
ENDBRANCH  12  19
ENDBRANCH   1  15
BRANCH   3  20
ATOM     20  O   UNL     1      -1.966   4.811   2.353  0.00  0.00    -0.502 OA
ATOM     21  H   UNL     1      -1.971   5.755   2.022  0.00  0.00    +0.292 HD
ENDBRANCH   3  20
BRANCH   2  22
ATOM     22  C   UNL     1      -1.802   1.814   2.622  0.00  0.00    +0.188 C 
ATOM     23  O   UNL     1      -2.042   2.355   3.687  0.00  0.00    -0.287 OA
BRANCH  22  24
ATOM     24  C   UNL     1      -1.683   0.357   2.551  0.00  0.00    +0.052 C 
ATOM     25  C   UNL     1      -1.841  -0.389   3.666  0.00  0.00    +0.011 C 
BRANCH  25  26
ATOM     26  C   UNL     1      -1.722  -1.853   3.595  0.00  0.00    -0.025 A 
ATOM     27  C   UNL     1      -1.452  -2.478   2.373  0.00  0.00    +0.008 A 
ATOM     28  C   UNL     1      -1.337  -3.851   2.315  0.00  0.00    +0.001 A 
ATOM     29  C   UNL     1      -1.498  -4.611   3.460  0.00  0.00    +0.000 A 
ATOM     30  C   UNL     1      -1.771  -4.001   4.673  0.00  0.00    +0.001 A 
ATOM     31  C   UNL     1      -1.884  -2.629   4.748  0.00  0.00    +0.008 A 
ENDBRANCH  25  26
ENDBRANCH  22  24
ENDBRANCH   2  22
TORSDOF 6
