REMARK  Name = ZINC38902726
REMARK  7 active torsions:
REMARK  status: ('A' for Active; 'I' for Inactive)
REMARK    1  A    between atoms: C_1  and  C_2
REMARK    2  A    between atoms: N_11  and  C_12
REMARK    3  A    between atoms: C_12  and  C_13
REMARK    4  A    between atoms: C_13  and  N_14
REMARK    5  A    between atoms: C_15  and  C_20
REMARK    6  A    between atoms: C_17  and  C_19
REMARK    7  A    between atoms: C_21  and  C_23
REMARK                            x       y       z     vdW  Elec       q    Type
REMARK                         _______ _______ _______ _____ _____    ______ ____
ROOT
ATOM      1  C   UNL     1      -3.397  -1.797   1.031  0.00  0.00    +0.046 C 
ATOM      2  C   UNL     1      -1.960  -1.877   0.583  0.00  0.00    -0.023 A 
ATOM      3  C   UNL     1      -1.667  -2.326  -0.678  0.00  0.00    +0.025 A 
ATOM      4  C   UNL     1      -0.358  -2.415  -1.131  0.00  0.00    +0.042 A 
ATOM      5  C   UNL     1       0.676  -2.042  -0.290  0.00  0.00    +0.037 A 
ATOM      6  C   UNL     1       0.391  -1.591   0.975  0.00  0.00    +0.042 A 
ATOM      7  C   UNL     1      -0.930  -1.482   1.467  0.00  0.00    +0.083 A 
ATOM      8  N   UNL     1      -1.047  -1.016   2.730  0.00  0.00    -0.224 NA
ATOM      9  C   UNL     1      -0.007  -0.680   3.457  0.00  0.00    +0.168 A 
ATOM     10  S   UNL     1       1.357  -1.023   2.354  0.00  0.00    -0.052 S 
ATOM     11  N   UNL     1       0.025  -0.193   4.752  0.00  0.00    -0.244 N 
ATOM     12  C   UNL     1      -0.103   1.130   4.978  0.00  0.00    +0.259 C 
ATOM     13  O   UNL     1       0.006   1.568   6.108  0.00  0.00    -0.269 OA
ATOM     14 CL   UNL     1      -0.021  -2.989  -2.734  0.00  0.00    -0.083 Cl
ENDROOT
BRANCH  12  15
ATOM     15  C   UNL     1      -0.375   2.039   3.863  0.00  0.00    +0.075 A 
ATOM     16  C   UNL     1      -0.644   3.400   3.891  0.00  0.00    +0.022 A 
ATOM     17  C   UNL     1      -0.860   3.991   2.670  0.00  0.00    +0.024 A 
ATOM     18  C   UNL     1      -0.800   3.228   1.548  0.00  0.00    +0.056 A 
ATOM     19  S   UNL     1      -0.441   1.689   2.116  0.00  0.00    -0.077 S 
ATOM     20 BR   UNL     1      -1.054   3.775  -0.244  0.00  0.00    -0.043 Br
ENDBRANCH  12  15
BRANCH  11  21
ATOM     21  C   UNL     1       0.200  -1.114   5.877  0.00  0.00    +0.139 C 
BRANCH  21  22
ATOM     22  C   UNL     1       1.691  -1.280   6.175  0.00  0.00    +0.163 C 
BRANCH  22  23
ATOM     23  N   UNL     1       1.866  -2.201   7.300  0.00  0.00    -0.267 N 
ATOM     24  C   UNL     1       1.909  -1.861   8.605  0.00  0.00    +0.036 A 
ATOM     25  C   UNL     1       2.082  -2.996   9.322  0.00  0.00    +0.047 A 
ATOM     26  C   UNL     1       2.146  -4.066   8.424  0.00  0.00    +0.060 A 
ATOM     27  N   UNL     1       2.010  -3.592   7.212  0.00  0.00    -0.176 NA
ATOM     28  C   UNL     1       2.332  -5.517   8.789  0.00  0.00    +0.067 C 
ATOM     29  C   UNL     1       1.788  -0.467   9.165  0.00  0.00    +0.065 C 
ENDBRANCH  22  23
ENDBRANCH  21  22
ENDBRANCH  11  21
TORSDOF 4
