REMARK  Name = ZINC08800174
REMARK  7 active torsions:
REMARK  status: ('A' for Active; 'I' for Inactive)
REMARK    1  A    between atoms: C_1  and  N_2
REMARK    2  A    between atoms: C_10  and  C_12
REMARK    3  A    between atoms: C_12  and  C_14
REMARK    4  A    between atoms: C_12  and  N_60
REMARK    5  A    between atoms: C_14  and  N_15
REMARK    6  A    between atoms: N_15  and  S_16
REMARK    7  A    between atoms: S_16  and  C_19
REMARK                            x       y       z     vdW  Elec       q    Type
REMARK                         _______ _______ _______ _____ _____    ______ ____
ROOT
ATOM      1  C   UNL     1      -0.587   2.438   2.070  0.00  0.00    -0.022 C 
ENDROOT
BRANCH   1  11
ATOM      2  C   UNL     1       4.189  -0.002   5.408  0.00  0.00    +0.129 C 
ATOM      3  N   UNL     1       2.792  -0.388   5.648  0.00  0.00    -0.333 N 
ATOM      4  C   UNL     1       2.448  -0.258   7.065  0.00  0.00    +0.105 C 
ATOM      5  C   UNL     1       0.976  -0.647   7.250  0.00  0.00    +0.024 C 
ATOM      6  C   UNL     1       0.117   0.423   6.571  0.00  0.00    +0.038 C 
ATOM      7  C   UNL     1       0.660   0.710   5.194  0.00  0.00    -0.026 A 
ATOM      8  C   UNL     1       1.929   0.314   4.808  0.00  0.00    +0.033 A 
ATOM      9  C   UNL     1       2.380   0.618   3.522  0.00  0.00    +0.023 A 
ATOM     10  C   UNL     1       1.568   1.297   2.640  0.00  0.00    +0.004 A 
ATOM     11  C   UNL     1       0.302   1.692   3.031  0.00  0.00    -0.059 A 
ATOM     12  C   UNL     1      -0.149   1.397   4.303  0.00  0.00    +0.007 A 
ENDBRANCH   1  11
BRANCH   1  18
ATOM     13  C   UNL     1       1.308   3.740   1.311  0.00  0.00    -0.078 C 
ATOM     14  C   UNL     1       1.774   5.157   0.969  0.00  0.00    -0.019 C 
ATOM     15  C   UNL     1       1.745   6.018   2.235  0.00  0.00    -0.004 C 
ATOM     16  C   UNL     1       0.326   6.015   2.812  0.00  0.00    -0.019 C 
ATOM     17  C   UNL     1      -0.098   4.573   3.100  0.00  0.00    -0.078 C 
ATOM     18  N   UNL     1      -0.072   3.804   1.839  0.00  0.00    +0.385 N 
ATOM     19  H   UNL     1      -0.670   4.273   1.149  0.00  0.00    -0.081 HD
ENDBRANCH   1  18
BRANCH   1  20
ATOM     20  C   UNL     1      -0.631   1.694   0.734  0.00  0.00    +0.095 C 
BRANCH  20  21
ATOM     21  N   UNL     1      -1.397   2.478  -0.237  0.00  0.00    -0.191 NA
ATOM     22  H   UNL     1      -1.958   3.210   0.064  0.00  0.00    +0.148 HD
BRANCH  21  23
ATOM     23  S   UNL     1      -1.306   2.117  -1.851  0.00  0.00    +0.061 S 
ATOM     24  O   UNL     1      -2.169   3.025  -2.521  0.00  0.00    -0.153 OA
ATOM     25  O   UNL     1       0.076   2.007  -2.165  0.00  0.00    -0.153 OA
BRANCH  23  26
ATOM     26  C   UNL     1      -1.999   0.511  -2.065  0.00  0.00    +0.143 A 
ATOM     27  C   UNL     1      -3.161   0.352  -2.796  0.00  0.00    +0.069 A 
ATOM     28  C   UNL     1      -3.704  -0.910  -2.967  0.00  0.00    +0.125 A 
ATOM     29  C   UNL     1      -3.088  -2.011  -2.399  0.00  0.00    +0.041 A 
ATOM     30  C   UNL     1      -1.929  -1.852  -1.664  0.00  0.00    +0.043 A 
ATOM     31  C   UNL     1      -1.383  -0.591  -1.496  0.00  0.00    +0.150 A 
ATOM     32  F   UNL     1      -0.250  -0.435  -0.778  0.00  0.00    -0.203 F 
ATOM     33  F   UNL     1      -4.838  -1.065  -3.686  0.00  0.00    -0.205 F 
ENDBRANCH  23  26
ENDBRANCH  21  23
ENDBRANCH  20  21
ENDBRANCH   1  20
TORSDOF 6
