REMARK  Name = ZINC13062690
REMARK  12 active torsions:
REMARK  status: ('A' for Active; 'I' for Inactive)
REMARK    1  A    between atoms: C_1  and  N_2
REMARK    2  A    between atoms: C_3  and  C_24
REMARK    3  A    between atoms: C_6  and  S_7
REMARK    4  A    between atoms: S_7  and  C_8
REMARK    5  A    between atoms: C_8  and  C_9
REMARK    6  A    between atoms: N_11  and  C_12
REMARK    7  A    between atoms: C_12  and  C_13
REMARK    8  A    between atoms: C_13  and  C_14
REMARK    9  A    between atoms: C_17  and  S_20
REMARK   10  A    between atoms: S_20  and  N_23
REMARK   11  A    between atoms: C_24  and  O_25
REMARK   12  A    between atoms: O_25  and  C_26
REMARK                            x       y       z     vdW  Elec       q    Type
REMARK                         _______ _______ _______ _____ _____    ______ ____
ROOT
ATOM      1  C   UNL     1       0.585  -0.664  -1.018  0.00  0.00    +0.223 C 
ATOM      2  O   UNL     1       1.093  -0.046  -1.929  0.00  0.00    -0.275 OA
ATOM      3  N   UNL     1       0.002  -0.004   0.002  0.00  0.00    -0.314 N 
ATOM      4  H   UNL     1      -0.404  -0.499   0.731  0.00  0.00    +0.149 HD
ENDROOT
BRANCH   1   5
ATOM      5  C   UNL     1       0.606  -2.171  -1.026  0.00  0.00    +0.173 C 
BRANCH   5   6
ATOM      6  S   UNL     1       1.453  -2.755  -2.515  0.00  0.00    -0.077 S 
BRANCH   6  12
ATOM      7  C   UNL     1       2.515  -5.274  -4.376  0.00  0.00    +0.153 C 
ATOM      8  N   UNL     1       1.809  -5.467  -3.107  0.00  0.00    -0.306 N 
ATOM      9  C   UNL     1       1.491  -6.656  -2.511  0.00  0.00    +0.172 A 
ATOM     10  N   UNL     1       0.863  -6.379  -1.404  0.00  0.00    -0.130 NA
ATOM     11  N   UNL     1       0.766  -5.106  -1.258  0.00  0.00    -0.122 NA
ATOM     12  C   UNL     1       1.334  -4.496  -2.272  0.00  0.00    +0.192 A 
BRANCH   9  13
ATOM     13  C   UNL     1       1.805  -8.032  -3.040  0.00  0.00    +0.305 C 
BRANCH  13  14
ATOM     14  O   UNL     1       0.731  -8.479  -3.870  0.00  0.00    -0.484 OA
BRANCH  14  15
ATOM     15  C   UNL     1       0.856  -9.711  -4.430  0.00  0.00    +0.121 A 
ATOM     16  C   UNL     1       1.992 -10.471  -4.191  0.00  0.00    +0.047 A 
ATOM     17  C   UNL     1       2.116 -11.725  -4.758  0.00  0.00    +0.023 A 
ATOM     18  C   UNL     1       1.112 -12.218  -5.572  0.00  0.00    +0.041 A 
ATOM     19  C   UNL     1      -0.019 -11.460  -5.816  0.00  0.00    +0.023 A 
ATOM     20  C   UNL     1      -0.149 -10.208  -5.247  0.00  0.00    +0.047 A 
ATOM     21 CL   UNL     1       1.272 -13.792  -6.288  0.00  0.00    -0.084 Cl
ENDBRANCH  14  15
ENDBRANCH  13  14
ENDBRANCH   9  13
ENDBRANCH   6  12
ENDBRANCH   5   6
ENDBRANCH   1   5
BRANCH   3  22
ATOM     22  C   UNL     1      -0.018   1.461   0.010  0.00  0.00    +0.109 C 
BRANCH  22  23
ATOM     23  C   UNL     1      -0.734   1.954   1.269  0.00  0.00    +0.054 C 
BRANCH  23  24
ATOM     24  C   UNL     1      -0.754   3.461   1.277  0.00  0.00    -0.046 A 
ATOM     25  C   UNL     1       0.276   4.163   1.875  0.00  0.00    +0.005 A 
ATOM     26  C   UNL     1       0.259   5.545   1.878  0.00  0.00    +0.029 A 
ATOM     27  C   UNL     1      -0.792   6.225   1.293  0.00  0.00    +0.105 A 
ATOM     28  C   UNL     1      -1.825   5.523   0.700  0.00  0.00    +0.029 A 
ATOM     29  C   UNL     1      -1.806   4.141   0.692  0.00  0.00    +0.005 A 
BRANCH  27  30
ATOM     30  S   UNL     1      -0.815   7.987   1.301  0.00  0.00    +0.056 S 
ATOM     31  O   UNL     1       0.534   8.411   1.437  0.00  0.00    -0.153 OA
ATOM     32  O   UNL     1      -1.633   8.388   0.211  0.00  0.00    -0.153 OA
BRANCH  30  33
ATOM     33  N   UNL     1      -1.601   8.460   2.681  0.00  0.00    -0.204 NA
ATOM     34  H   UNL     1      -1.942   7.793   3.297  0.00  0.00    +0.144 HD
ATOM     35  H   UNL     1      -1.719   9.403   2.872  0.00  0.00    +0.144 HD
ENDBRANCH  30  33
ENDBRANCH  27  30
ENDBRANCH  23  24
ENDBRANCH  22  23
ENDBRANCH   3  22
TORSDOF 11
