REMARK  Name = ZINC08645109
REMARK  6 active torsions:
REMARK  status: ('A' for Active; 'I' for Inactive)
REMARK    1  A    between atoms: C_1  and  C_2
REMARK    2  A    between atoms: C_8  and  N_10
REMARK    3  A    between atoms: C_11  and  C_13
REMARK    4  A    between atoms: C_13  and  N_14
REMARK    5  A    between atoms: C_17  and  C_21
REMARK    6  A    between atoms: C_17  and  C_22
REMARK                            x       y       z     vdW  Elec       q    Type
REMARK                         _______ _______ _______ _____ _____    ______ ____
ROOT
ATOM      1  N   UNL     1       3.153  -1.607   1.777  0.00  0.00    -0.215 N 
ATOM      2  C   UNL     1       2.071  -0.961   1.302  0.00  0.00    +0.251 C 
ATOM      3  O   UNL     1       0.980  -0.875   1.825  0.00  0.00    -0.272 OA
ATOM      4  C   UNL     1       2.500  -0.361  -0.023  0.00  0.00    +0.136 C 
ATOM      5  N   UNL     1       3.906  -0.779  -0.152  0.00  0.00    -0.281 N 
ATOM      6  C   UNL     1       4.196  -1.501   0.945  0.00  0.00    +0.310 C 
ATOM      7  O   UNL     1       5.283  -2.001   1.158  0.00  0.00    -0.252 OA
ATOM      8  C   UNL     1       1.662  -0.928  -1.171  0.00  0.00    +0.047 C 
ATOM      9  H   UNL     1       4.507  -0.573  -0.886  0.00  0.00    +0.152 HD
ENDROOT
BRANCH   4  10
ATOM     10  C   UNL     1       2.394   1.142   0.017  0.00  0.00    -0.008 A 
ATOM     11  C   UNL     1       3.511   1.910  -0.113  0.00  0.00    +0.007 A 
ATOM     12  C   UNL     1       3.433   3.300  -0.078  0.00  0.00    +0.001 A 
ATOM     13  C   UNL     1       2.239   3.932   0.086  0.00  0.00    +0.008 A 
ATOM     14  C   UNL     1       1.064   3.172   0.223  0.00  0.00    -0.018 A 
ATOM     15  C   UNL     1       1.143   1.758   0.188  0.00  0.00    -0.012 A 
ATOM     16  C   UNL     1      -0.032   0.999   0.325  0.00  0.00    +0.009 A 
ATOM     17  C   UNL     1      -1.227   1.630   0.483  0.00  0.00    +0.001 A 
ATOM     18  C   UNL     1      -1.304   3.021   0.523  0.00  0.00    +0.001 A 
ATOM     19  C   UNL     1      -0.187   3.789   0.394  0.00  0.00    +0.008 A 
ENDBRANCH   4  10
BRANCH   1  20
ATOM     20  C   UNL     1       3.185  -2.337   3.047  0.00  0.00    +0.213 C 
BRANCH  20  22
ATOM     21  N   UNL     1       3.709  -1.857   5.416  0.00  0.00    -0.311 N 
ATOM     22  C   UNL     1       3.609  -1.403   4.152  0.00  0.00    +0.231 C 
ATOM     23  O   UNL     1       3.860  -0.243   3.902  0.00  0.00    -0.274 OA
ATOM     24  H   UNL     1       3.508  -2.785   5.616  0.00  0.00    +0.149 HD
BRANCH  21  31
ATOM     25  C   UNL     1       5.969  -2.515   7.104  0.00  0.00    +0.009 C 
ATOM     26  C   UNL     1       4.747  -1.758   7.628  0.00  0.00    +0.006 C 
ATOM     27  C   UNL     1       5.178  -0.810   8.750  0.00  0.00    +0.005 C 
ATOM     28  C   UNL     1       3.956  -0.052   9.274  0.00  0.00    +0.000 C 
ATOM     29  C   UNL     1       3.330   0.755   8.136  0.00  0.00    +0.002 C 
ATOM     30  C   UNL     1       2.899  -0.192   7.015  0.00  0.00    +0.022 C 
ATOM     31  C   UNL     1       4.121  -0.950   6.490  0.00  0.00    +0.076 C 
ENDBRANCH  21  31
ENDBRANCH  20  22
ENDBRANCH   1  20
TORSDOF 4
