REMARK  Name = ZINC22395432
REMARK  8 active torsions:
REMARK  status: ('A' for Active; 'I' for Inactive)
REMARK    1  A    between atoms: C_3  and  N_8
REMARK    2  A    between atoms: N_8  and  C_9
REMARK    3  A    between atoms: N_8  and  S_25
REMARK    4  A    between atoms: C_9  and  C_10
REMARK    5  A    between atoms: N_12  and  C_13
REMARK    6  A    between atoms: C_13  and  C_14
REMARK    7  A    between atoms: C_17  and  N_20
REMARK    8  A    between atoms: S_25  and  C_28
REMARK                            x       y       z     vdW  Elec       q    Type
REMARK                         _______ _______ _______ _____ _____    ______ ____
ROOT
ATOM      1  N   UNL     1       4.258  -1.210  -1.596  0.00  0.00    -0.194 N 
ENDROOT
BRANCH   1   4
ATOM      2  C   UNL     1       6.538  -0.022  -4.223  0.00  0.00    +0.005 A 
ATOM      3  C   UNL     1       5.716  -0.853  -3.485  0.00  0.00    +0.025 A 
ATOM      4  C   UNL     1       5.089  -0.372  -2.343  0.00  0.00    +0.055 A 
ATOM      5  C   UNL     1       5.285   0.945  -1.948  0.00  0.00    +0.063 A 
ATOM      6  C   UNL     1       6.112   1.770  -2.687  0.00  0.00    +0.125 A 
ATOM      7  C   UNL     1       6.737   1.287  -3.825  0.00  0.00    +0.038 A 
ATOM      8  F   UNL     1       6.308   3.051  -2.302  0.00  0.00    -0.205 F 
ENDBRANCH   1   4
BRANCH   1   9
ATOM      9  S   UNL     1       4.623  -1.542  -0.015  0.00  0.00    +0.075 S 
ATOM     10  O   UNL     1       6.029  -1.385   0.119  0.00  0.00    -0.150 OA
ATOM     11  O   UNL     1       3.958  -2.756   0.309  0.00  0.00    -0.150 OA
BRANCH   9  12
ATOM     12  C   UNL     1       3.879  -0.283   0.967  0.00  0.00    +0.112 A 
ATOM     13  C   UNL     1       2.556  -0.400   1.353  0.00  0.00    +0.032 A 
ATOM     14  C   UNL     1       1.969   0.587   2.123  0.00  0.00    +0.051 A 
ATOM     15  C   UNL     1       2.705   1.697   2.510  0.00  0.00    +0.162 A 
ATOM     16  C   UNL     1       4.035   1.813   2.124  0.00  0.00    +0.164 A 
ATOM     17  C   UNL     1       4.618   0.820   1.351  0.00  0.00    +0.078 A 
ATOM     18  O   UNL     1       4.778   2.890   2.500  0.00  0.00    -0.485 OA
ATOM     19  C   UNL     1       4.059   4.040   2.957  0.00  0.00    +0.270 C 
ATOM     20  C   UNL     1       2.982   3.572   3.945  0.00  0.00    +0.270 C 
ATOM     21  O   UNL     1       2.111   2.664   3.261  0.00  0.00    -0.485 OA
ENDBRANCH   9  12
ENDBRANCH   1   9
BRANCH   1  22
ATOM     22  C   UNL     1       3.064  -1.795  -2.211  0.00  0.00    +0.227 C 
BRANCH  22  23
ATOM     23  C   UNL     1       1.921  -0.818  -2.117  0.00  0.00    +0.232 C 
ATOM     24  O   UNL     1       2.087   0.261  -1.588  0.00  0.00    -0.274 OA
ATOM     25  N   UNL     1       0.713  -1.143  -2.620  0.00  0.00    -0.310 N 
ATOM     26  H   UNL     1       0.562  -2.121  -3.099  0.00  0.00    +0.149 HD
BRANCH  25  27
ATOM     27  C   UNL     1      -0.398  -0.193  -2.529  0.00  0.00    +0.139 C 
BRANCH  27  28
ATOM     28  C   UNL     1      -1.627  -0.794  -3.162  0.00  0.00    -0.030 A 
ATOM     29  C   UNL     1      -1.877  -0.596  -4.507  0.00  0.00    +0.007 A 
ATOM     30  C   UNL     1      -2.999  -1.151  -5.091  0.00  0.00    +0.023 A 
ATOM     31  C   UNL     1      -3.882  -1.899  -4.323  0.00  0.00    +0.030 A 
ATOM     32  C   UNL     1      -3.630  -2.092  -2.971  0.00  0.00    +0.023 A 
ATOM     33  C   UNL     1      -2.503  -1.539  -2.394  0.00  0.00    +0.007 A 
BRANCH  31  34
ATOM     34  N   UNL     1      -5.020  -2.458  -4.909  0.00  0.00    -0.330 N 
ATOM     35  C   UNL     1      -4.978  -3.941  -4.847  0.00  0.00    +0.105 C 
ATOM     36  C   UNL     1      -6.463  -4.346  -5.029  0.00  0.00    +0.020 C 
ATOM     37  C   UNL     1      -7.219  -3.247  -4.247  0.00  0.00    +0.020 C 
ATOM     38  C   UNL     1      -6.243  -2.058  -4.179  0.00  0.00    +0.105 C 
ENDBRANCH  31  34
ENDBRANCH  27  28
ENDBRANCH  25  27
ENDBRANCH  22  23
ENDBRANCH   1  22
TORSDOF 8
