REMARK  Name = ZINC15902238
REMARK  6 active torsions:
REMARK  status: ('A' for Active; 'I' for Inactive)
REMARK    1  A    between atoms: C_6  and  S_7
REMARK    2  A    between atoms: S_7  and  N_10
REMARK    3  A    between atoms: C_13  and  C_16
REMARK    4  A    between atoms: N_18  and  N_19
REMARK    5  A    between atoms: C_20  and  C_22
REMARK    6  A    between atoms: C_22  and  C_23
REMARK                            x       y       z     vdW  Elec       q    Type
REMARK                         _______ _______ _______ _____ _____    ______ ____
ROOT
ATOM      1  C   UNL     1       1.206   3.279   5.696  0.00  0.00    +0.232 C 
ATOM      2  O   UNL     1       2.129   2.527   5.930  0.00  0.00    -0.274 OA
ATOM      3  N   UNL     1       0.201   3.409   6.585  0.00  0.00    -0.234 N 
ATOM      4  H   UNL     1      -0.536   4.011   6.397  0.00  0.00    +0.173 HD
ENDROOT
BRANCH   1   8
ATOM      5  N   UNL     1       1.154   4.329   1.596  0.00  0.00    -0.177 NA
ATOM      6  C   UNL     1      -0.107   4.535   2.322  0.00  0.00    +0.110 C 
ATOM      7  C   UNL     1      -0.069   3.702   3.612  0.00  0.00    +0.030 C 
ATOM      8  C   UNL     1       1.184   4.067   4.412  0.00  0.00    +0.079 C 
ATOM      9  C   UNL     1       2.431   3.736   3.589  0.00  0.00    +0.030 C 
ATOM     10  C   UNL     1       2.422   4.565   2.300  0.00  0.00    +0.110 C 
BRANCH   5  11
ATOM     11  S   UNL     1       1.146   3.847   0.011  0.00  0.00    +0.061 S 
ATOM     12  O   UNL     1       2.380   4.274  -0.549  0.00  0.00    -0.153 OA
ATOM     13  O   UNL     1      -0.110   4.239  -0.526  0.00  0.00    -0.153 OA
BRANCH  11  19
ATOM     14  C   UNL     1      -0.017   1.378   0.010  0.00  0.00    +0.030 A 
ATOM     15  C   UNL     1       0.002  -0.004   0.002  0.00  0.00    +0.022 A 
ATOM     16  C   UNL     1       1.210  -0.679  -0.013  0.00  0.00    +0.041 A 
ATOM     17  C   UNL     1       2.398   0.030  -0.021  0.00  0.00    +0.022 A 
ATOM     18  C   UNL     1       2.378   1.412  -0.013  0.00  0.00    +0.030 A 
ATOM     19  C   UNL     1       1.171   2.086   0.002  0.00  0.00    +0.106 A 
ATOM     20 CL   UNL     1       1.234  -2.415  -0.022  0.00  0.00    -0.084 Cl
ENDBRANCH  11  19
ENDBRANCH   5  11
ENDBRANCH   1   8
BRANCH   3  21
ATOM     21  N   UNL     1       0.223   2.677   7.779  0.00  0.00    -0.234 N 
ATOM     22  C   UNL     1      -0.782   2.808   8.667  0.00  0.00    +0.230 C 
ATOM     23  O   UNL     1      -1.705   3.559   8.433  0.00  0.00    -0.274 OA
ATOM     24  H   UNL     1       0.961   2.076   7.966  0.00  0.00    +0.173 HD
BRANCH  22  25
ATOM     25  C   UNL     1      -0.760   2.020   9.952  0.00  0.00    +0.104 C 
BRANCH  25  26
ATOM     26  C   UNL     1      -2.006   2.350  10.775  0.00  0.00    -0.020 C 
ATOM     27  C   UNL     1      -2.025   3.846  11.094  0.00  0.00    +0.011 C 
ATOM     28  C   UNL     1      -3.272   4.176  11.917  0.00  0.00    -0.010 C 
ATOM     29  C   UNL     1      -3.249   3.376  13.221  0.00  0.00    +0.007 C 
ATOM     30  C   UNL     1      -3.230   1.880  12.902  0.00  0.00    -0.010 C 
ATOM     31  C   UNL     1      -1.983   1.550  12.079  0.00  0.00    +0.011 C 
ATOM     32  C   UNL     1      -4.481   1.514  12.101  0.00  0.00    +0.007 C 
ATOM     33  C   UNL     1      -4.505   2.314  10.797  0.00  0.00    -0.010 C 
ATOM     34  C   UNL     1      -4.523   3.810  11.117  0.00  0.00    +0.007 C 
ATOM     35  C   UNL     1      -3.258   1.984   9.974  0.00  0.00    +0.011 C 
ENDBRANCH  25  26
ENDBRANCH  22  25
ENDBRANCH   3  21
TORSDOF 6
