REMARK  Name = ZINC13984727
REMARK  5 active torsions:
REMARK  status: ('A' for Active; 'I' for Inactive)
REMARK    1  A    between atoms: C_14  and  C_15
REMARK    2  A    between atoms: N_16  and  N_17
REMARK    3  A    between atoms: C_18  and  C_20
REMARK    4  A    between atoms: C_20  and  N_21
REMARK    5  A    between atoms: C_22  and  C_24
REMARK                            x       y       z     vdW  Elec       q    Type
REMARK                         _______ _______ _______ _____ _____    ______ ____
ROOT
ATOM      1  C   UNL     1      -1.184  -2.022   0.003  0.00  0.00    +0.139 C 
ATOM      2  N   UNL     1      -1.202  -0.721  -0.005  0.00  0.00    -0.188 NA
ENDROOT
BRANCH   1  16
ATOM      3  C   UNL     1      -2.461  -6.955  -0.326  0.00  0.00    +0.001 A 
ATOM      4  C   UNL     1      -1.261  -6.246  -0.334  0.00  0.00    +0.001 A 
ATOM      5  C   UNL     1      -1.232  -4.891  -0.227  0.00  0.00    +0.009 A 
ATOM      6  C   UNL     1      -2.437  -4.178  -0.109  0.00  0.00    -0.009 A 
ATOM      7  C   UNL     1      -3.699  -4.920  -0.096  0.00  0.00    -0.017 A 
ATOM      8  C   UNL     1      -3.659  -6.327  -0.211  0.00  0.00    +0.008 A 
ATOM      9  C   UNL     1      -4.914  -4.244   0.025  0.00  0.00    +0.017 A 
ATOM     10  C   UNL     1      -4.929  -2.853   0.139  0.00  0.00    -0.017 A 
ATOM     11  C   UNL     1      -6.145  -2.148   0.262  0.00  0.00    +0.008 A 
ATOM     12  C   UNL     1      -6.126  -0.794   0.371  0.00  0.00    +0.001 A 
ATOM     13  C   UNL     1      -4.931  -0.077   0.365  0.00  0.00    +0.001 A 
ATOM     14  C   UNL     1      -3.727  -0.697   0.249  0.00  0.00    +0.009 A 
ATOM     15  C   UNL     1      -3.675  -2.097   0.132  0.00  0.00    -0.009 A 
ATOM     16  C   UNL     1      -2.443  -2.773   0.011  0.00  0.00    +0.010 A 
ENDBRANCH   1  16
BRANCH   2  17
ATOM     17  N   UNL     1       0.002  -0.004  -0.013  0.00  0.00    -0.206 N 
ATOM     18  C   UNL     1      -0.016   1.343  -0.020  0.00  0.00    +0.249 C 
ATOM     19  O   UNL     1      -1.075   1.936  -0.026  0.00  0.00    -0.272 OA
ATOM     20  H   UNL     1       0.849  -0.478  -0.012  0.00  0.00    +0.177 HD
BRANCH  18  21
ATOM     21  C   UNL     1       1.278   2.115  -0.029  0.00  0.00    +0.201 C 
BRANCH  21  22
ATOM     22  N   UNL     1       0.991   3.551  -0.036  0.00  0.00    -0.306 N 
ATOM     23  C   UNL     1       2.003   4.441  -0.044  0.00  0.00    +0.217 C 
ATOM     24  O   UNL     1       3.152   4.052  -0.045  0.00  0.00    -0.276 OA
ATOM     25  H   UNL     1       0.072   3.862  -0.035  0.00  0.00    +0.149 HD
BRANCH  23  26
ATOM     26  C   UNL     1       1.708   5.919  -0.052  0.00  0.00    +0.075 C 
ATOM     27  C   UNL     1       0.897   6.270  -1.301  0.00  0.00    +0.013 C 
ATOM     28  C   UNL     1       0.597   7.770  -1.309  0.00  0.00    +0.001 C 
ATOM     29  C   UNL     1       1.911   8.553  -1.317  0.00  0.00    +0.000 C 
ATOM     30  C   UNL     1       2.722   8.202  -0.068  0.00  0.00    +0.001 C 
ATOM     31  C   UNL     1       3.022   6.702  -0.060  0.00  0.00    +0.013 C 
ENDBRANCH  23  26
ENDBRANCH  21  22
ENDBRANCH  18  21
ENDBRANCH   2  17
TORSDOF 5
