REMARK  Name = ZINC09130345
REMARK  5 active torsions:
REMARK  status: ('A' for Active; 'I' for Inactive)
REMARK    1  A    between atoms: C_3  and  C_6
REMARK    2  A    between atoms: C_9  and  C_28
REMARK    3  A    between atoms: C_13  and  C_16
REMARK    4  A    between atoms: N_18  and  C_19
REMARK    5  A    between atoms: C_24  and  O_25
REMARK                            x       y       z     vdW  Elec       q    Type
REMARK                         _______ _______ _______ _____ _____    ______ ____
ROOT
ATOM      1  C   UNL     1       3.564   0.625  -0.018  0.00  0.00    +0.140 C 
ATOM      2  C   UNL     1       4.049   0.363  -1.448  0.00  0.00    +0.066 C 
ATOM      3  C   UNL     1       3.451  -0.951  -1.966  0.00  0.00    +0.215 C 
ATOM      4  N   UNL     1       3.670  -1.998  -0.963  0.00  0.00    -0.238 N 
ATOM      5  C   UNL     1       3.950  -1.746   0.338  0.00  0.00    +0.130 A 
ATOM      6  C   UNL     1       4.094  -2.962   0.978  0.00  0.00    +0.096 A 
ATOM      7  C   UNL     1       3.885  -3.966  -0.001  0.00  0.00    +0.149 A 
ATOM      8  N   UNL     1       3.635  -3.381  -1.141  0.00  0.00    -0.177 NA
ATOM      9  N   UNL     1       4.053  -0.461   0.854  0.00  0.00    -0.319 N 
ATOM     10  H   UNL     1       4.426  -0.286   1.732  0.00  0.00    +0.148 HD
ENDROOT
BRANCH   1  13
ATOM     11  C   UNL     1      -0.052   1.333   0.050  0.00  0.00    +0.041 A 
ATOM     12  C   UNL     1       1.294   1.764   0.029  0.00  0.00    +0.046 A 
ATOM     13  C   UNL     1       2.058   0.657   0.009  0.00  0.00    +0.125 A 
ATOM     14  O   UNL     1       1.250  -0.416   0.017  0.00  0.00    -0.466 OA
ATOM     15  C   UNL     1      -0.030  -0.012   0.041  0.00  0.00    +0.195 A 
ENDBRANCH   1  13
BRANCH   6  16
ATOM     16  C   UNL     1       4.403  -3.174   2.397  0.00  0.00    +0.253 C 
ATOM     17  O   UNL     1       4.561  -2.219   3.134  0.00  0.00    -0.270 OA
ATOM     18  N   UNL     1       4.514  -4.426   2.883  0.00  0.00    -0.278 N 
ATOM     19  H   UNL     1       4.325  -5.187   2.311  0.00  0.00    +0.155 HD
BRANCH  18  20
ATOM     20  C   UNL     1       4.901  -4.629   4.214  0.00  0.00    +0.077 A 
ATOM     21  C   UNL     1       4.503  -3.736   5.198  0.00  0.00    +0.042 A 
ATOM     22  C   UNL     1       4.886  -3.939   6.511  0.00  0.00    +0.020 A 
ATOM     23  C   UNL     1       5.667  -5.031   6.846  0.00  0.00    +0.019 A 
ATOM     24  C   UNL     1       6.067  -5.925   5.870  0.00  0.00    +0.048 A 
ATOM     25  C   UNL     1       5.682  -5.732   4.554  0.00  0.00    +0.138 A 
ATOM     26 BR   UNL     1       4.343  -2.720   7.851  0.00  0.00    -0.050 Br
BRANCH  25  27
ATOM     27  O   UNL     1       6.070  -6.613   3.594  0.00  0.00    -0.505 OA
ATOM     28  H   UNL     1       6.914  -6.393   3.176  0.00  0.00    +0.292 HD
ENDBRANCH  25  27
ENDBRANCH  18  20
ENDBRANCH   6  16
BRANCH   3  29
ATOM     29  C   UNL     1       4.134  -1.343  -3.278  0.00  0.00    +0.412 C 
ATOM     30  F   UNL     1       5.505  -1.510  -3.058  0.00  0.00    -0.168 F 
ATOM     31  F   UNL     1       3.587  -2.541  -3.748  0.00  0.00    -0.168 F 
ATOM     32  F   UNL     1       3.933  -0.334  -4.227  0.00  0.00    -0.168 F 
ENDBRANCH   3  29
TORSDOF 5
