REMARK  Name = ZINC05158322
REMARK  9 active torsions:
REMARK  status: ('A' for Active; 'I' for Inactive)
REMARK    1  A    between atoms: C_1  and  C_2
REMARK    2  A    between atoms: C_2  and  C_3
REMARK    3  A    between atoms: C_3  and  C_28
REMARK    4  A    between atoms: C_10  and  N_17
REMARK    5  A    between atoms: C_12  and  S_14
REMARK    6  A    between atoms: S_14  and  C_15
REMARK    7  A    between atoms: C_15  and  C_16
REMARK    8  A    between atoms: N_17  and  N_18
REMARK    9  A    between atoms: C_19  and  C_21
REMARK                            x       y       z     vdW  Elec       q    Type
REMARK                         _______ _______ _______ _____ _____    ______ ____
ROOT
ATOM      1  C   UNL     1       9.441   1.573  -0.016  0.00  0.00    +0.071 C 
ATOM      2  C   UNL     1       8.207   0.718  -0.323  0.00  0.00    +0.071 C 
ATOM      3  C   UNL     1       8.632  -0.748  -0.308  0.00  0.00    -0.020 A 
ATOM      4  C   UNL     1       9.940  -1.064  -0.410  0.00  0.00    +0.021 A 
ATOM      5  S   UNL     1       9.994  -2.833  -0.350  0.00  0.00    -0.071 S 
ATOM      6  C   UNL     1       8.255  -3.147  -0.189  0.00  0.00    +0.115 A 
ATOM      7  C   UNL     1       7.686  -1.857  -0.187  0.00  0.00    +0.052 A 
ATOM      8  C   UNL     1       6.269  -1.812  -0.067  0.00  0.00    +0.148 A 
ATOM      9  N   UNL     1       5.593  -2.943   0.038  0.00  0.00    -0.205 NA
ATOM     10  C   UNL     1       6.192  -4.128   0.025  0.00  0.00    +0.191 A 
ATOM     11  N   UNL     1       7.510  -4.231  -0.086  0.00  0.00    -0.215 NA
ATOM     12  C   UNL     1      11.077  -0.098  -0.543  0.00  0.00    +0.203 C 
ATOM     13  O   UNL     1      10.527   1.189  -0.864  0.00  0.00    -0.368 OA
ATOM     14  C   UNL     1       9.844   1.375   1.446  0.00  0.00    +0.042 C 
ENDROOT
BRANCH   1  16
ATOM     15  C   UNL     1      10.334   3.904   0.068  0.00  0.00    +0.007 C 
ATOM     16  C   UNL     1       9.108   3.047  -0.253  0.00  0.00    +0.032 C 
ENDBRANCH   1  16
BRANCH   8  17
ATOM     17  N   UNL     1       5.607  -0.598  -0.054  0.00  0.00    -0.247 N 
ATOM     18  H   UNL     1       6.083   0.216  -0.280  0.00  0.00    +0.172 HD
BRANCH  17  19
ATOM     19  N   UNL     1       4.249  -0.544   0.286  0.00  0.00    -0.229 N 
ATOM     20  C   UNL     1       3.603   0.639   0.298  0.00  0.00    +0.295 C 
ATOM     21  O   UNL     1       4.200   1.661   0.015  0.00  0.00    -0.265 OA
ATOM     22  H   UNL     1       3.773  -1.359   0.512  0.00  0.00    +0.173 HD
BRANCH  20  23
ATOM     23  C   UNL     1       2.182   0.695   0.654  0.00  0.00    +0.190 A 
ATOM     24  C   UNL     1       1.411   1.821   0.706  0.00  0.00    +0.054 A 
ATOM     25  C   UNL     1       0.124   1.412   1.088  0.00  0.00    +0.042 A 
ATOM     26  C   UNL     1       0.164   0.071   1.250  0.00  0.00    +0.196 A 
ATOM     27  O   UNL     1       1.406  -0.357   0.988  0.00  0.00    -0.458 OA
ENDBRANCH  20  23
ENDBRANCH  17  19
ENDBRANCH   8  17
BRANCH  10  28
ATOM     28  S   UNL     1       5.220  -5.591   0.162  0.00  0.00    -0.086 S 
BRANCH  28  29
ATOM     29  C   UNL     1       6.524  -6.843   0.095  0.00  0.00    +0.074 C 
ATOM     30  C   UNL     1       5.900  -8.236   0.200  0.00  0.00    +0.016 C 
ENDBRANCH  28  29
ENDBRANCH  10  28
TORSDOF 6
