REMARK  Name = ZINC33937143
REMARK  15 active torsions:
REMARK  status: ('A' for Active; 'I' for Inactive)
REMARK    1  A    between atoms: C_1  and  C_2
REMARK    2  A    between atoms: C_2  and  C_3
REMARK    3  A    between atoms: C_3  and  C_5
REMARK    4  A    between atoms: C_3  and  N_19
REMARK    5  A    between atoms: N_9  and  C_10
REMARK    6  A    between atoms: C_10  and  C_11
REMARK    7  A    between atoms: C_14  and  O_17
REMARK    8  A    between atoms: O_17  and  C_18
REMARK    9  A    between atoms: N_19  and  C_20
REMARK   10  A    between atoms: N_19  and  C_36
REMARK   11  A    between atoms: C_20  and  C_21
REMARK   12  A    between atoms: C_25  and  O_33
REMARK   13  A    between atoms: O_33  and  C_34
REMARK   14  A    between atoms: C_34  and  C_35
REMARK   15  A    between atoms: C_36  and  C_37
REMARK                            x       y       z     vdW  Elec       q    Type
REMARK                         _______ _______ _______ _____ _____    ______ ____
ROOT
ATOM      1  N   UNL     1       2.079  -0.023  -1.308  0.00  0.00    +0.391 N 
ATOM      2  H   UNL     1       2.881  -0.172  -0.713  0.00  0.00    -0.080 HD
ENDROOT
BRANCH   1   3
ATOM      3  C   UNL     1       0.917  -0.726  -0.748  0.00  0.00    +0.003 C 
BRANCH   3   4
ATOM      4  C   UNL     1      -0.244  -0.613  -1.702  0.00  0.00    +0.138 A 
ATOM      5  N   UNL     1      -0.219  -0.828  -2.994  0.00  0.00    -0.115 NA
ATOM      6  N   UNL     1      -1.407  -0.630  -3.454  0.00  0.00    -0.023 NA
ATOM      7  N   UNL     1      -2.189  -0.296  -2.487  0.00  0.00    -0.044 NA
ATOM      8  N   UNL     1      -1.510  -0.279  -1.390  0.00  0.00    -0.226 N 
BRANCH   8   9
ATOM      9  C   UNL     1      -2.022   0.045  -0.056  0.00  0.00    +0.182 C 
BRANCH   9  10
ATOM     10  C   UNL     1      -1.888   1.527   0.186  0.00  0.00    -0.026 A 
ATOM     11  C   UNL     1      -0.733   2.032   0.752  0.00  0.00    +0.009 A 
ATOM     12  C   UNL     1      -0.608   3.390   0.976  0.00  0.00    +0.046 A 
ATOM     13  C   UNL     1      -1.644   4.246   0.631  0.00  0.00    +0.120 A 
ATOM     14  C   UNL     1      -2.802   3.736   0.062  0.00  0.00    +0.046 A 
ATOM     15  C   UNL     1      -2.920   2.379  -0.164  0.00  0.00    +0.009 A 
BRANCH  13  16
ATOM     16  O   UNL     1      -1.524   5.582   0.850  0.00  0.00    -0.495 OA
ATOM     17  C   UNL     1      -2.630   6.404   0.470  0.00  0.00    +0.277 C 
ENDBRANCH  13  16
ENDBRANCH   9  10
ENDBRANCH   8   9
ENDBRANCH   3   4
BRANCH   3  19
ATOM     18  C   UNL     1       2.401  -2.318   0.479  0.00  0.00    +0.002 C 
ATOM     19  C   UNL     1       1.265  -2.201  -0.539  0.00  0.00    -0.011 C 
ENDBRANCH   3  19
ENDBRANCH   1   3
BRANCH   1  20
ATOM     20  C   UNL     1       1.790   1.415  -1.388  0.00  0.00    -0.036 C 
BRANCH  20  21
ATOM     21  C   UNL     1       3.038   2.157  -1.793  0.00  0.00    +0.001 A 
ATOM     22  C   UNL     1       3.158   2.639  -3.055  0.00  0.00    +0.017 A 
ATOM     23  C   UNL     1       4.383   3.355  -3.417  0.00  0.00    +0.002 A 
ATOM     24  C   UNL     1       4.562   3.874  -4.704  0.00  0.00    +0.055 A 
ATOM     25  C   UNL     1       5.729   4.544  -5.011  0.00  0.00    +0.121 A 
ATOM     26  C   UNL     1       6.723   4.704  -4.048  0.00  0.00    +0.047 A 
ATOM     27  C   UNL     1       6.558   4.197  -2.779  0.00  0.00    +0.030 A 
ATOM     28  C   UNL     1       5.390   3.518  -2.448  0.00  0.00    +0.049 A 
ATOM     29  N   UNL     1       5.206   3.003  -1.180  0.00  0.00    -0.322 N 
ATOM     30  H   UNL     1       5.900   3.117  -0.513  0.00  0.00    +0.169 HD
ATOM     31  C   UNL     1       4.075   2.352  -0.856  0.00  0.00    +0.251 A 
ATOM     32  O   UNL     1       3.944   1.915   0.274  0.00  0.00    -0.268 OA
BRANCH  25  33
ATOM     33  O   UNL     1       5.909   5.051  -6.260  0.00  0.00    -0.492 OA
BRANCH  33  34
ATOM     34  C   UNL     1       7.139   5.733  -6.512  0.00  0.00    +0.225 C 
ATOM     35  C   UNL     1       7.159   6.229  -7.960  0.00  0.00    +0.048 C 
ENDBRANCH  33  34
ENDBRANCH  25  33
ENDBRANCH  20  21
ENDBRANCH   1  20
BRANCH   1  36
ATOM     36  C   UNL     1       2.364  -0.541  -2.652  0.00  0.00    -0.045 C 
BRANCH  36  37
ATOM     37  C   UNL     1       3.851  -0.361  -2.964  0.00  0.00    +0.102 C 
ATOM     38  C   UNL     1       4.147  -0.837  -4.403  0.00  0.00    +0.032 C 
ATOM     39  C   UNL     1       5.521  -1.542  -4.241  0.00  0.00    +0.030 C 
ATOM     40  C   UNL     1       5.378  -2.140  -2.819  0.00  0.00    +0.160 C 
ATOM     41  O   UNL     1       4.635  -1.161  -2.072  0.00  0.00    -0.378 OA
ENDBRANCH  36  37
ENDBRANCH   1  36
TORSDOF 12
