REMARK  Name = ZINC09727175
REMARK  4 active torsions:
REMARK  status: ('A' for Active; 'I' for Inactive)
REMARK    1  A    between atoms: C_7  and  C_11
REMARK    2  A    between atoms: C_17  and  C_19
REMARK    3  A    between atoms: C_19  and  C_20
REMARK    4  A    between atoms: C_20  and  N_21
REMARK                            x       y       z     vdW  Elec       q    Type
REMARK                         _______ _______ _______ _____ _____    ______ ____
ROOT
ATOM      1  C   UNL     1      -1.737   4.200   0.041  0.00  0.00    +0.082 A 
ATOM      2  C   UNL     1      -3.091   4.012   0.053  0.00  0.00    +0.077 A 
ATOM      3  S   UNL     1      -3.662   5.704   0.068  0.00  0.00    -0.060 S 
ATOM      4  C   UNL     1      -2.105   6.473   0.058  0.00  0.00    +0.165 A 
ATOM      5  N   UNL     1      -1.282   5.445   0.049  0.00  0.00    -0.225 NA
ATOM      6  N   UNL     1      -1.804   7.829   0.064  0.00  0.00    -0.265 N 
ATOM      7  C   UNL     1      -2.798   8.740   0.079  0.00  0.00    +0.220 C 
ATOM      8  O   UNL     1      -3.954   8.376   0.087  0.00  0.00    -0.275 OA
ATOM      9  H   UNL     1      -0.879   8.121   0.057  0.00  0.00    +0.157 HD
ENDROOT
BRANCH   1  16
ATOM     10  C   UNL     1       2.929   3.865  -0.006  0.00  0.00    +0.001 A 
ATOM     11  C   UNL     1       3.373   2.549  -0.017  0.00  0.00    +0.002 A 
ATOM     12  C   UNL     1       2.474   1.506  -0.013  0.00  0.00    +0.026 A 
ATOM     13  C   UNL     1       1.107   1.770   0.001  0.00  0.00    +0.047 A 
ATOM     14  C   UNL     1       0.665   3.104   0.012  0.00  0.00    +0.009 A 
ATOM     15  C   UNL     1       1.592   4.146   0.009  0.00  0.00    +0.010 A 
ATOM     16  C   UNL     1      -0.805   3.046   0.026  0.00  0.00    +0.026 A 
ATOM     17  C   UNL     1      -1.143   1.734   0.016  0.00  0.00    +0.093 A 
ATOM     18  N   UNL     1      -0.011   0.966   0.007  0.00  0.00    -0.360 N 
ATOM     19  H   UNL     1       0.002  -0.004   0.002  0.00  0.00    +0.165 HD
ENDBRANCH   1  16
BRANCH   7  20
ATOM     20  C   UNL     1      -2.471  10.211   0.085  0.00  0.00    +0.118 C 
BRANCH  20  21
ATOM     21  C   UNL     1      -3.769  11.022   0.102  0.00  0.00    +0.135 C 
BRANCH  21  22
ATOM     22  N   UNL     1      -3.451  12.452   0.108  0.00  0.00    -0.298 N 
ATOM     23  C   UNL     1      -3.301  13.095   1.295  0.00  0.00    +0.203 A 
ATOM     24  N   UNL     1      -3.014  14.368   1.342  0.00  0.00    -0.230 NA
ATOM     25  C   UNL     1      -2.869  15.078   0.227  0.00  0.00    +0.116 A 
ATOM     26  C   UNL     1      -3.010  14.502  -1.046  0.00  0.00    +0.076 A 
ATOM     27  C   UNL     1      -3.320  13.103  -1.063  0.00  0.00    +0.262 A 
ATOM     28  O   UNL     1      -3.461  12.512  -2.119  0.00  0.00    -0.267 OA
ATOM     29  C   UNL     1      -2.821  15.404  -2.181  0.00  0.00    -0.023 A 
ATOM     30  C   UNL     1      -2.533  16.692  -1.899  0.00  0.00    -0.004 A 
ATOM     31  S   UNL     1      -2.496  16.777  -0.128  0.00  0.00    -0.073 S 
ATOM     32  C   UNL     1      -2.297  17.805  -2.874  0.00  0.00    +0.043 C 
ATOM     33  C   UNL     1      -2.064  17.190  -4.262  0.00  0.00    +0.005 C 
ATOM     34  C   UNL     1      -3.155  16.149  -4.528  0.00  0.00    +0.005 C 
ATOM     35  C   UNL     1      -2.942  14.932  -3.627  0.00  0.00    +0.037 C 
ENDBRANCH  21  22
ENDBRANCH  20  21
ENDBRANCH   7  20
TORSDOF 4
