REMARK  Name = ZINC13054135
REMARK  6 active torsions:
REMARK  status: ('A' for Active; 'I' for Inactive)
REMARK    1  A    between atoms: C_8  and  C_10
REMARK    2  A    between atoms: C_8  and  N_14
REMARK    3  A    between atoms: C_15  and  C_16
REMARK    4  A    between atoms: C_15  and  N_20
REMARK    5  A    between atoms: N_20  and  C_21
REMARK    6  A    between atoms: C_21  and  C_22
REMARK                            x       y       z     vdW  Elec       q    Type
REMARK                         _______ _______ _______ _____ _____    ______ ____
ROOT
ATOM      1  N   UNL     1       2.905  -2.314   1.839  0.00  0.00    -0.177 NA
ATOM      2  C   UNL     1       2.589  -1.328   2.614  0.00  0.00    +0.221 C 
ENDROOT
BRANCH   1  10
ATOM      3  C   UNL     1      -1.122  -3.751  -0.878  0.00  0.00    +0.004 A 
ATOM      4  C   UNL     1      -1.471  -2.424  -0.711  0.00  0.00    +0.004 A 
ATOM      5  C   UNL     1      -0.502  -1.482  -0.419  0.00  0.00    +0.049 A 
ATOM      6  C   UNL     1       0.823  -1.867  -0.294  0.00  0.00    +0.169 A 
ATOM      7  C   UNL     1       1.175  -3.204  -0.462  0.00  0.00    +0.169 A 
ATOM      8  C   UNL     1       0.198  -4.143  -0.754  0.00  0.00    +0.049 A 
ATOM      9  O   UNL     1       2.523  -3.326  -0.290  0.00  0.00    -0.426 OA
ATOM     10  C   UNL     1       2.934  -2.123   0.387  0.00  0.00    +0.410 C 
ATOM     11  O   UNL     1       1.951  -1.151  -0.016  0.00  0.00    -0.426 OA
BRANCH  10  12
ATOM     12  C   UNL     1       4.330  -1.698  -0.073  0.00  0.00    +0.292 C 
ATOM     13 CL   UNL     1       4.311  -1.392  -1.849  0.00  0.00    -0.073 Cl
ATOM     14 CL   UNL     1       4.815  -0.192   0.792  0.00  0.00    -0.073 Cl
ATOM     15 CL   UNL     1       5.511  -3.010   0.298  0.00  0.00    -0.073 Cl
ENDBRANCH  10  12
ENDBRANCH   1  10
BRANCH   2  16
ATOM     16  C   UNL     1       1.912  -0.108   2.045  0.00  0.00    +0.449 C 
ATOM     17  F   UNL     1       0.695  -0.479   1.463  0.00  0.00    -0.163 F 
ATOM     18  F   UNL     1       1.677   0.816   3.068  0.00  0.00    -0.163 F 
ATOM     19  F   UNL     1       2.735   0.471   1.073  0.00  0.00    -0.163 F 
ENDBRANCH   2  16
BRANCH   2  20
ATOM     20  N   UNL     1       2.871  -1.392   3.953  0.00  0.00    -0.224 NA
BRANCH  20  21
ATOM     21  C   UNL     1       2.513  -0.276   4.832  0.00  0.00    +0.166 C 
BRANCH  21  22
ATOM     22  C   UNL     1       2.928  -0.595   6.245  0.00  0.00    -0.010 A 
ATOM     23  C   UNL     1       2.055  -1.248   7.102  0.00  0.00    +0.008 A 
ATOM     24  C   UNL     1       2.480  -1.522   8.393  0.00  0.00    +0.020 A 
ATOM     25  C   UNL     1       3.749  -1.137   8.780  0.00  0.00    +0.111 A 
ATOM     26  N   UNL     1       4.553  -0.517   7.938  0.00  0.00    -0.263 NA
ATOM     27  C   UNL     1       4.185  -0.246   6.701  0.00  0.00    +0.116 A 
ENDBRANCH  21  22
ENDBRANCH  20  21
ENDBRANCH   2  20
TORSDOF 6
