REMARK  Name = ZINC36558928
REMARK  11 active torsions:
REMARK  status: ('A' for Active; 'I' for Inactive)
REMARK    1  A    between atoms: C_1  and  C_2
REMARK    2  A    between atoms: C_5  and  C_7
REMARK    3  A    between atoms: C_7  and  N_8
REMARK    4  A    between atoms: N_8  and  C_9
REMARK    5  A    between atoms: C_9  and  C_11
REMARK    6  A    between atoms: C_9  and  C_20
REMARK    7  A    between atoms: N_22  and  C_23
REMARK    8  A    between atoms: C_23  and  C_24
REMARK    9  A    between atoms: C_23  and  C_25
REMARK   10  A    between atoms: C_23  and  C_26
REMARK   11  A    between atoms: C_27  and  C_29
REMARK                            x       y       z     vdW  Elec       q    Type
REMARK                         _______ _______ _______ _____ _____    ______ ____
ROOT
ATOM      1  C   UNL     1       3.297  -2.680  -2.792  0.00  0.00    +0.193 C 
ENDROOT
BRANCH   1   2
ATOM      2  C   UNL     1       2.834  -1.412  -3.461  0.00  0.00    -0.014 A 
ATOM      3  C   UNL     1       2.402  -0.346  -2.695  0.00  0.00    +0.010 A 
ATOM      4  C   UNL     1       1.977   0.820  -3.305  0.00  0.00    +0.050 A 
ATOM      5  C   UNL     1       1.982   0.921  -4.686  0.00  0.00    +0.166 A 
ATOM      6  C   UNL     1       2.417  -0.153  -5.458  0.00  0.00    +0.167 A 
ATOM      7  C   UNL     1       2.847  -1.316  -4.840  0.00  0.00    +0.055 A 
ATOM      8  O   UNL     1       2.327   0.191  -6.776  0.00  0.00    -0.453 OA
ATOM      9  C   UNL     1       1.451   1.333  -6.816  0.00  0.00    +0.466 C 
ATOM     10  O   UNL     1       1.619   1.939  -5.521  0.00  0.00    -0.453 OA
ENDBRANCH   1   2
BRANCH   1  11
ATOM     11  C   UNL     1       4.798  -2.780  -2.887  0.00  0.00    +0.239 C 
ATOM     12  O   UNL     1       5.414  -3.445  -2.082  0.00  0.00    -0.273 OA
ATOM     13  N   UNL     1       5.455  -2.130  -3.868  0.00  0.00    -0.309 N 
ATOM     14  H   UNL     1       4.970  -1.549  -4.475  0.00  0.00    +0.149 HD
BRANCH  13  15
ATOM     15  C   UNL     1       6.903  -2.299  -4.017  0.00  0.00    +0.026 C 
ATOM     16  C   UNL     1       7.216  -3.766  -4.318  0.00  0.00    +0.031 C 
ATOM     17  C   UNL     1       7.403  -1.425  -5.169  0.00  0.00    +0.031 C 
ATOM     18  C   UNL     1       7.601  -1.884  -2.721  0.00  0.00    +0.031 C 
ENDBRANCH  13  15
ENDBRANCH   1  11
BRANCH   1  19
ATOM     19  N   UNL     1       2.898  -2.662  -1.382  0.00  0.00    -0.275 N 
ATOM     20  C   UNL     1       1.699  -2.159  -1.028  0.00  0.00    +0.248 C 
ATOM     21  O   UNL     1       1.431  -1.998   0.147  0.00  0.00    -0.270 OA
BRANCH  20  22
ATOM     22  C   UNL     1       0.711  -1.802  -2.067  0.00  0.00    +0.037 A 
ATOM     23  C   UNL     1       0.845  -2.304  -3.363  0.00  0.00    +0.014 A 
ATOM     24  C   UNL     1      -0.080  -1.968  -4.329  0.00  0.00    +0.021 A 
ATOM     25  C   UNL     1      -1.141  -1.135  -4.015  0.00  0.00    +0.041 A 
ATOM     26  C   UNL     1      -1.280  -0.634  -2.731  0.00  0.00    +0.021 A 
ATOM     27  C   UNL     1      -0.364  -0.967  -1.756  0.00  0.00    +0.014 A 
ATOM     28 CL   UNL     1      -2.302  -0.715  -5.236  0.00  0.00    -0.084 Cl
ENDBRANCH  20  22
BRANCH  19  29
ATOM     29  C   UNL     1       3.802  -3.191  -0.358  0.00  0.00    +0.183 C 
BRANCH  29  34
ATOM     30  C   UNL     1       2.041  -7.787   0.746  0.00  0.00    +0.086 C 
ATOM     31  C   UNL     1       2.906  -6.690   0.181  0.00  0.00    +0.102 A 
ATOM     32  C   UNL     1       4.008  -6.865  -0.570  0.00  0.00    +0.045 A 
ATOM     33  C   UNL     1       4.502  -5.577  -0.879  0.00  0.00    +0.046 A 
ATOM     34  C   UNL     1       3.672  -4.691  -0.299  0.00  0.00    +0.122 A 
ATOM     35  O   UNL     1       2.704  -5.371   0.337  0.00  0.00    -0.463 OA
ENDBRANCH  29  34
ENDBRANCH  19  29
ENDBRANCH   1  19
TORSDOF 7
