REMARK  Name = ZINC15862880
REMARK  5 active torsions:
REMARK  status: ('A' for Active; 'I' for Inactive)
REMARK    1  A    between atoms: C_8  and  N_12
REMARK    2  A    between atoms: C_9  and  O_10
REMARK    3  A    between atoms: N_12  and  S_13
REMARK    4  A    between atoms: S_13  and  C_16
REMARK    5  A    between atoms: N_25  and  C_26
REMARK                            x       y       z     vdW  Elec       q    Type
REMARK                         _______ _______ _______ _____ _____    ______ ____
ROOT
ATOM      1  C   UNL     1      -1.231   3.000  -1.063  0.00  0.00    +0.001 A 
ATOM      2  C   UNL     1      -1.263   1.614  -1.103  0.00  0.00    +0.004 A 
ATOM      3  C   UNL     1      -0.116   0.878  -0.893  0.00  0.00    +0.047 A 
ATOM      4  C   UNL     1       1.089   1.525  -0.649  0.00  0.00    +0.141 A 
ATOM      5  C   UNL     1       1.123   2.928  -0.614  0.00  0.00    +0.042 A 
ATOM      6  C   UNL     1      -0.047   3.661  -0.823  0.00  0.00    +0.013 A 
ATOM      7  C   UNL     1       2.404   3.603  -0.355  0.00  0.00    +0.076 A 
ATOM      8  C   UNL     1       3.523   2.814  -0.157  0.00  0.00    +0.152 A 
ATOM      9  C   UNL     1       3.399   1.413  -0.209  0.00  0.00    +0.310 A 
ATOM     10  O   UNL     1       2.221   0.816  -0.447  0.00  0.00    -0.424 OA
ATOM     11  N   UNL     1       2.488   4.983  -0.311  0.00  0.00    -0.380 N 
ATOM     12  H   UNL     1       2.473   5.505   0.657  0.00  0.00    +0.160 HD
ENDROOT
BRANCH  11  13
ATOM     13  C   UNL     1       2.589   5.548  -1.664  0.00  0.00    +0.079 C 
ATOM     14  C   UNL     1       4.067   5.606  -2.103  0.00  0.00    +0.024 C 
ATOM     15  C   UNL     1       4.171   6.927  -2.907  0.00  0.00    +0.002 C 
ATOM     16  C   UNL     1       3.250   7.886  -2.113  0.00  0.00    +0.002 C 
ATOM     17  C   UNL     1       2.070   6.996  -1.671  0.00  0.00    +0.024 C 
ENDBRANCH  11  13
BRANCH   9  18
ATOM     18  O   UNL     1       4.389   0.724  -0.034  0.00  0.00    -0.479 OA
ATOM     19  H   UNL     1       4.309  -0.373  -0.072  0.00  0.00    +0.295 HD
ENDBRANCH   9  18
BRANCH   8  20
ATOM     20  N   UNL     1       4.773   3.406   0.094  0.00  0.00    -0.208 N 
ATOM     21  H   UNL     1       5.612   3.233  -0.596  0.00  0.00    +0.174 HD
BRANCH  20  22
ATOM     22  S   UNL     1       4.982   4.365   1.429  0.00  0.00    +0.075 S 
ATOM     23  O   UNL     1       6.330   4.814   1.399  0.00  0.00    -0.150 OA
ATOM     24  O   UNL     1       3.881   5.262   1.461  0.00  0.00    -0.150 OA
BRANCH  22  25
ATOM     25  C   UNL     1       4.829   3.327   2.844  0.00  0.00    +0.137 A 
ATOM     26  C   UNL     1       5.899   3.113   3.646  0.00  0.00    +0.031 A 
ATOM     27  C   UNL     1       5.814   2.298   4.775  0.00  0.00    +0.004 A 
ATOM     28  C   UNL     1       4.657   1.685   5.120  0.00  0.00    +0.031 A 
ATOM     29  C   UNL     1       3.494   1.864   4.326  0.00  0.00    +0.102 A 
ATOM     30  C   UNL     1       3.582   2.721   3.148  0.00  0.00    +0.126 A 
ATOM     31  N   UNL     1       2.423   2.796   2.497  0.00  0.00    -0.189 NA
ATOM     32  S   UNL     1       1.411   1.910   3.300  0.00  0.00    +0.117 S 
ATOM     33  N   UNL     1       2.272   1.359   4.487  0.00  0.00    -0.191 NA
ENDBRANCH  22  25
ENDBRANCH  20  22
ENDBRANCH   8  20
TORSDOF 5
