REMARK  Name = ZINC20817721
REMARK  8 active torsions:
REMARK  status: ('A' for Active; 'I' for Inactive)
REMARK    1  A    between atoms: C_4  and  N_7
REMARK    2  A    between atoms: N_8  and  C_9
REMARK    3  A    between atoms: C_12  and  N_15
REMARK    4  A    between atoms: C_16  and  C_18
REMARK    5  A    between atoms: C_18  and  S_19
REMARK    6  A    between atoms: S_19  and  C_20
REMARK    7  A    between atoms: C_23  and  C_26
REMARK    8  A    between atoms: N_24  and  N_25
REMARK                            x       y       z     vdW  Elec       q    Type
REMARK                         _______ _______ _______ _____ _____    ______ ____
ROOT
ATOM      1  N   UNL     1      -4.126   4.267   7.208  0.00  0.00    -0.285 N 
ATOM      2  C   UNL     1      -4.358   4.300   5.881  0.00  0.00    +0.227 C 
ATOM      3  O   UNL     1      -5.125   5.118   5.420  0.00  0.00    -0.275 OA
ATOM      4  H   UNL     1      -3.500   3.471   7.637  0.00  0.00    +0.155 HD
ENDROOT
BRANCH   1   8
ATOM      5  C   UNL     1      -5.782   7.180   9.686  0.00  0.00    +0.086 A 
ATOM      6  C   UNL     1      -5.611   5.873  10.156  0.00  0.00    +0.031 A 
ATOM      7  C   UNL     1      -5.063   4.914   9.335  0.00  0.00    +0.025 A 
ATOM      8  C   UNL     1      -4.680   5.242   8.038  0.00  0.00    +0.034 A 
ATOM      9  C   UNL     1      -4.843   6.542   7.568  0.00  0.00    +0.025 A 
ATOM     10  C   UNL     1      -5.394   7.506   8.382  0.00  0.00    +0.031 A 
BRANCH   5  12
ATOM     11  N   UNL     1      -6.481   9.338  10.062  0.00  0.00    -0.149 NA
ATOM     12  N   UNL     1      -6.324   8.134  10.497  0.00  0.00    -0.149 NA
BRANCH  11  16
ATOM     13  C   UNL     1      -8.127  12.229  12.521  0.00  0.00    +0.000 A 
ATOM     14  C   UNL     1      -7.745  12.557  11.232  0.00  0.00    +0.002 A 
ATOM     15  C   UNL     1      -7.196  11.599  10.406  0.00  0.00    +0.029 A 
ATOM     16  C   UNL     1      -7.025  10.293  10.875  0.00  0.00    +0.086 A 
ATOM     17  C   UNL     1      -7.418   9.968  12.176  0.00  0.00    +0.029 A 
ATOM     18  C   UNL     1      -7.962  10.938  12.991  0.00  0.00    +0.002 A 
ENDBRANCH  11  16
ENDBRANCH   5  12
ENDBRANCH   1   8
BRANCH   2  19
ATOM     19  C   UNL     1      -3.666   3.319   4.970  0.00  0.00    +0.173 C 
BRANCH  19  20
ATOM     20  S   UNL     1      -4.181   3.616   3.260  0.00  0.00    -0.075 S 
BRANCH  20  21
ATOM     21  C   UNL     1      -3.247   2.368   2.438  0.00  0.00    +0.209 A 
ATOM     22  N   UNL     1      -2.429   1.508   3.000  0.00  0.00    -0.121 NA
ATOM     23  N   UNL     1      -1.922   0.739   2.104  0.00  0.00    -0.123 NA
ATOM     24  C   UNL     1      -2.373   1.066   0.926  0.00  0.00    +0.255 A 
ATOM     25  N   UNL     1      -3.237   2.113   1.097  0.00  0.00    -0.220 N 
BRANCH  24  26
ATOM     26  C   UNL     1      -2.016   0.408  -0.382  0.00  0.00    +0.454 C 
ATOM     27  F   UNL     1      -1.387  -0.816  -0.132  0.00  0.00    -0.163 F 
ATOM     28  F   UNL     1      -1.149   1.239  -1.100  0.00  0.00    -0.163 F 
ATOM     29  F   UNL     1      -3.179   0.191  -1.128  0.00  0.00    -0.163 F 
ENDBRANCH  24  26
BRANCH  25  30
ATOM     30  N   UNL     1      -3.942   2.767   0.128  0.00  0.00    -0.295 N 
ATOM     31  H   UNL     1      -3.845   2.461  -0.924  0.00  0.00    +0.163 HD
ATOM     32  H   UNL     1      -4.608   3.599   0.399  0.00  0.00    +0.163 HD
ENDBRANCH  25  30
ENDBRANCH  20  21
ENDBRANCH  19  20
ENDBRANCH   2  19
TORSDOF 8
