REMARK  Name = ZINC08536092
REMARK  7 active torsions:
REMARK  status: ('A' for Active; 'I' for Inactive)
REMARK    1  A    between atoms: C_1  and  C_2
REMARK    2  A    between atoms: C_3  and  C_8
REMARK    3  A    between atoms: C_4  and  C_7
REMARK    4  A    between atoms: C_11  and  C_13
REMARK    5  A    between atoms: N_15  and  N_16
REMARK    6  A    between atoms: N_16  and  C_17
REMARK    7  A    between atoms: C_20  and  N_23
REMARK                            x       y       z     vdW  Elec       q    Type
REMARK                         _______ _______ _______ _____ _____    ______ ____
ROOT
ATOM      1  C   UNL     1       2.353   5.544   0.009  0.00  0.00    +0.267 C 
ATOM      2  O   UNL     1       1.292   6.141   0.021  0.00  0.00    -0.268 OA
ATOM      3  N   UNL     1       2.368   4.197   0.002  0.00  0.00    -0.232 N 
ATOM      4  H   UNL     1       3.213   3.721  -0.009  0.00  0.00    +0.173 HD
ENDROOT
BRANCH   1   8
ATOM      5  C   UNL     1       6.141   7.232  -0.019  0.00  0.00    +0.025 A 
ATOM      6  C   UNL     1       5.093   8.139  -0.004  0.00  0.00    +0.017 A 
ATOM      7  C   UNL     1       3.812   7.663  -0.000  0.00  0.00    +0.021 A 
ATOM      8  C   UNL     1       3.612   6.290   0.000  0.00  0.00    +0.076 A 
ATOM      9  S   UNL     1       5.285   5.666  -0.019  0.00  0.00    -0.083 S 
BRANCH   5  12
ATOM     10  C   UNL     1       7.868   8.653  -2.369  0.00  0.00    +0.070 C 
ATOM     11  C   UNL     1       8.370   8.117  -1.053  0.00  0.00    +0.089 A 
ATOM     12  C   UNL     1       7.596   7.495  -0.031  0.00  0.00    +0.053 A 
ATOM     13  C   UNL     1       8.519   7.194   0.934  0.00  0.00    +0.143 A 
ATOM     14  O   UNL     1       9.699   7.625   0.470  0.00  0.00    -0.359 OA
ATOM     15  N   UNL     1       9.596   8.132  -0.622  0.00  0.00    -0.083 NA
ATOM     16  C   UNL     1       8.260   6.512   2.253  0.00  0.00    +0.090 C 
ENDBRANCH   5  12
ENDBRANCH   1   8
BRANCH   3  17
ATOM     17  N   UNL     1       1.162   3.483   0.009  0.00  0.00    -0.264 N 
ATOM     18  H   UNL     1       0.317   3.958   0.019  0.00  0.00    +0.170 HD
BRANCH  17  19
ATOM     19  C   UNL     1       1.178   2.086   0.002  0.00  0.00    +0.045 A 
ATOM     20  C   UNL     1      -0.017   1.377   0.010  0.00  0.00    +0.026 A 
ATOM     21  C   UNL     1       0.002  -0.004   0.002  0.00  0.00    +0.034 A 
ATOM     22  C   UNL     1       1.208  -0.681  -0.014  0.00  0.00    +0.126 A 
ATOM     23  C   UNL     1       2.399   0.022  -0.021  0.00  0.00    +0.034 A 
ATOM     24  C   UNL     1       2.387   1.403  -0.013  0.00  0.00    +0.026 A 
BRANCH  22  25
ATOM     25  N   UNL     1       1.224  -2.161  -0.022  0.00  0.00    +0.056 N 
ATOM     26  O   UNL     1       0.176  -2.781  -0.015  0.00  0.00    -0.126 OA
ATOM     27  O   UNL     1       2.286  -2.758  -0.036  0.00  0.00    -0.126 OA
ENDBRANCH  22  25
ENDBRANCH  17  19
ENDBRANCH   3  17
TORSDOF 5
