REMARK  Name = ZINC35712849
REMARK  12 active torsions:
REMARK  status: ('A' for Active; 'I' for Inactive)
REMARK    1  A    between atoms: C_1  and  C_2
REMARK    2  A    between atoms: C_2  and  C_3
REMARK    3  A    between atoms: C_3  and  C_5
REMARK    4  A    between atoms: C_3  and  N_6
REMARK    5  A    between atoms: N_6  and  C_7
REMARK    6  A    between atoms: N_6  and  C_18
REMARK    7  A    between atoms: C_7  and  C_8
REMARK    8  A    between atoms: C_11  and  C_14
REMARK    9  A    between atoms: C_18  and  C_19
REMARK   10  A    between atoms: C_21  and  C_24
REMARK   11  A    between atoms: N_26  and  C_27
REMARK   12  A    between atoms: C_27  and  C_28
REMARK                            x       y       z     vdW  Elec       q    Type
REMARK                         _______ _______ _______ _____ _____    ______ ____
ROOT
ATOM      1  C   UNL     1      -3.299  -0.479  -1.416  0.00  0.00    +0.020 C 
ENDROOT
BRANCH   1   2
ATOM      2  C   UNL     1      -3.244  -1.950  -1.740  0.00  0.00    +0.179 A 
ATOM      3  N   UNL     1      -3.192  -2.911  -0.868  0.00  0.00    -0.210 NA
ATOM      4  C   UNL     1      -3.154  -4.097  -1.535  0.00  0.00    +0.163 A 
ATOM      5  C   UNL     1      -3.187  -3.810  -2.865  0.00  0.00    +0.230 A 
ATOM      6  O   UNL     1      -3.247  -2.473  -2.975  0.00  0.00    -0.449 OA
BRANCH   4   7
ATOM      7  C   UNL     1      -3.090  -5.440  -0.930  0.00  0.00    +0.266 C 
ATOM      8  O   UNL     1      -3.062  -6.426  -1.641  0.00  0.00    -0.268 OA
ATOM      9  N   UNL     1      -3.063  -5.575   0.411  0.00  0.00    -0.306 N 
ATOM     10  H   UNL     1      -3.086  -4.788   0.978  0.00  0.00    +0.149 HD
BRANCH   9  11
ATOM     11  C   UNL     1      -3.000  -6.910   1.011  0.00  0.00    +0.140 C 
BRANCH  11  12
ATOM     12  C   UNL     1      -2.981  -6.784   2.513  0.00  0.00    -0.030 A 
ATOM     13  C   UNL     1      -1.776  -6.672   3.182  0.00  0.00    +0.008 A 
ATOM     14  C   UNL     1      -1.758  -6.557   4.559  0.00  0.00    +0.038 A 
ATOM     15  C   UNL     1      -2.946  -6.553   5.269  0.00  0.00    +0.123 A 
ATOM     16  C   UNL     1      -4.153  -6.665   4.598  0.00  0.00    +0.038 A 
ATOM     17  C   UNL     1      -4.169  -6.775   3.220  0.00  0.00    +0.008 A 
ATOM     18  F   UNL     1      -2.930  -6.440   6.615  0.00  0.00    -0.205 F 
ENDBRANCH  11  12
ENDBRANCH   9  11
ENDBRANCH   4   7
ENDBRANCH   1   2
BRANCH   1  19
ATOM     19  N   UNL     1      -2.034   0.157  -1.808  0.00  0.00    +0.390 N 
ATOM     20  H   UNL     1      -1.825  -0.075  -2.768  0.00  0.00    -0.080 HD
BRANCH  19  21
ATOM     21  C   UNL     1      -0.953  -0.329  -0.940  0.00  0.00    -0.071 C 
ATOM     22  C   UNL     1      -1.465  -0.443   0.497  0.00  0.00    -0.013 C 
BRANCH  21  24
ATOM     23  C   UNL     1       0.097  -1.574  -2.835  0.00  0.00    +0.002 C 
ATOM     24  C   UNL     1      -0.486  -1.702  -1.427  0.00  0.00    -0.019 C 
ENDBRANCH  21  24
ENDBRANCH  19  21
BRANCH  19  25
ATOM     25  C   UNL     1      -2.156   1.614  -1.671  0.00  0.00    -0.042 C 
BRANCH  25  26
ATOM     26  C   UNL     1      -0.923   2.276  -2.231  0.00  0.00    -0.064 A 
ATOM     27  C   UNL     1       0.111   2.637  -1.388  0.00  0.00    +0.002 A 
ATOM     28  C   UNL     1       1.242   3.244  -1.902  0.00  0.00    +0.012 A 
ATOM     29  C   UNL     1       1.339   3.489  -3.259  0.00  0.00    +0.055 A 
ATOM     30  C   UNL     1       0.305   3.126  -4.102  0.00  0.00    +0.012 A 
ATOM     31  C   UNL     1      -0.824   2.516  -3.589  0.00  0.00    +0.002 A 
BRANCH  29  32
ATOM     32  C   UNL     1       2.571   4.151  -3.819  0.00  0.00    +0.417 C 
ATOM     33  F   UNL     1       3.510   3.174  -4.165  0.00  0.00    -0.166 F 
ATOM     34  F   UNL     1       2.227   4.891  -4.955  0.00  0.00    -0.166 F 
ATOM     35  F   UNL     1       3.121   5.004  -2.855  0.00  0.00    -0.166 F 
ENDBRANCH  29  32
ENDBRANCH  25  26
ENDBRANCH  19  25
ENDBRANCH   1  19
TORSDOF 10
