REMARK  Name = ZINC17197592
REMARK  7 active torsions:
REMARK  status: ('A' for Active; 'I' for Inactive)
REMARK    1  A    between atoms: C_1  and  C_2
REMARK    2  A    between atoms: C_9  and  C_14
REMARK    3  A    between atoms: C_14  and  N_15
REMARK    4  A    between atoms: N_15  and  C_16
REMARK    5  A    between atoms: C_21  and  O_22
REMARK    6  A    between atoms: O_22  and  C_23
REMARK    7  A    between atoms: C_24  and  C_26
REMARK                            x       y       z     vdW  Elec       q    Type
REMARK                         _______ _______ _______ _____ _____    ______ ____
ROOT
ATOM      1  N   UNL     1       1.483   1.823   0.059  0.00  0.00    -0.260 N 
ATOM      2  C   UNL     1       0.189   1.478  -0.090  0.00  0.00    +0.252 C 
ATOM      3  O   UNL     1      -0.126   0.304  -0.133  0.00  0.00    -0.270 OA
ENDROOT
BRANCH   2   4
ATOM      4  C   UNL     1      -0.847   2.526  -0.206  0.00  0.00    +0.051 A 
ATOM      5  C   UNL     1      -0.933   3.537   0.753  0.00  0.00    +0.014 A 
ATOM      6  C   UNL     1      -1.898   4.514   0.635  0.00  0.00    +0.001 A 
ATOM      7  C   UNL     1      -2.788   4.489  -0.425  0.00  0.00    +0.001 A 
ATOM      8  C   UNL     1      -2.713   3.488  -1.376  0.00  0.00    +0.016 A 
ATOM      9  C   UNL     1      -1.747   2.506  -1.274  0.00  0.00    +0.030 A 
ATOM     10 BR   UNL     1      -1.646   1.137  -2.575  0.00  0.00    -0.050 Br
ENDBRANCH   2   4
BRANCH   1  11
ATOM     11  C   UNL     1       1.858   3.172   0.011  0.00  0.00    +0.079 A 
ATOM     12  C   UNL     1       2.045   3.885   1.186  0.00  0.00    +0.027 A 
ATOM     13  C   UNL     1       2.418   5.214   1.135  0.00  0.00    +0.002 A 
ATOM     14  C   UNL     1       2.599   5.839  -0.085  0.00  0.00    +0.004 A 
ATOM     15  C   UNL     1       2.410   5.136  -1.260  0.00  0.00    +0.047 A 
ATOM     16  C   UNL     1       2.040   3.802  -1.218  0.00  0.00    +0.141 A 
BRANCH  16  17
ATOM     17  O   UNL     1       1.853   3.110  -2.374  0.00  0.00    -0.493 OA
ATOM     18  C   UNL     1       2.057   3.821  -3.596  0.00  0.00    +0.277 C 
ENDBRANCH  16  17
ENDBRANCH   1  11
BRANCH   1  19
ATOM     19  C   UNL     1       2.498   0.788   0.272  0.00  0.00    +0.154 C 
BRANCH  19  28
ATOM     20  C   UNL     1       7.518   1.064  -5.236  0.00  0.00    +0.044 C 
ATOM     21  C   UNL     1       6.264   0.490  -4.628  0.00  0.00    -0.050 A 
ATOM     22  C   UNL     1       5.562  -0.499  -5.304  0.00  0.00    +0.005 A 
ATOM     23  C   UNL     1       4.413  -1.038  -4.767  0.00  0.00    +0.026 A 
ATOM     24  C   UNL     1       3.950  -0.588  -3.535  0.00  0.00    +0.049 A 
ATOM     25  C   UNL     1       4.664   0.415  -2.853  0.00  0.00    -0.001 A 
ATOM     26  C   UNL     1       5.828   0.948  -3.418  0.00  0.00    +0.013 A 
ATOM     27  C   UNL     1       4.168   0.883  -1.557  0.00  0.00    +0.020 A 
ATOM     28  C   UNL     1       3.035   0.330  -1.059  0.00  0.00    +0.035 A 
ATOM     29  C   UNL     1       2.359  -0.678  -1.781  0.00  0.00    +0.254 A 
ATOM     30  O   UNL     1       1.345  -1.165  -1.313  0.00  0.00    -0.268 OA
ATOM     31  N   UNL     1       2.804  -1.110  -2.974  0.00  0.00    -0.322 N 
ATOM     32  H   UNL     1       2.312  -1.801  -3.446  0.00  0.00    +0.169 HD
ENDBRANCH  19  28
ENDBRANCH   1  19
TORSDOF 5
