REMARK  Name = ZINC01787091
REMARK  11 active torsions:
REMARK  status: ('A' for Active; 'I' for Inactive)
REMARK    1  A    between atoms: C_1  and  O_2
REMARK    2  A    between atoms: O_2  and  C_3
REMARK    3  A    between atoms: C_3  and  C_5
REMARK    4  A    between atoms: C_10  and  N_11
REMARK    5  A    between atoms: N_11  and  C_12
REMARK    6  A    between atoms: C_12  and  N_14
REMARK    7  A    between atoms: N_14  and  C_15
REMARK    8  A    between atoms: C_15  and  C_17
REMARK    9  A    between atoms: C_15  and  N_21
REMARK   10  A    between atoms: C_22  and  C_24
REMARK   11  A    between atoms: C_28  and  N_30
REMARK                            x       y       z     vdW  Elec       q    Type
REMARK                         _______ _______ _______ _____ _____    ______ ____
ROOT
ATOM      1  C   UNL     1       1.306   4.057  -0.111  0.00  0.00    +0.211 C 
ENDROOT
BRANCH   1   2
ATOM      2  C   UNL     1       2.468   4.579  -0.958  0.00  0.00    +0.225 C 
ATOM      3 CL   UNL     1       2.127   4.269  -2.702  0.00  0.00    -0.080 Cl
ATOM      4 CL   UNL     1       2.659   6.351  -0.689  0.00  0.00    -0.080 Cl
ATOM      5 CL   UNL     1       3.986   3.731  -0.483  0.00  0.00    -0.080 Cl
ENDBRANCH   1   2
BRANCH   1   6
ATOM      6  N   UNL     1       1.150   2.617  -0.330  0.00  0.00    -0.290 N 
ATOM      7  C   UNL     1      -0.077   2.094  -0.524  0.00  0.00    +0.246 C 
ATOM      8  O   UNL     1      -1.054   2.817  -0.523  0.00  0.00    -0.270 OA
ATOM      9  H   UNL     1       1.929   2.040  -0.335  0.00  0.00    +0.151 HD
BRANCH   7  10
ATOM     10  C   UNL     1      -0.234   0.640  -0.745  0.00  0.00    +0.039 A 
ATOM     11  C   UNL     1       0.886  -0.193  -0.753  0.00  0.00    +0.013 A 
ATOM     12  C   UNL     1       0.732  -1.548  -0.960  0.00  0.00    +0.003 A 
ATOM     13  C   UNL     1      -0.529  -2.082  -1.158  0.00  0.00    +0.033 A 
ATOM     14  C   UNL     1      -1.643  -1.262  -1.151  0.00  0.00    +0.127 A 
ATOM     15  C   UNL     1      -1.504   0.094  -0.941  0.00  0.00    +0.045 A 
BRANCH  14  16
ATOM     16  N   UNL     1      -2.988  -1.842  -1.364  0.00  0.00    +0.056 N 
ATOM     17  O   UNL     1      -3.113  -3.040  -1.545  0.00  0.00    -0.126 OA
ATOM     18  O   UNL     1      -3.970  -1.121  -1.358  0.00  0.00    -0.126 OA
ENDBRANCH  14  16
ENDBRANCH   7  10
ENDBRANCH   1   6
BRANCH   1  19
ATOM     19  N   UNL     1       1.582   4.309   1.305  0.00  0.00    -0.305 N 
ATOM     20  H   UNL     1       2.460   4.114   1.670  0.00  0.00    +0.150 HD
BRANCH  19  21
ATOM     21  C   UNL     1       0.618   4.810   2.102  0.00  0.00    +0.136 C 
ATOM     22  S   UNL     1      -0.931   5.153   1.458  0.00  0.00    -0.019 S 
BRANCH  21  23
ATOM     23  N   UNL     1       0.872   5.042   3.405  0.00  0.00    -0.296 N 
ATOM     24  H   UNL     1       1.726   4.783   3.785  0.00  0.00    +0.154 HD
BRANCH  23  30
ATOM     25  C   UNL     1       0.263   6.719   5.044  0.00  0.00    +0.080 A 
ATOM     26  C   UNL     1      -0.713   7.322   5.841  0.00  0.00    +0.017 A 
ATOM     27  C   UNL     1      -2.012   6.866   5.800  0.00  0.00    +0.001 A 
ATOM     28  C   UNL     1      -2.358   5.811   4.970  0.00  0.00    +0.002 A 
ATOM     29  C   UNL     1      -1.406   5.209   4.172  0.00  0.00    +0.024 A 
ATOM     30  C   UNL     1      -0.090   5.651   4.205  0.00  0.00    +0.047 A 
BRANCH  25  31
ATOM     31  C   UNL     1       1.655   7.202   5.083  0.00  0.00    +0.341 C 
ATOM     32  O   UNL     1       2.479   6.743   4.317  0.00  0.00    -0.245 OA
BRANCH  31  34
ATOM     33  C   UNL     1       3.401   8.580   5.950  0.00  0.00    +0.280 C 
ATOM     34  O   UNL     1       2.014   8.152   5.968  0.00  0.00    -0.464 OA
ENDBRANCH  31  34
ENDBRANCH  25  31
ENDBRANCH  23  30
ENDBRANCH  21  23
ENDBRANCH  19  21
ENDBRANCH   1  19
TORSDOF 10
