REMARK  Name = ZINC34087036
REMARK  1 active torsions:
REMARK  status: ('A' for Active; 'I' for Inactive)
REMARK    1  A    between atoms: C_20  and  C_25
REMARK                            x       y       z     vdW  Elec       q    Type
REMARK                         _______ _______ _______ _____ _____    ______ ____
ROOT
ATOM      1  C   UNL     1      -0.017   1.369   0.010  0.00  0.00    +0.001 A 
ATOM      2  C   UNL     1       1.146   2.123   0.003  0.00  0.00    +0.002 A 
ATOM      3  C   UNL     1       2.402   1.541  -0.021  0.00  0.00    +0.026 A 
ATOM      4  C   UNL     1       2.450   0.149  -0.036  0.00  0.00    +0.047 A 
ATOM      5  C   UNL     1       1.258  -0.619  -0.015  0.00  0.00    +0.003 A 
ATOM      6  C   UNL     1       0.002  -0.004   0.002  0.00  0.00    +0.010 A 
ATOM      7  C   UNL     1       1.679  -2.003  -0.009  0.00  0.00    -0.016 A 
ATOM      8  C   UNL     1       3.036  -2.013  -0.046  0.00  0.00    +0.042 A 
ATOM      9  N   UNL     1       3.498  -0.729  -0.069  0.00  0.00    -0.356 N 
ATOM     10  H   UNL     1       4.424  -0.450  -0.096  0.00  0.00    +0.166 HD
ATOM     11  C   UNL     1       3.830  -3.298  -0.040  0.00  0.00    +0.138 C 
ATOM     12  C   UNL     1       4.996  -3.253  -0.985  0.00  0.00    -0.004 A 
ATOM     13  C   UNL     1       5.872  -2.184  -0.969  0.00  0.00    +0.007 A 
ATOM     14  C   UNL     1       6.918  -2.117  -1.870  0.00  0.00    +0.000 A 
ATOM     15  C   UNL     1       7.118  -3.137  -2.781  0.00  0.00    +0.002 A 
ATOM     16  C   UNL     1       6.283  -4.236  -2.772  0.00  0.00    +0.023 A 
ATOM     17  C   UNL     1       5.236  -4.306  -1.862  0.00  0.00    +0.034 A 
ATOM     18  N   UNL     1       4.454  -5.467  -1.814  0.00  0.00    -0.322 N 
ATOM     19  C   UNL     1       3.560  -5.658  -0.657  0.00  0.00    +0.210 C 
ATOM     20  N   UNL     1       2.917  -4.381  -0.396  0.00  0.00    -0.265 NA
ATOM     21  C   UNL     1       1.722  -4.428   0.436  0.00  0.00    +0.092 C 
ATOM     22  C   UNL     1       0.822  -3.244   0.039  0.00  0.00    +0.053 C 
ATOM     23  H   UNL     1       4.498  -6.127  -2.520  0.00  0.00    +0.148 HD
ENDROOT
BRANCH  19  24
ATOM     24  C   UNL     1       4.350  -6.136   0.534  0.00  0.00    +0.140 A 
ATOM     25  C   UNL     1       5.471  -6.877   0.488  0.00  0.00    +0.048 A 
ATOM     26  C   UNL     1       5.874  -7.094   1.826  0.00  0.00    +0.041 A 
ATOM     27  C   UNL     1       4.975  -6.473   2.609  0.00  0.00    +0.195 A 
ATOM     28  O   UNL     1       4.057  -5.889   1.821  0.00  0.00    -0.465 OA
ENDBRANCH  19  24
TORSDOF 1
