REMARK  Name = ZINC09246318
REMARK  16 active torsions:
REMARK  status: ('A' for Active; 'I' for Inactive)
REMARK    1  A    between atoms: C_1  and  C_2
REMARK    2  A    between atoms: C_2  and  C_3
REMARK    3  A    between atoms: C_3  and  O_4
REMARK    4  A    between atoms: O_4  and  C_5
REMARK    5  A    between atoms: C_8  and  C_13
REMARK    6  A    between atoms: C_10  and  O_11
REMARK    7  A    between atoms: O_11  and  C_12
REMARK    8  A    between atoms: C_18  and  C_23
REMARK    9  A    between atoms: C_26  and  O_29
REMARK   10  A    between atoms: O_29  and  C_30
REMARK   11  A    between atoms: C_32  and  C_40
REMARK   12  A    between atoms: C_33  and  C_34
REMARK   13  A    between atoms: C_34  and  O_36
REMARK   14  A    between atoms: O_36  and  C_37
REMARK   15  A    between atoms: C_37  and  C_38
REMARK   16  A    between atoms: C_38  and  C_39
REMARK                            x       y       z     vdW  Elec       q    Type
REMARK                         _______ _______ _______ _____ _____    ______ ____
ROOT
ATOM      1  C   UNL     1      -9.196  -3.871  -0.029  0.00  0.00    +0.092 C 
ATOM      2  C   UNL     1      -7.839  -3.222   0.073  0.00  0.00    +0.024 C 
ATOM      3  C   UNL     1      -7.149  -2.887  -1.039  0.00  0.00    +0.016 C 
ATOM      4  C   UNL     1      -5.797  -2.225  -0.944  0.00  0.00    +0.059 C 
ATOM      5  C   UNL     1      -5.082  -2.696   0.325  0.00  0.00    +0.032 C 
ATOM      6  C   UNL     1      -5.957  -2.352   1.536  0.00  0.00    +0.088 C 
ATOM      7  C   UNL     1      -7.313  -2.978   1.353  0.00  0.00    +0.162 C 
ATOM      8  O   UNL     1      -7.964  -3.282   2.333  0.00  0.00    -0.292 OA
ATOM      9  N   UNL     1      -7.665  -3.145  -2.280  0.00  0.00    -0.321 N 
ATOM     10  C   UNL     1      -8.662  -4.066  -2.443  0.00  0.00    +0.016 C 
ATOM     11  C   UNL     1      -9.416  -4.446  -1.398  0.00  0.00    +0.065 C 
ATOM     12  C   UNL     1      -8.917  -4.660  -3.805  0.00  0.00    +0.061 C 
ATOM     13  H   UNL     1      -7.277  -2.609  -3.159  0.00  0.00    +0.152 HD
ENDROOT
BRANCH   1  17
ATOM     14  C   UNL     1     -12.213  -0.946   0.763  0.00  0.00    +0.162 A 
ATOM     15  C   UNL     1     -11.334  -0.770  -0.294  0.00  0.00    +0.050 A 
ATOM     16  C   UNL     1     -10.360  -1.718  -0.547  0.00  0.00    +0.008 A 
ATOM     17  C   UNL     1     -10.260  -2.841   0.252  0.00  0.00    -0.032 A 
ATOM     18  C   UNL     1     -11.136  -3.025   1.305  0.00  0.00    +0.054 A 
ATOM     19  C   UNL     1     -12.112  -2.077   1.567  0.00  0.00    +0.162 A 
BRANCH  19  20
ATOM     20  O   UNL     1     -12.972  -2.254   2.606  0.00  0.00    -0.491 OA
ATOM     21  C   UNL     1     -12.809  -3.438   3.389  0.00  0.00    +0.277 C 
ENDBRANCH  19  20
BRANCH  14  22
ATOM     22  O   UNL     1     -13.171  -0.014   1.014  0.00  0.00    -0.488 OA
BRANCH  22  23
ATOM     23  C   UNL     1     -13.216   1.121   0.148  0.00  0.00    +0.229 C 
BRANCH  23  25
ATOM     24  C   UNL     1     -14.397   3.267  -0.344  0.00  0.00    +0.007 C 
ATOM     25  C   UNL     1     -14.350   2.051   0.584  0.00  0.00    +0.038 C 
ENDBRANCH  23  25
ENDBRANCH  22  23
ENDBRANCH  14  22
ENDBRANCH   1  17
BRANCH   5  26
ATOM     26  C   UNL     1      -3.753  -1.997   0.446  0.00  0.00    -0.043 A 
ATOM     27  C   UNL     1      -2.585  -2.736   0.483  0.00  0.00    +0.007 A 
ATOM     28  C   UNL     1      -1.365  -2.098   0.594  0.00  0.00    +0.046 A 
ATOM     29  C   UNL     1      -1.312  -0.714   0.668  0.00  0.00    +0.120 A 
ATOM     30  C   UNL     1      -2.485   0.026   0.637  0.00  0.00    +0.046 A 
ATOM     31  C   UNL     1      -3.703  -0.617   0.519  0.00  0.00    +0.007 A 
BRANCH  29  32
ATOM     32  O   UNL     1      -0.113  -0.083   0.777  0.00  0.00    -0.495 OA
ATOM     33  C   UNL     1      -0.134   1.344   0.849  0.00  0.00    +0.277 C 
ENDBRANCH  29  32
ENDBRANCH   5  26
BRANCH  11  34
ATOM     34  C   UNL     1     -10.436  -5.407  -1.591  0.00  0.00    +0.338 C 
ATOM     35  O   UNL     1     -10.696  -5.802  -2.712  0.00  0.00    -0.245 OA
BRANCH  34  36
ATOM     36  O   UNL     1     -11.122  -5.885  -0.531  0.00  0.00    -0.461 OA
BRANCH  36  37
ATOM     37  C   UNL     1     -12.139  -6.852  -0.800  0.00  0.00    +0.232 C 
BRANCH  37  38
ATOM     38  C   UNL     1     -12.802  -7.273   0.513  0.00  0.00    +0.038 C 
ATOM     39  C   UNL     1     -13.890  -8.309   0.226  0.00  0.00    +0.007 C 
ENDBRANCH  37  38
ENDBRANCH  36  37
ENDBRANCH  34  36
ENDBRANCH  11  34
TORSDOF 11
