REMARK  Name = ZINC15946046
REMARK  12 active torsions:
REMARK  status: ('A' for Active; 'I' for Inactive)
REMARK    1  A    between atoms: C_1  and  C_2
REMARK    2  A    between atoms: C_2  and  C_3
REMARK    3  A    between atoms: C_2  and  C_4
REMARK    4  A    between atoms: C_2  and  C_5
REMARK    5  A    between atoms: C_12  and  N_27
REMARK    6  A    between atoms: C_13  and  C_14
REMARK    7  A    between atoms: N_16  and  C_17
REMARK    8  A    between atoms: C_22  and  C_23
REMARK    9  A    between atoms: C_23  and  O_25
REMARK   10  A    between atoms: O_25  and  C_26
REMARK   11  A    between atoms: C_28  and  C_30
REMARK   12  A    between atoms: C_30  and  N_76
REMARK                            x       y       z     vdW  Elec       q    Type
REMARK                         _______ _______ _______ _____ _____    ______ ____
ROOT
ATOM      1  C   UNL     1       6.802  -1.157   0.308  0.00  0.00    -0.000 C 
ATOM      2  C   UNL     1       7.120   0.091  -0.520  0.00  0.00    +0.009 C 
ATOM      3  C   UNL     1       6.252   1.261  -0.052  0.00  0.00    +0.037 C 
ATOM      4  C   UNL     1       4.794   0.820  -0.050  0.00  0.00    -0.023 A 
ATOM      5  C   UNL     1       4.463  -0.489  -0.059  0.00  0.00    -0.004 A 
ATOM      6  S   UNL     1       2.693  -0.509  -0.053  0.00  0.00    -0.077 S 
ATOM      7  C   UNL     1       2.394   1.197  -0.038  0.00  0.00    +0.084 A 
ATOM      8  C   UNL     1       3.671   1.742  -0.045  0.00  0.00    +0.069 A 
ATOM      9  C   UNL     1       5.400  -1.658  -0.070  0.00  0.00    +0.046 C 
ENDROOT
BRANCH   1  11
ATOM     10  C   UNL     1       9.231  -1.739   0.372  0.00  0.00    +0.011 C 
ATOM     11  C   UNL     1       7.834  -2.247   0.010  0.00  0.00    -0.035 C 
ATOM     12  C   UNL     1       7.514  -3.492   0.839  0.00  0.00    +0.011 C 
ATOM     13  C   UNL     1       7.788  -2.598  -1.478  0.00  0.00    +0.011 C 
ENDBRANCH   1  11
BRANCH   8  14
ATOM     14  C   UNL     1       3.878   3.193  -0.041  0.00  0.00    +0.251 C 
ATOM     15  O   UNL     1       3.971   3.792   1.014  0.00  0.00    -0.270 OA
ATOM     16  N   UNL     1       3.966   3.864  -1.207  0.00  0.00    -0.281 N 
ATOM     17  H   UNL     1       3.957   3.379  -2.047  0.00  0.00    +0.155 HD
BRANCH  16  18
ATOM     18  C   UNL     1       4.069   5.251  -1.205  0.00  0.00    +0.048 A 
ATOM     19  C   UNL     1       4.781   5.897  -0.202  0.00  0.00    +0.024 A 
ATOM     20  C   UNL     1       4.887   7.273  -0.205  0.00  0.00    +0.002 A 
ATOM     21  C   UNL     1       4.278   8.021  -1.200  0.00  0.00    +0.001 A 
ATOM     22  C   UNL     1       3.563   7.399  -2.200  0.00  0.00    +0.017 A 
ATOM     23  C   UNL     1       3.451   6.006  -2.214  0.00  0.00    +0.080 A 
BRANCH  23  24
ATOM     24  C   UNL     1       2.688   5.335  -3.280  0.00  0.00    +0.341 C 
ATOM     25  O   UNL     1       2.510   4.133  -3.236  0.00  0.00    -0.245 OA
BRANCH  24  26
ATOM     26  O   UNL     1       2.188   6.052  -4.306  0.00  0.00    -0.464 OA
ATOM     27  C   UNL     1       1.447   5.324  -5.320  0.00  0.00    +0.280 C 
ENDBRANCH  24  26
ENDBRANCH  23  24
ENDBRANCH  16  18
ENDBRANCH   8  14
BRANCH   7  28
ATOM     28  N   UNL     1       1.175   1.858  -0.029  0.00  0.00    -0.281 N 
ATOM     29  C   UNL     1       0.026   1.153  -0.030  0.00  0.00    +0.201 C 
ATOM     30  O   UNL     1       0.059  -0.059  -0.040  0.00  0.00    -0.278 OA
ATOM     31  H   UNL     1       1.149   2.828  -0.021  0.00  0.00    +0.155 HD
BRANCH  29  32
ATOM     32  C   UNL     1      -1.298   1.872  -0.026  0.00  0.00    +0.019 C 
BRANCH  32  39
ATOM     33  C   UNL     1      -2.337   0.049  -1.253  0.00  0.00    -0.078 C 
ATOM     34  C   UNL     1      -3.576  -0.782  -1.443  0.00  0.00    -0.019 C 
ATOM     35  C   UNL     1      -4.551  -0.008  -2.355  0.00  0.00    -0.002 C 
ATOM     36  C   UNL     1      -5.266   1.038  -1.634  0.00  0.00    -0.002 C 
ATOM     37  C   UNL     1      -4.312   2.098  -1.046  0.00  0.00    -0.019 C 
ATOM     38  C   UNL     1      -3.695   1.541   0.208  0.00  0.00    -0.078 C 
ATOM     39  N   UNL     1      -2.369   0.863   0.010  0.00  0.00    +0.385 N 
ATOM     40  H   UNL     1      -2.205   0.234   0.804  0.00  0.00    -0.081 HD
ENDBRANCH  32  39
ENDBRANCH  29  32
ENDBRANCH   7  28
TORSDOF 8
