REMARK  Name = ZINC00931086
REMARK  11 active torsions:
REMARK  status: ('A' for Active; 'I' for Inactive)
REMARK    1  A    between atoms: C_1  and  C_2
REMARK    2  A    between atoms: C_5  and  C_7
REMARK    3  A    between atoms: C_7  and  C_9
REMARK    4  A    between atoms: C_7  and  N_18
REMARK    5  A    between atoms: N_11  and  C_12
REMARK    6  A    between atoms: N_18  and  C_19
REMARK    7  A    between atoms: C_21  and  O_27
REMARK    8  A    between atoms: C_23  and  O_25
REMARK    9  A    between atoms: O_25  and  C_26
REMARK   10  A    between atoms: O_27  and  C_28
REMARK   11  A    between atoms: C_29  and  C_31
REMARK                            x       y       z     vdW  Elec       q    Type
REMARK                         _______ _______ _______ _____ _____    ______ ____
ROOT
ATOM      1  N   UNL     1       2.910  -3.027   0.544  0.00  0.00    -0.249 N 
ATOM      2  C   UNL     1       3.230  -3.910   1.510  0.00  0.00    +0.265 C 
ATOM      3  O   UNL     1       4.270  -3.790   2.122  0.00  0.00    -0.271 OA
ENDROOT
BRANCH   2   4
ATOM      4  C   UNL     1       2.294  -5.047   1.832  0.00  0.00    +0.296 C 
ATOM      5  C   UNL     1       1.044  -4.505   2.537  0.00  0.00    +0.283 C 
ATOM      6  O   UNL     1       0.185  -5.610   2.840  0.00  0.00    -0.484 OA
ATOM      7  C   UNL     1       0.771  -6.704   3.398  0.00  0.00    +0.162 A 
ATOM      8  C   UNL     1      -0.019  -7.646   4.041  0.00  0.00    +0.049 A 
ATOM      9  C   UNL     1       0.561  -8.764   4.610  0.00  0.00    +0.004 A 
ATOM     10  C   UNL     1       1.929  -8.947   4.540  0.00  0.00    +0.004 A 
ATOM     11  C   UNL     1       2.723  -8.012   3.902  0.00  0.00    +0.049 A 
ATOM     12  C   UNL     1       2.147  -6.887   3.330  0.00  0.00    +0.163 A 
ATOM     13  O   UNL     1       2.942  -5.971   2.712  0.00  0.00    -0.472 OA
ENDBRANCH   2   4
BRANCH   1  14
ATOM     14  C   UNL     1       3.705  -1.894   0.341  0.00  0.00    +0.045 A 
ATOM     15  C   UNL     1       4.731  -1.597   1.228  0.00  0.00    +0.069 A 
ATOM     16  C   UNL     1       5.519  -0.474   1.026  0.00  0.00    +0.125 A 
ATOM     17  C   UNL     1       5.281   0.353  -0.061  0.00  0.00    +0.091 A 
ATOM     18  C   UNL     1       4.256   0.058  -0.948  0.00  0.00    +0.125 A 
ATOM     19  C   UNL     1       3.472  -1.068  -0.751  0.00  0.00    +0.069 A 
BRANCH  18  20
ATOM     20  O   UNL     1       4.024   0.870  -2.013  0.00  0.00    -0.495 OA
ATOM     21  C   UNL     1       4.874   2.009  -2.158  0.00  0.00    +0.277 C 
ENDBRANCH  18  20
BRANCH  16  22
ATOM     22  O   UNL     1       6.523  -0.184   1.894  0.00  0.00    -0.495 OA
ATOM     23  C   UNL     1       7.295   0.988   1.625  0.00  0.00    +0.277 C 
ENDBRANCH  16  22
ENDBRANCH   1  14
BRANCH   1  24
ATOM     24  C   UNL     1       1.730  -3.253  -0.294  0.00  0.00    +0.233 C 
BRANCH  24  29
ATOM     25  C   UNL     1      -0.016   1.428   0.401  0.00  0.00    +0.086 C 
ATOM     26  C   UNL     1       0.018  -0.059   0.158  0.00  0.00    +0.102 A 
ATOM     27  C   UNL     1      -1.053  -0.853  -0.017  0.00  0.00    +0.045 A 
ATOM     28  C   UNL     1      -0.564  -2.165  -0.212  0.00  0.00    +0.047 A 
ATOM     29  C   UNL     1       0.778  -2.095  -0.144  0.00  0.00    +0.135 A 
ATOM     30  O   UNL     1       1.125  -0.816   0.074  0.00  0.00    -0.462 OA
ENDBRANCH  24  29
BRANCH  24  31
ATOM     31  C   UNL     1       2.152  -3.373  -1.735  0.00  0.00    +0.242 C 
ATOM     32  O   UNL     1       3.324  -3.279  -2.034  0.00  0.00    -0.273 OA
ATOM     33  N   UNL     1       1.228  -3.585  -2.693  0.00  0.00    -0.311 N 
ATOM     34  H   UNL     1       0.291  -3.660  -2.455  0.00  0.00    +0.149 HD
BRANCH  33  35
ATOM     35  C   UNL     1       1.639  -3.701  -4.095  0.00  0.00    +0.073 C 
ATOM     36  C   UNL     1       1.746  -2.306  -4.712  0.00  0.00    +0.022 C 
ATOM     37  C   UNL     1       2.176  -2.427  -6.176  0.00  0.00    +0.002 C 
ATOM     38  C   UNL     1       1.138  -3.248  -6.945  0.00  0.00    +0.000 C 
ATOM     39  C   UNL     1       1.031  -4.643  -6.327  0.00  0.00    +0.002 C 
ATOM     40  C   UNL     1       0.602  -4.521  -4.864  0.00  0.00    +0.022 C 
ENDBRANCH  33  35
ENDBRANCH  24  31
ENDBRANCH   1  24
TORSDOF 8
