REMARK  Name = ZINC67116376
REMARK  9 active torsions:
REMARK  status: ('A' for Active; 'I' for Inactive)
REMARK    1  A    between atoms: C_1  and  C_2
REMARK    2  A    between atoms: C_2  and  C_28
REMARK    3  A    between atoms: C_9  and  O_13
REMARK    4  A    between atoms: O_13  and  C_14
REMARK    5  A    between atoms: C_14  and  C_16
REMARK    6  A    between atoms: C_22  and  C_24
REMARK    7  A    between atoms: C_24  and  C_25
REMARK    8  A    between atoms: C_24  and  C_26
REMARK    9  A    between atoms: C_24  and  C_27
REMARK                            x       y       z     vdW  Elec       q    Type
REMARK                         _______ _______ _______ _____ _____    ______ ____
ROOT
ATOM      1  O   UNL     1       2.560  -4.369   3.000  0.00  0.00    -0.424 OA
ENDROOT
BRANCH   1  10
ATOM      2  C   UNL     1      -0.299  -1.880  -3.061  0.00  0.00    +0.056 C 
ATOM      3  C   UNL     1      -0.623  -2.421  -1.667  0.00  0.00    +0.112 C 
ATOM      4  C   UNL     1      -1.556  -1.440  -0.941  0.00  0.00    +0.127 C 
ATOM      5  C   UNL     1      -1.816  -2.009   0.442  0.00  0.00    +0.170 C 
ATOM      6  O   UNL     1      -2.913  -1.958   0.957  0.00  0.00    -0.292 OA
ATOM      7  C   UNL     1      -0.668  -2.625   1.126  0.00  0.00    +0.059 A 
ATOM      8  C   UNL     1      -0.736  -2.948   2.484  0.00  0.00    +0.018 A 
ATOM      9  C   UNL     1       0.339  -3.525   3.099  0.00  0.00    +0.047 A 
ATOM     10  C   UNL     1       1.500  -3.793   2.378  0.00  0.00    +0.135 A 
ATOM     11  C   UNL     1       1.582  -3.475   1.031  0.00  0.00    +0.092 A 
ATOM     12  C   UNL     1       0.502  -2.887   0.392  0.00  0.00    +0.135 A 
ATOM     13  O   UNL     1       0.584  -2.566  -0.920  0.00  0.00    -0.485 OA
ATOM     14  C   UNL     1      -1.311  -3.781  -1.795  0.00  0.00    +0.056 C 
ENDBRANCH   1  10
BRANCH   1  15
ATOM     15  C   UNL     1       2.443  -5.650   3.389  0.00  0.00    +0.333 C 
ATOM     16  O   UNL     1       1.459  -6.284   3.091  0.00  0.00    -0.248 OA
BRANCH  15  17
ATOM     17  C   UNL     1       3.540  -6.295   4.196  0.00  0.00    +0.185 C 
ATOM     18  C   UNL     1       4.850  -6.312   3.381  0.00  0.00    +0.035 C 
ATOM     19  C   UNL     1       5.467  -7.689   3.744  0.00  0.00    +0.021 C 
ATOM     20  C   UNL     1       4.201  -8.572   3.875  0.00  0.00    +0.109 C 
ATOM     21  N   UNL     1       3.187  -7.691   4.492  0.00  0.00    -0.288 N 
ATOM     22  C   UNL     1       2.119  -8.098   5.205  0.00  0.00    +0.222 C 
ATOM     23  O   UNL     1       1.306  -7.286   5.595  0.00  0.00    -0.275 OA
BRANCH  22  24
ATOM     24  C   UNL     1       1.934  -9.560   5.519  0.00  0.00    +0.039 C 
ATOM     25  C   UNL     1       0.608  -9.760   6.257  0.00  0.00    +0.020 C 
ATOM     26  C   UNL     1       1.919 -10.363   4.218  0.00  0.00    +0.020 C 
ATOM     27  C   UNL     1       3.087 -10.041   6.403  0.00  0.00    +0.020 C 
ENDBRANCH  22  24
ENDBRANCH  15  17
ENDBRANCH   1  15
TORSDOF 4
