REMARK  Name = ZINC45945556
REMARK  13 active torsions:
REMARK  status: ('A' for Active; 'I' for Inactive)
REMARK    1  A    between atoms: C_1  and  C_2
REMARK    2  A    between atoms: C_4  and  C_35
REMARK    3  A    between atoms: C_5  and  S_9
REMARK    4  A    between atoms: C_7  and  C_8
REMARK    5  A    between atoms: S_9  and  N_12
REMARK    6  A    between atoms: N_12  and  C_13
REMARK    7  A    between atoms: N_12  and  C_23
REMARK    8  A    between atoms: C_13  and  C_14
REMARK    9  A    between atoms: C_14  and  C_15
REMARK   10  A    between atoms: C_23  and  C_24
REMARK   11  A    between atoms: C_24  and  N_25
REMARK   12  A    between atoms: C_26  and  C_34
REMARK   13  A    between atoms: C_31  and  C_33
REMARK                            x       y       z     vdW  Elec       q    Type
REMARK                         _______ _______ _______ _____ _____    ______ ____
ROOT
ATOM      1  N   UNL     1      -3.229  -6.574   0.048  0.00  0.00    -0.178 NA
ENDROOT
BRANCH   1   2
ATOM      2  S   UNL     1      -1.665  -6.208   0.453  0.00  0.00    +0.061 S 
ATOM      3  O   UNL     1      -0.835  -7.060  -0.324  0.00  0.00    -0.153 OA
ATOM      4  O   UNL     1      -1.609  -6.176   1.872  0.00  0.00    -0.153 OA
BRANCH   2   9
ATOM      5  C   UNL     1      -0.602  -0.579  -1.442  0.00  0.00    +0.044 C 
ATOM      6  C   UNL     1      -0.868  -1.985  -0.969  0.00  0.00    -0.047 A 
ATOM      7  C   UNL     1       0.001  -2.591  -0.081  0.00  0.00    +0.009 A 
ATOM      8  C   UNL     1      -0.242  -3.880   0.353  0.00  0.00    -0.024 A 
ATOM      9  C   UNL     1      -1.355  -4.564  -0.100  0.00  0.00    +0.109 A 
ATOM     10  C   UNL     1      -2.225  -3.957  -0.987  0.00  0.00    +0.032 A 
ATOM     11  C   UNL     1      -1.983  -2.666  -1.418  0.00  0.00    -0.046 A 
ATOM     12  C   UNL     1      -2.934  -2.003  -2.381  0.00  0.00    +0.044 C 
ATOM     13  C   UNL     1       0.706  -4.541   1.320  0.00  0.00    +0.046 C 
ENDBRANCH   2   9
ENDBRANCH   1   2
BRANCH   1  14
ATOM     14  C   UNL     1      -3.540  -7.080  -1.291  0.00  0.00    +0.118 C 
BRANCH  14  15
ATOM     15  C   UNL     1      -3.556  -8.610  -1.267  0.00  0.00    +0.113 C 
BRANCH  15  16
ATOM     16  C   UNL     1      -3.876  -9.130  -2.645  0.00  0.00    +0.217 C 
ATOM     17  O   UNL     1      -4.072  -8.354  -3.556  0.00  0.00    -0.276 OA
ATOM     18  N   UNL     1      -3.945 -10.458  -2.864  0.00  0.00    -0.299 N 
ATOM     19  C   UNL     1      -3.718 -11.417  -1.772  0.00  0.00    +0.123 C 
ATOM     20  C   UNL     1      -2.676 -12.441  -2.232  0.00  0.00    +0.100 C 
ATOM     21  N   UNL     1      -3.109 -13.039  -3.502  0.00  0.00    -0.313 NA
ATOM     22  C   UNL     1      -3.187 -12.029  -4.567  0.00  0.00    +0.100 C 
ATOM     23  C   UNL     1      -4.256 -10.988  -4.200  0.00  0.00    +0.123 C 
ATOM     24  H   UNL     1      -2.503 -13.800  -3.769  0.00  0.00    +0.122 HD
ENDBRANCH  15  16
ENDBRANCH  14  15
ENDBRANCH   1  14
BRANCH   1  25
ATOM     25  C   UNL     1      -4.301  -6.391   1.030  0.00  0.00    +0.091 C 
BRANCH  25  26
ATOM     26  C   UNL     1      -4.954  -5.023   0.824  0.00  0.00    -0.061 C 
BRANCH  26  27
ATOM     27  N   UNL     1      -6.093  -4.881   1.739  0.00  0.00    +0.384 N 
ATOM     28  C   UNL     1      -6.797  -3.626   1.452  0.00  0.00    -0.071 C 
ATOM     29  C   UNL     1      -8.032  -3.512   2.348  0.00  0.00    -0.016 C 
ATOM     30  C   UNL     1      -7.594  -3.529   3.815  0.00  0.00    -0.003 C 
ATOM     31  C   UNL     1      -6.797  -4.808   4.085  0.00  0.00    -0.016 C 
ATOM     32  C   UNL     1      -5.608  -4.874   3.125  0.00  0.00    -0.071 C 
ATOM     33  C   UNL     1      -4.709  -3.655   3.343  0.00  0.00    -0.013 C 
ATOM     34  C   UNL     1      -7.230  -3.609  -0.016  0.00  0.00    -0.013 C 
ATOM     35  H   UNL     1      -6.726  -5.657   1.610  0.00  0.00    -0.081 HD
ENDBRANCH  26  27
ENDBRANCH  25  26
ENDBRANCH   1  25
TORSDOF 8
