REMARK  Name = ZINC64837543
REMARK  9 active torsions:
REMARK  status: ('A' for Active; 'I' for Inactive)
REMARK    1  A    between atoms: C_1  and  C_2
REMARK    2  A    between atoms: C_5  and  C_20
REMARK    3  A    between atoms: C_7  and  S_8
REMARK    4  A    between atoms: S_8  and  N_11
REMARK    5  A    between atoms: N_11  and  C_12
REMARK    6  A    between atoms: C_14  and  C_19
REMARK    7  A    between atoms: C_16  and  C_18
REMARK    8  A    between atoms: C_21  and  C_26
REMARK    9  A    between atoms: C_24  and  C_25
REMARK                            x       y       z     vdW  Elec       q    Type
REMARK                         _______ _______ _______ _____ _____    ______ ____
ROOT
ATOM      1  C   UNL     1      -0.278   1.386   0.093  0.00  0.00    +0.046 C 
ATOM      2  C   UNL     1      -0.168  -0.117   0.129  0.00  0.00    -0.024 A 
ATOM      3  C   UNL     1      -0.314  -0.846  -1.038  0.00  0.00    +0.006 A 
ATOM      4  C   UNL     1      -0.215  -2.223  -1.010  0.00  0.00    +0.009 A 
ATOM      5  C   UNL     1       0.034  -2.877   0.195  0.00  0.00    -0.011 A 
ATOM      6  C   UNL     1       0.180  -2.137   1.366  0.00  0.00    +0.037 A 
ATOM      7  C   UNL     1       0.084  -0.760   1.326  0.00  0.00    +0.112 A 
ENDROOT
BRANCH   5   8
ATOM      8  C   UNL     1       0.141  -4.357   0.230  0.00  0.00    +0.047 A 
ATOM      9  C   UNL     1      -0.742  -5.242   0.894  0.00  0.00    +0.088 A 
ATOM     10  N   UNL     1      -0.318  -6.456   0.695  0.00  0.00    -0.083 NA
ATOM     11  O   UNL     1       0.850  -6.394  -0.101  0.00  0.00    -0.359 OA
ATOM     12  C   UNL     1       1.102  -5.105  -0.373  0.00  0.00    +0.142 A 
ATOM     13  C   UNL     1       2.248  -4.579  -1.198  0.00  0.00    +0.090 C 
ATOM     14  C   UNL     1      -1.959  -4.848   1.690  0.00  0.00    +0.070 C 
ENDBRANCH   5   8
BRANCH   7  15
ATOM     15  S   UNL     1       0.276   0.177   2.806  0.00  0.00    +0.073 S 
ATOM     16  O   UNL     1      -0.840   1.055   2.878  0.00  0.00    -0.150 OA
ATOM     17  O   UNL     1       0.583  -0.750   3.837  0.00  0.00    -0.150 OA
BRANCH  15  18
ATOM     18  N   UNL     1       1.616   1.130   2.611  0.00  0.00    -0.216 N 
ATOM     19  H   UNL     1       1.532   2.096   2.637  0.00  0.00    +0.174 HD
BRANCH  18  20
ATOM     20  C   UNL     1       2.867   0.543   2.409  0.00  0.00    +0.049 A 
ATOM     21  C   UNL     1       3.274  -0.519   3.206  0.00  0.00    +0.028 A 
ATOM     22  C   UNL     1       4.512  -1.098   3.004  0.00  0.00    -0.048 A 
ATOM     23  C   UNL     1       5.345  -0.621   2.009  0.00  0.00    +0.006 A 
ATOM     24  C   UNL     1       4.943   0.437   1.214  0.00  0.00    -0.048 A 
ATOM     25  C   UNL     1       3.705   1.016   1.407  0.00  0.00    +0.028 A 
ATOM     26  C   UNL     1       5.855   0.954   0.131  0.00  0.00    +0.044 C 
ATOM     27  C   UNL     1       4.954  -2.250   3.868  0.00  0.00    +0.044 C 
ENDBRANCH  18  20
ENDBRANCH  15  18
ENDBRANCH   7  15
TORSDOF 4
