REMARK  Name = ZINC39512543
REMARK  2 active torsions:
REMARK  status: ('A' for Active; 'I' for Inactive)
REMARK    1  A    between atoms: C_3  and  O_15
REMARK    2  A    between atoms: N_12  and  O_14
REMARK                            x       y       z     vdW  Elec       q    Type
REMARK                         _______ _______ _______ _____ _____    ______ ____
ROOT
ATOM      1  C   UNL     1      -0.019   1.526   0.010  0.00  0.00    +0.020 C 
ATOM      2  C   UNL     1       1.419   2.053  -0.001  0.00  0.00    +0.034 C 
ATOM      3  C   UNL     1       2.143   1.511  -1.237  0.00  0.00    +0.137 C 
ATOM      4  C   UNL     1       2.091  -0.015  -1.223  0.00  0.00    +0.074 C 
ATOM      5  C   UNL     1       2.806  -0.571  -2.468  0.00  0.00    +0.029 C 
ATOM      6  C   UNL     1       4.240  -0.884  -1.972  0.00  0.00    +0.021 C 
ATOM      7  C   UNL     1       3.997  -1.424  -0.540  0.00  0.00    +0.082 C 
ATOM      8  C   UNL     1       2.845  -0.553   0.002  0.00  0.00    +0.046 C 
ATOM      9 CL   UNL     1       3.510  -3.159  -0.595  0.00  0.00    -0.122 Cl
ATOM     10  N   UNL     1       0.701  -0.479  -1.200  0.00  0.00    -0.182 NA
ATOM     11  C   UNL     1       0.002  -0.004   0.002  0.00  0.00    +0.115 C 
ENDROOT
BRANCH  10  12
ATOM     12  O   UNL     1      -0.008  -0.072  -2.413  0.00  0.00    -0.312 OA
ATOM     13  H   UNL     1      -0.932  -0.356  -2.443  0.00  0.00    +0.237 HD
ENDBRANCH  10  12
BRANCH   3  14
ATOM     14  O   UNL     1       3.505   1.943  -1.220  0.00  0.00    -0.390 OA
ATOM     15  H   UNL     1       3.613   2.904  -1.224  0.00  0.00    +0.210 HD
ENDBRANCH   3  14
TORSDOF 2
