REMARK  Name = ZINC39669317
REMARK  6 active torsions:
REMARK  status: ('A' for Active; 'I' for Inactive)
REMARK    1  A    between atoms: C_4  and  C_7
REMARK    2  A    between atoms: C_7  and  C_8
REMARK    3  A    between atoms: C_8  and  C_9
REMARK    4  A    between atoms: C_13  and  C_22
REMARK    5  A    between atoms: N_24  and  C_25
REMARK    6  A    between atoms: C_25  and  C_26
REMARK                            x       y       z     vdW  Elec       q    Type
REMARK                         _______ _______ _______ _____ _____    ______ ____
ROOT
ATOM      1  C   UNL     1       5.312  -1.472   1.514  0.00  0.00    +0.216 C 
ATOM      2  O   UNL     1       5.770  -1.690   0.412  0.00  0.00    -0.276 OA
ATOM      3  N   UNL     1       5.973  -1.887   2.613  0.00  0.00    -0.300 N 
ATOM      4  C   UNL     1       5.573  -1.722   4.030  0.00  0.00    +0.121 C 
ATOM      5  C   UNL     1       5.966  -3.055   4.705  0.00  0.00    +0.100 C 
ATOM      6  C   UNL     1       7.078  -3.632   3.813  0.00  0.00    -0.004 C 
ATOM      7  C   UNL     1       7.262  -2.617   2.677  0.00  0.00    +0.115 C 
ATOM      8  C   UNL     1       6.651  -4.981   3.243  0.00  0.00    -0.010 C 
ATOM      9  C   UNL     1       7.795  -5.562   2.407  0.00  0.00    -0.082 C 
ATOM     10  N   UNL     1       8.988  -5.719   3.248  0.00  0.00    +0.379 N 
ATOM     11  C   UNL     1       9.446  -4.406   3.717  0.00  0.00    -0.082 C 
ATOM     12  C   UNL     1       8.372  -3.776   4.609  0.00  0.00    -0.010 C 
ATOM     13  H   UNL     1       8.763  -6.299   4.043  0.00  0.00    -0.086 HD
ATOM     14  H   UNL     1       9.721  -6.158   2.711  0.00  0.00    -0.086 HD
ENDROOT
BRANCH   5  15
ATOM     15  C   UNL     1       4.786  -3.990   4.748  0.00  0.00    +0.218 C 
ATOM     16  O   UNL     1       3.937  -3.935   3.883  0.00  0.00    -0.275 OA
ATOM     17  N   UNL     1       4.672  -4.887   5.747  0.00  0.00    -0.315 N 
ATOM     18  H   UNL     1       5.351  -4.931   6.439  0.00  0.00    +0.149 HD
BRANCH  17  19
ATOM     19  C   UNL     1       3.525  -5.797   5.788  0.00  0.00    +0.109 C 
BRANCH  19  20
ATOM     20  C   UNL     1       3.638  -6.705   7.014  0.00  0.00    +0.024 C 
ATOM     21  C   UNL     1       2.507  -7.736   6.992  0.00  0.00    +0.008 C 
ATOM     22  C   UNL     1       2.638  -8.666   8.200  0.00  0.00    +0.019 C 
ATOM     23  C   UNL     1       2.518  -7.844   9.488  0.00  0.00    +0.108 C 
ATOM     24  N   UNL     1       3.509  -6.760   9.450  0.00  0.00    -0.299 N 
ATOM     25  C   UNL     1       3.530  -5.861   8.288  0.00  0.00    +0.113 C 
ATOM     26  C   UNL     1       4.405  -6.588  10.490  0.00  0.00    +0.218 A 
ATOM     27  N   UNL     1       5.283  -5.597  10.430  0.00  0.00    -0.223 NA
ATOM     28  C   UNL     1       6.153  -5.404  11.408  0.00  0.00    +0.116 A 
ATOM     29  C   UNL     1       6.139  -6.254  12.503  0.00  0.00    +0.039 A 
ATOM     30  C   UNL     1       5.207  -7.280  12.534  0.00  0.00    +0.116 A 
ATOM     31  N   UNL     1       4.362  -7.414  11.525  0.00  0.00    -0.223 NA
ENDBRANCH  19  20
ENDBRANCH  17  19
ENDBRANCH   5  15
BRANCH   1  32
ATOM     32  C   UNL     1       4.003  -0.739   1.654  0.00  0.00    +0.100 C 
BRANCH  32  33
ATOM     33  C   UNL     1       3.466  -0.384   0.266  0.00  0.00    +0.044 C 
BRANCH  33  37
ATOM     34  C   UNL     1      -0.244   1.695   0.661  0.00  0.00    +0.000 A 
ATOM     35  C   UNL     1       0.944   2.401   0.637  0.00  0.00    +0.000 A 
ATOM     36  C   UNL     1       2.145   1.728   0.509  0.00  0.00    +0.003 A 
ATOM     37  C   UNL     1       2.157   0.350   0.406  0.00  0.00    -0.047 A 
ATOM     38  C   UNL     1       0.969  -0.356   0.431  0.00  0.00    +0.003 A 
ATOM     39  C   UNL     1      -0.232   0.317   0.557  0.00  0.00    +0.000 A 
ENDBRANCH  33  37
ENDBRANCH  32  33
ENDBRANCH   1  32
TORSDOF 6
