REMARK  Name = ZINC39926708
REMARK  10 active torsions:
REMARK  status: ('A' for Active; 'I' for Inactive)
REMARK    1  A    between atoms: C_1  and  C_2
REMARK    2  A    between atoms: C_2  and  C_3
REMARK    3  A    between atoms: C_3  and  C_4
REMARK    4  A    between atoms: C_4  and  O_5
REMARK    5  A    between atoms: O_5  and  C_6
REMARK    6  A    between atoms: C_6  and  C_8
REMARK    7  A    between atoms: C_17  and  N_19
REMARK    8  A    between atoms: C_20  and  C_22
REMARK    9  A    between atoms: C_22  and  C_33
REMARK   10  A    between atoms: C_23  and  C_24
REMARK                            x       y       z     vdW  Elec       q    Type
REMARK                         _______ _______ _______ _____ _____    ______ ____
ROOT
ATOM      1  N   UNL     1       1.830  -2.941   5.629  0.00  0.00    -0.295 N 
ATOM      2  C   UNL     1       2.020  -2.916   6.963  0.00  0.00    +0.255 C 
ATOM      3  O   UNL     1       3.050  -3.354   7.438  0.00  0.00    -0.269 OA
ATOM      4  H   UNL     1       1.008  -2.591   5.249  0.00  0.00    +0.150 HD
ENDROOT
BRANCH   1  13
ATOM      5  C   UNL     1       2.260  -4.409   3.702  0.00  0.00    +0.067 C 
ATOM      6  C   UNL     1       2.375  -5.704   3.852  0.00  0.00    -0.044 C 
ATOM      7  C   UNL     1       1.930  -6.754   2.833  0.00  0.00    +0.032 C 
ATOM      8  C   UNL     1       1.988  -8.106   3.549  0.00  0.00    +0.004 C 
ATOM      9  C   UNL     1       3.394  -8.435   4.030  0.00  0.00    +0.002 C 
ATOM     10  C   UNL     1       4.120  -7.229   4.620  0.00  0.00    +0.018 C 
ATOM     11  C   UNL     1       3.094  -6.207   5.113  0.00  0.00    +0.075 C 
ATOM     12  S   UNL     1       3.945  -4.675   5.667  0.00  0.00    -0.126 S 
ATOM     13  C   UNL     1       2.864  -3.494   4.751  0.00  0.00    +0.169 C 
BRANCH   5  14
ATOM     14  C   UNL     1       1.562  -3.850   2.536  0.00  0.00    +0.338 C 
ATOM     15  O   UNL     1       1.082  -4.592   1.701  0.00  0.00    -0.245 OA
BRANCH  14  16
ATOM     16  O   UNL     1       1.454  -2.514   2.391  0.00  0.00    -0.461 OA
BRANCH  16  17
ATOM     17  C   UNL     1       0.763  -2.041   1.233  0.00  0.00    +0.232 C 
BRANCH  17  18
ATOM     18  C   UNL     1       0.742  -0.511   1.242  0.00  0.00    +0.041 C 
BRANCH  18  20
ATOM     19  C   UNL     1      -0.019   1.526   0.010  0.00  0.00    +0.004 C 
ATOM     20  C   UNL     1       0.002  -0.004   0.002  0.00  0.00    -0.000 C 
ENDBRANCH  18  20
ENDBRANCH  17  18
ENDBRANCH  16  17
ENDBRANCH  14  16
ENDBRANCH   5  14
ENDBRANCH   1  13
BRANCH   2  21
ATOM     21  C   UNL     1       0.979  -2.360   7.845  0.00  0.00    +0.114 C 
ATOM     22  C   UNL     1       1.174  -2.334   9.217  0.00  0.00    +0.030 C 
BRANCH  22  23
ATOM     23  C   UNL     1       0.186  -1.806  10.055  0.00  0.00    -0.018 C 
ATOM     24  C   UNL     1       0.226  -1.701  11.441  0.00  0.00    +0.003 A 
ATOM     25  C   UNL     1       1.195  -2.062  12.403  0.00  0.00    +0.010 A 
ATOM     26  C   UNL     1       0.965  -1.840  13.719  0.00  0.00    +0.001 A 
ATOM     27  C   UNL     1      -0.219  -1.255  14.186  0.00  0.00    +0.002 A 
ATOM     28  C   UNL     1      -1.208  -0.874  13.346  0.00  0.00    +0.026 A 
ATOM     29  C   UNL     1      -1.036  -1.080  11.901  0.00  0.00    +0.043 A 
ATOM     30  N   UNL     1      -1.813  -0.813  10.884  0.00  0.00    -0.380 N 
ATOM     31  C   UNL     1      -1.147  -1.222   9.643  0.00  0.00    +0.149 C 
ATOM     32  H   UNL     1      -2.691  -0.405  10.941  0.00  0.00    +0.160 HD
ENDBRANCH  22  23
BRANCH  21  33
ATOM     33  C   UNL     1      -0.234  -1.844   7.285  0.00  0.00    +0.104 C 
ATOM     34  N   UNL     1      -1.197  -1.436   6.841  0.00  0.00    -0.191 NA
ENDBRANCH  21  33
ENDBRANCH   2  21
TORSDOF 9
