REMARK  Name = ZINC46624659
REMARK  5 active torsions:
REMARK  status: ('A' for Active; 'I' for Inactive)
REMARK    1  A    between atoms: C_6  and  C_7
REMARK    2  A    between atoms: C_7  and  C_12
REMARK    3  A    between atoms: C_12  and  N_13
REMARK    4  A    between atoms: C_14  and  C_16
REMARK    5  A    between atoms: N_21  and  C_23
REMARK                            x       y       z     vdW  Elec       q    Type
REMARK                         _______ _______ _______ _____ _____    ______ ____
ROOT
ATOM      1  N   UNL     1      -0.120  -2.636   1.069  0.00  0.00    -0.314 N 
ATOM      2  C   UNL     1       0.036  -3.668   1.922  0.00  0.00    +0.218 C 
ATOM      3  O   UNL     1      -0.814  -3.900   2.756  0.00  0.00    -0.275 OA
ATOM      4  H   UNL     1       0.560  -2.451   0.403  0.00  0.00    +0.149 HD
ENDROOT
BRANCH   2   5
ATOM      5  C   UNL     1       1.266  -4.535   1.839  0.00  0.00    +0.101 C 
ATOM      6  C   UNL     1       1.317  -5.296   0.494  0.00  0.00    +0.110 C 
ATOM      7  C   UNL     1       1.890  -6.649   0.855  0.00  0.00    +0.221 C 
ATOM      8  O   UNL     1       2.351  -7.442   0.062  0.00  0.00    -0.275 OA
ATOM      9  N   UNL     1       1.813  -6.844   2.183  0.00  0.00    -0.271 N 
ATOM     10  C   UNL     1       1.195  -5.695   2.856  0.00  0.00    +0.127 C 
BRANCH   9  11
ATOM     11  C   UNL     1       2.265  -7.996   2.840  0.00  0.00    +0.040 A 
ATOM     12  C   UNL     1       2.244  -8.057   4.227  0.00  0.00    +0.027 A 
ATOM     13  C   UNL     1       2.689  -9.193   4.877  0.00  0.00    +0.051 A 
ATOM     14  C   UNL     1       3.159 -10.272   4.146  0.00  0.00    +0.166 A 
ATOM     15  C   UNL     1       3.182 -10.214   2.755  0.00  0.00    +0.168 A 
ATOM     16  C   UNL     1       2.730  -9.078   2.104  0.00  0.00    +0.073 A 
ATOM     17  O   UNL     1       3.683 -11.390   2.277  0.00  0.00    -0.453 OA
ATOM     18  C   UNL     1       4.347 -12.008   3.395  0.00  0.00    +0.466 C 
ATOM     19  O   UNL     1       3.647 -11.486   4.539  0.00  0.00    -0.453 OA
ENDBRANCH   9  11
ENDBRANCH   2   5
BRANCH   1  20
ATOM     20  C   UNL     1      -1.315  -1.794   1.150  0.00  0.00    +0.115 C 
BRANCH  20  21
ATOM     21  C   UNL     1      -1.298  -0.773   0.011  0.00  0.00    +0.011 C 
ATOM     22  C   UNL     1      -1.250  -1.499  -1.350  0.00  0.00    +0.013 C 
ATOM     23  C   UNL     1      -2.731  -1.567  -1.797  0.00  0.00    +0.001 C 
ATOM     24  C   UNL     1      -3.292  -0.201  -1.331  0.00  0.00    +0.001 C 
ATOM     25  C   UNL     1      -2.596   0.053   0.022  0.00  0.00    +0.013 C 
BRANCH  21  31
ATOM     26  C   UNL     1       0.696   0.055   1.275  0.00  0.00    +0.008 A 
ATOM     27  C   UNL     1       1.790   0.890   1.409  0.00  0.00    +0.050 A 
ATOM     28  C   UNL     1       2.085   1.813   0.417  0.00  0.00    +0.162 A 
ATOM     29  C   UNL     1       1.280   1.894  -0.714  0.00  0.00    +0.162 A 
ATOM     30  C   UNL     1       0.184   1.055  -0.841  0.00  0.00    +0.053 A 
ATOM     31  C   UNL     1      -0.106   0.138   0.152  0.00  0.00    -0.036 A 
ATOM     32  O   UNL     1       1.557   2.787  -1.703  0.00  0.00    -0.485 OA
ATOM     33  C   UNL     1       2.441   3.863  -1.370  0.00  0.00    +0.270 C 
ATOM     34  C   UNL     1       3.645   3.280  -0.617  0.00  0.00    +0.270 C 
ATOM     35  O   UNL     1       3.163   2.631   0.565  0.00  0.00    -0.485 OA
ENDBRANCH  21  31
ENDBRANCH  20  21
ENDBRANCH   1  20
TORSDOF 5
