REMARK  Name = ZINC35971616
REMARK  11 active torsions:
REMARK  status: ('A' for Active; 'I' for Inactive)
REMARK    1  A    between atoms: C_1  and  C_2
REMARK    2  A    between atoms: C_2  and  C_3
REMARK    3  A    between atoms: C_2  and  C_4
REMARK    4  A    between atoms: C_4  and  C_6
REMARK    5  A    between atoms: C_4  and  N_16
REMARK    6  A    between atoms: N_8  and  C_9
REMARK    7  A    between atoms: C_9  and  C_10
REMARK    8  A    between atoms: C_22  and  C_31
REMARK    9  A    between atoms: N_27  and  C_28
REMARK   10  A    between atoms: C_28  and  C_29
REMARK   11  A    between atoms: C_36  and  C_37
REMARK                            x       y       z     vdW  Elec       q    Type
REMARK                         _______ _______ _______ _____ _____    ______ ____
ROOT
ATOM      1  N   UNL     1       2.783   1.019   1.210  0.00  0.00    -0.280 N 
ATOM      2  C   UNL     1       2.765   1.659   2.534  0.00  0.00    +0.160 C 
ATOM      3  C   UNL     1       4.215   1.961   2.840  0.00  0.00    +0.043 C 
ATOM      4  C   UNL     1       4.925   1.523   1.781  0.00  0.00    +0.058 C 
ATOM      5  C   UNL     1       4.068   0.958   0.815  0.00  0.00    +0.247 C 
ATOM      6  O   UNL     1       4.441   0.480  -0.241  0.00  0.00    -0.270 OA
ATOM      7  C   UNL     1       6.429   1.702   1.819  0.00  0.00    +0.142 C 
ATOM      8  N   UNL     1       6.994   2.343   3.018  0.00  0.00    -0.288 N 
ATOM      9  C   UNL     1       6.152   2.728   3.998  0.00  0.00    +0.307 C 
ATOM     10  O   UNL     1       6.609   3.259   4.991  0.00  0.00    -0.252 OA
ATOM     11  N   UNL     1       4.828   2.545   3.911  0.00  0.00    -0.253 N 
ATOM     12  H   UNL     1       7.950   2.485   3.102  0.00  0.00    +0.151 HD
ENDROOT
BRANCH   7  13
ATOM     13  C   UNL     1       7.063   0.341   1.679  0.00  0.00    -0.011 A 
ATOM     14  C   UNL     1       6.984  -0.568   2.717  0.00  0.00    +0.006 A 
ATOM     15  C   UNL     1       7.565  -1.816   2.589  0.00  0.00    +0.000 A 
ATOM     16  C   UNL     1       8.224  -2.155   1.422  0.00  0.00    +0.001 A 
ATOM     17  C   UNL     1       8.302  -1.246   0.384  0.00  0.00    +0.013 A 
ATOM     18  C   UNL     1       7.718   0.001   0.510  0.00  0.00    +0.060 A 
BRANCH  18  19
ATOM     19  C   UNL     1       7.798   0.990  -0.624  0.00  0.00    +0.418 C 
ATOM     20  F   UNL     1       8.486   0.414  -1.697  0.00  0.00    -0.166 F 
ATOM     21  F   UNL     1       6.506   1.338  -1.031  0.00  0.00    -0.166 F 
ATOM     22  F   UNL     1       8.477   2.136  -0.196  0.00  0.00    -0.166 F 
ENDBRANCH  18  19
ENDBRANCH   7  13
BRANCH   1  23
ATOM     23  C   UNL     1       1.620   0.532   0.463  0.00  0.00    +0.165 C 
BRANCH  23  24
ATOM     24  C   UNL     1       1.696  -0.967   0.336  0.00  0.00    +0.234 C 
ATOM     25  O   UNL     1       2.766  -1.531   0.434  0.00  0.00    -0.274 OA
ATOM     26  N   UNL     1       0.576  -1.682   0.112  0.00  0.00    -0.311 N 
ATOM     27  H   UNL     1      -0.265  -1.227  -0.049  0.00  0.00    +0.149 HD
BRANCH  26  28
ATOM     28  C   UNL     1       0.629  -3.146   0.114  0.00  0.00    +0.135 C 
BRANCH  28  29
ATOM     29  C   UNL     1      -0.767  -3.707  -0.163  0.00  0.00    +0.135 C 
ATOM     30  C   UNL     1      -0.746  -5.246  -0.044  0.00  0.00    +0.035 C 
ATOM     31  C   UNL     1      -1.678  -5.679  -1.209  0.00  0.00    +0.031 C 
ATOM     32  C   UNL     1      -1.364  -4.585  -2.259  0.00  0.00    +0.160 C 
ATOM     33  O   UNL     1      -1.167  -3.380  -1.499  0.00  0.00    -0.375 OA
ENDBRANCH  28  29
ENDBRANCH  26  28
ENDBRANCH  23  24
BRANCH  23  35
ATOM     34  C   UNL     1       0.337   0.744  -1.670  0.00  0.00    +0.009 C 
ATOM     35  C   UNL     1       1.609   1.163  -0.931  0.00  0.00    +0.012 C 
ATOM     36  C   UNL     1       1.645   2.687  -0.801  0.00  0.00    +0.009 C 
ENDBRANCH  23  35
ENDBRANCH   1  23
BRANCH  11  37
ATOM     37  C   UNL     1       3.992   2.998   5.026  0.00  0.00    +0.141 C 
BRANCH  37  38
ATOM     38  C   UNL     1       3.840   1.880   6.026  0.00  0.00    -0.015 C 
ATOM     39  C   UNL     1       4.162   2.076   7.280  0.00  0.00    +0.005 C 
ENDBRANCH  37  38
ENDBRANCH  11  37
TORSDOF 9
