REMARK  Name = ZINC63985675
REMARK  10 active torsions:
REMARK  status: ('A' for Active; 'I' for Inactive)
REMARK    1  A    between atoms: C_1  and  C_2
REMARK    2  A    between atoms: C_7  and  S_12
REMARK    3  A    between atoms: S_12  and  C_13
REMARK    4  A    between atoms: C_13  and  C_14
REMARK    5  A    between atoms: C_21  and  C_30
REMARK    6  A    between atoms: N_23  and  C_24
REMARK    7  A    between atoms: C_24  and  C_25
REMARK    8  A    between atoms: C_25  and  C_26
REMARK    9  A    between atoms: N_32  and  C_33
REMARK   10  A    between atoms: N_32  and  C_34
REMARK                            x       y       z     vdW  Elec       q    Type
REMARK                         _______ _______ _______ _____ _____    ______ ____
ROOT
ATOM      1  C   UNL     1      -3.998  -5.235   1.376  0.00  0.00    +0.226 C 
ATOM      2  O   UNL     1      -3.997  -6.370   1.803  0.00  0.00    -0.275 OA
ATOM      3  N   UNL     1      -5.155  -4.549   1.288  0.00  0.00    -0.296 N 
ATOM      4  C   UNL     1      -5.178  -3.174   0.767  0.00  0.00    +0.114 C 
ATOM      5  C   UNL     1      -5.989  -3.138  -0.535  0.00  0.00    +0.074 C 
ATOM      6  C   UNL     1      -7.259  -3.924  -0.337  0.00  0.00    +0.046 A 
ATOM      7  C   UNL     1      -7.452  -4.824   0.658  0.00  0.00    +0.023 A 
ATOM      8  C   UNL     1      -8.750  -5.328   0.480  0.00  0.00    +0.152 A 
ATOM      9  N   UNL     1      -9.251  -4.716  -0.580  0.00  0.00    -0.166 NA
ATOM     10  N   UNL     1      -8.388  -3.892  -1.065  0.00  0.00    -0.267 N 
ATOM     11  C   UNL     1      -6.430  -5.161   1.705  0.00  0.00    +0.147 C 
ENDROOT
BRANCH   8  12
ATOM     12  C   UNL     1      -9.425  -6.344   1.314  0.00  0.00    +0.267 C 
ATOM     13  O   UNL     1      -8.893  -6.747   2.330  0.00  0.00    -0.268 OA
ATOM     14  N   UNL     1     -10.630  -6.823   0.948  0.00  0.00    -0.302 N 
ATOM     15  C   UNL     1     -11.362  -7.725   1.842  0.00  0.00    +0.132 C 
ATOM     16  C   UNL     1     -11.209  -6.442  -0.343  0.00  0.00    +0.132 C 
ENDBRANCH   8  12
BRANCH   1  17
ATOM     17  C   UNL     1      -2.705  -4.591   0.944  0.00  0.00    +0.168 C 
BRANCH  17  18
ATOM     18  S   UNL     1      -1.339  -5.760   1.183  0.00  0.00    -0.106 S 
BRANCH  18  25
ATOM     19  C   UNL     1       0.263   1.144  -0.119  0.00  0.00    +0.044 C 
ATOM     20  C   UNL     1       0.177  -0.347  -0.324  0.00  0.00    -0.048 A 
ATOM     21  C   UNL     1      -0.014  -0.839  -1.628  0.00  0.00    +0.005 A 
ATOM     22  C   UNL     1      -0.102  -2.156  -1.902  0.00  0.00    +0.028 A 
ATOM     23  C   UNL     1       0.004  -3.132  -0.809  0.00  0.00    +0.061 A 
ATOM     24  N   UNL     1      -0.044  -4.433  -0.776  0.00  0.00    -0.355 N 
ATOM     25  C   UNL     1       0.124  -4.845   0.623  0.00  0.00    +0.236 C 
ATOM     26  N   UNL     1       0.276  -3.610   1.403  0.00  0.00    -0.355 N 
ATOM     27  C   UNL     1       0.206  -2.611   0.571  0.00  0.00    +0.061 A 
ATOM     28  C   UNL     1       0.292  -1.155   0.748  0.00  0.00    +0.030 A 
ATOM     29  H   UNL     1      -0.168  -5.022  -1.537  0.00  0.00    +0.162 HD
ATOM     30  H   UNL     1       0.405  -3.549   2.363  0.00  0.00    +0.162 HD
ENDBRANCH  18  25
ENDBRANCH  17  18
ENDBRANCH   1  17
BRANCH  10  31
ATOM     31  C   UNL     1      -8.607  -3.043  -2.239  0.00  0.00    +0.152 C 
BRANCH  31  32
ATOM     32  C   UNL     1      -8.164  -3.790  -3.498  0.00  0.00    +0.136 C 
BRANCH  32  33
ATOM     33  C   UNL     1      -8.392  -2.903  -4.724  0.00  0.00    +0.392 C 
ATOM     34  F   UNL     1      -7.646  -1.727  -4.594  0.00  0.00    -0.171 F 
ATOM     35  F   UNL     1      -7.987  -3.587  -5.876  0.00  0.00    -0.171 F 
ATOM     36  F   UNL     1      -9.751  -2.586  -4.824  0.00  0.00    -0.171 F 
ENDBRANCH  32  33
ENDBRANCH  31  32
ENDBRANCH  10  31
TORSDOF 7
