REMARK  Name = ZINC37427106
REMARK  12 active torsions:
REMARK  status: ('A' for Active; 'I' for Inactive)
REMARK    1  A    between atoms: C_1  and  C_2
REMARK    2  A    between atoms: C_2  and  O_3
REMARK    3  A    between atoms: O_3  and  C_4
REMARK    4  A    between atoms: C_4  and  C_6
REMARK    5  A    between atoms: C_6  and  C_8
REMARK    6  A    between atoms: C_6  and  C_18
REMARK    7  A    between atoms: C_10  and  O_16
REMARK    8  A    between atoms: C_13  and  O_14
REMARK    9  A    between atoms: O_14  and  C_15
REMARK   10  A    between atoms: O_16  and  C_17
REMARK   11  A    between atoms: C_21  and  N_25
REMARK   12  A    between atoms: C_26  and  C_28
REMARK                            x       y       z     vdW  Elec       q    Type
REMARK                         _______ _______ _______ _____ _____    ______ ____
ROOT
ATOM      1  C   UNL     1       0.741  -1.885  -3.812  0.00  0.00    +0.032 C 
ATOM      2  C   UNL     1       1.458  -2.415  -5.075  0.00  0.00    +0.035 C 
ATOM      3  C   UNL     1       2.385  -1.227  -5.422  0.00  0.00    +0.097 C 
ATOM      4  C   UNL     1       1.710  -0.022  -4.811  0.00  0.00    -0.009 C 
ATOM      5  C   UNL     1       0.810  -0.380  -3.931  0.00  0.00    -0.025 C 
ENDROOT
BRANCH   3   6
ATOM      6  N   UNL     1       3.712  -1.425  -4.833  0.00  0.00    -0.305 N 
ATOM      7  C   UNL     1       4.789  -0.830  -5.382  0.00  0.00    +0.247 C 
ATOM      8  O   UNL     1       4.660  -0.129  -6.367  0.00  0.00    -0.270 OA
ATOM      9  H   UNL     1       3.814  -1.985  -4.047  0.00  0.00    +0.150 HD
BRANCH   7  10
ATOM     10  C   UNL     1       6.126  -1.030  -4.788  0.00  0.00    +0.073 A 
ATOM     11  C   UNL     1       6.935  -2.085  -5.218  0.00  0.00    +0.056 A 
ATOM     12  C   UNL     1       8.183  -2.266  -4.658  0.00  0.00    +0.040 A 
ATOM     13  C   UNL     1       8.635  -1.405  -3.672  0.00  0.00    +0.044 A 
ATOM     14  C   UNL     1       7.838  -0.358  -3.241  0.00  0.00    +0.040 A 
ATOM     15  C   UNL     1       6.590  -0.161  -3.796  0.00  0.00    +0.056 A 
ATOM     16 CL   UNL     1       5.597   1.157  -3.259  0.00  0.00    -0.083 Cl
ATOM     17 CL   UNL     1      10.206  -1.641  -2.973  0.00  0.00    -0.083 Cl
ATOM     18 CL   UNL     1       6.370  -3.167  -6.454  0.00  0.00    -0.083 Cl
ENDBRANCH   7  10
ENDBRANCH   3   6
BRANCH   1  19
ATOM     19  C   UNL     1       1.468  -2.353  -2.550  0.00  0.00    +0.138 C 
BRANCH  19  20
ATOM     20  C   UNL     1       1.450  -3.859  -2.489  0.00  0.00    +0.012 A 
ATOM     21  C   UNL     1       0.245  -4.535  -2.457  0.00  0.00    +0.053 A 
ATOM     22  C   UNL     1       0.228  -5.920  -2.402  0.00  0.00    +0.121 A 
ATOM     23  C   UNL     1       1.421  -6.628  -2.379  0.00  0.00    +0.049 A 
ATOM     24  C   UNL     1       2.625  -5.953  -2.412  0.00  0.00    +0.049 A 
ATOM     25  C   UNL     1       2.642  -4.567  -2.473  0.00  0.00    +0.124 A 
BRANCH  25  26
ATOM     26  O   UNL     1       3.828  -3.902  -2.510  0.00  0.00    -0.495 OA
ATOM     27  C   UNL     1       5.017  -4.695  -2.490  0.00  0.00    +0.277 C 
ENDBRANCH  25  26
BRANCH  22  28
ATOM     28  O   UNL     1      -0.958  -6.585  -2.369  0.00  0.00    -0.495 OA
ATOM     29  C   UNL     1      -0.900  -8.011  -2.313  0.00  0.00    +0.277 C 
ENDBRANCH  22  28
ENDBRANCH  19  20
BRANCH  19  30
ATOM     30  C   UNL     1       0.775  -1.794  -1.334  0.00  0.00    +0.315 C 
ATOM     31  O   UNL     1       0.314  -2.540  -0.504  0.00  0.00    -0.250 OA
BRANCH  30  32
ATOM     32  O   UNL     1       0.671  -0.465  -1.174  0.00  0.00    -0.464 OA
BRANCH  32  34
ATOM     33  C   UNL     1      -0.019   1.526   0.010  0.00  0.00    +0.048 C 
ATOM     34  C   UNL     1       0.002  -0.004   0.002  0.00  0.00    +0.229 C 
ENDBRANCH  32  34
ENDBRANCH  30  32
ENDBRANCH  19  30
ENDBRANCH   1  19
TORSDOF 9
