REMARK  Name = ZINC08702051
REMARK  3 active torsions:
REMARK  status: ('A' for Active; 'I' for Inactive)
REMARK    1  A    between atoms: C_1  and  C_2
REMARK    2  A    between atoms: C_5  and  N_8
REMARK    3  A    between atoms: C_9  and  C_13
REMARK                            x       y       z     vdW  Elec       q    Type
REMARK                         _______ _______ _______ _____ _____    ______ ____
ROOT
ATOM      1  N   UNL     1       0.003  -4.175   0.025  0.00  0.00    -0.193 N 
ATOM      2  C   UNL     1       0.765  -4.998   0.805  0.00  0.00    +0.189 A 
ATOM      3  N   UNL     1       0.534  -6.231   0.398  0.00  0.00    -0.108 NA
ATOM      4  N   UNL     1      -0.309  -6.234  -0.570  0.00  0.00    -0.022 NA
ATOM      5  N   UNL     1      -0.682  -5.034  -0.852  0.00  0.00    -0.039 NA
ENDROOT
BRANCH   2   6
ATOM      6  C   UNL     1       1.672  -4.586   1.893  0.00  0.00    +0.046 A 
ATOM      7  C   UNL     1       1.399  -3.702   2.888  0.00  0.00    +0.095 A 
ATOM      8  N   UNL     1       2.482  -3.579   3.705  0.00  0.00    -0.359 N 
ATOM      9  H   UNL     1       2.525  -3.005   4.485  0.00  0.00    +0.165 HD
ATOM     10  C   UNL     1       3.507  -4.388   3.263  0.00  0.00    +0.066 A 
ATOM     11  C   UNL     1       3.050  -5.059   2.117  0.00  0.00    +0.012 A 
ATOM     12  C   UNL     1       3.884  -5.957   1.454  0.00  0.00    +0.011 A 
ATOM     13  C   UNL     1       5.155  -6.186   1.930  0.00  0.00    +0.002 A 
ATOM     14  C   UNL     1       5.608  -5.527   3.064  0.00  0.00    +0.022 A 
ATOM     15  C   UNL     1       4.798  -4.628   3.725  0.00  0.00    +0.065 A 
ATOM     16 CL   UNL     1       5.379  -3.815   5.144  0.00  0.00    -0.081 Cl
ENDBRANCH   2   6
BRANCH   1  21
ATOM     17  C   UNL     1      -0.338   1.484   0.288  0.00  0.00    +0.044 C 
ATOM     18  C   UNL     1      -0.247  -0.019   0.218  0.00  0.00    -0.050 A 
ATOM     19  C   UNL     1      -1.395  -0.772   0.050  0.00  0.00    +0.005 A 
ATOM     20  C   UNL     1      -1.315  -2.150  -0.014  0.00  0.00    +0.028 A 
ATOM     21  C   UNL     1      -0.081  -2.778   0.090  0.00  0.00    +0.069 A 
ATOM     22  C   UNL     1       1.069  -2.018   0.258  0.00  0.00    +0.028 A 
ATOM     23  C   UNL     1       0.984  -0.641   0.316  0.00  0.00    +0.005 A 
ENDBRANCH   1  21
TORSDOF 2
