REMARK  Name = ZINC32537434
REMARK  10 active torsions:
REMARK  status: ('A' for Active; 'I' for Inactive)
REMARK    1  A    between atoms: C_1  and  C_2
REMARK    2  A    between atoms: C_4  and  N_23
REMARK    3  A    between atoms: C_5  and  C_22
REMARK    4  A    between atoms: C_7  and  S_8
REMARK    5  A    between atoms: S_8  and  N_11
REMARK    6  A    between atoms: N_11  and  C_12
REMARK    7  A    between atoms: C_15  and  O_20
REMARK    8  A    between atoms: C_17  and  O_18
REMARK    9  A    between atoms: O_18  and  C_19
REMARK   10  A    between atoms: O_20  and  C_21
REMARK                            x       y       z     vdW  Elec       q    Type
REMARK                         _______ _______ _______ _____ _____    ______ ____
ROOT
ATOM      1  C   UNL     1       0.189   1.070  -1.846  0.00  0.00    +0.046 C 
ATOM      2  C   UNL     1       1.287   0.787  -2.838  0.00  0.00    -0.022 A 
ATOM      3  C   UNL     1       1.141   1.172  -4.157  0.00  0.00    +0.030 A 
ATOM      4  C   UNL     1       2.151   0.905  -5.072  0.00  0.00    +0.054 A 
ATOM      5  C   UNL     1       3.307   0.256  -4.657  0.00  0.00    -0.026 A 
ATOM      6  C   UNL     1       3.449  -0.121  -3.336  0.00  0.00    +0.034 A 
ATOM      7  C   UNL     1       2.441   0.146  -2.427  0.00  0.00    +0.112 A 
ATOM      8  C   UNL     1       4.406  -0.035  -5.646  0.00  0.00    +0.046 C 
ENDROOT
BRANCH   4   9
ATOM      9  N   UNL     1       2.005   1.288  -6.407  0.00  0.00    -0.207 N 
ATOM     10  C   UNL     1       2.350   2.648  -6.849  0.00  0.00    +0.131 C 
ATOM     11  C   UNL     1       1.139   3.299  -7.503  0.00  0.00    +0.022 C 
ATOM     12  C   UNL     1       0.745   2.554  -8.777  0.00  0.00    +0.026 C 
ATOM     13  C   UNL     1       0.153   1.187  -8.416  0.00  0.00    +0.189 C 
ATOM     14  S   UNL     1       1.428   0.222  -7.548  0.00  0.00    +0.045 S 
ATOM     15  O   UNL     1       2.530  -0.030  -8.409  0.00  0.00    -0.155 OA
ATOM     16  O   UNL     1       0.832  -0.830  -6.802  0.00  0.00    -0.155 OA
ENDBRANCH   4   9
BRANCH   7  17
ATOM     17  S   UNL     1       2.625  -0.337  -0.743  0.00  0.00    +0.073 S 
ATOM     18  O   UNL     1       2.304   0.802   0.044  0.00  0.00    -0.150 OA
ATOM     19  O   UNL     1       3.878  -1.001  -0.646  0.00  0.00    -0.150 OA
BRANCH  17  20
ATOM     20  N   UNL     1       1.462  -1.473  -0.429  0.00  0.00    -0.213 N 
ATOM     21  H   UNL     1       0.708  -1.287   0.351  0.00  0.00    +0.174 HD
BRANCH  20  22
ATOM     22  C   UNL     1       1.437  -2.671  -1.158  0.00  0.00    +0.090 A 
ATOM     23  C   UNL     1       2.624  -3.268  -1.552  0.00  0.00    +0.032 A 
ATOM     24  C   UNL     1       2.599  -4.447  -2.274  0.00  0.00    +0.048 A 
ATOM     25  C   UNL     1       1.388  -5.039  -2.597  0.00  0.00    +0.124 A 
ATOM     26  C   UNL     1       0.197  -4.445  -2.205  0.00  0.00    +0.093 A 
ATOM     27  C   UNL     1       0.219  -3.261  -1.486  0.00  0.00    +0.146 A 
BRANCH  27  28
ATOM     28  O   UNL     1      -0.948  -2.678  -1.100  0.00  0.00    -0.493 OA
ATOM     29  C   UNL     1      -2.158  -3.339  -1.472  0.00  0.00    +0.277 C 
ENDBRANCH  27  28
BRANCH  25  30
ATOM     30  O   UNL     1       1.367  -6.201  -3.303  0.00  0.00    -0.495 OA
ATOM     31  C   UNL     1       2.629  -6.758  -3.674  0.00  0.00    +0.277 C 
ENDBRANCH  25  30
ENDBRANCH  20  22
ENDBRANCH  17  20
ENDBRANCH   7  17
TORSDOF 6
