REMARK  Name = ZINC02252918
REMARK  12 active torsions:
REMARK  status: ('A' for Active; 'I' for Inactive)
REMARK    1  A    between atoms: C_1  and  C_2
REMARK    2  A    between atoms: C_8  and  N_14
REMARK    3  A    between atoms: C_10  and  S_12
REMARK    4  A    between atoms: S_12  and  C_13
REMARK    5  A    between atoms: N_14  and  C_15
REMARK    6  A    between atoms: C_15  and  C_16
REMARK    7  A    between atoms: C_16  and  C_17
REMARK    8  A    between atoms: C_17  and  N_58
REMARK    9  A    between atoms: C_18  and  N_58
REMARK   10  A    between atoms: C_19  and  N_58
REMARK   11  A    between atoms: C_24  and  C_27
REMARK   12  A    between atoms: C_24  and  C_28
REMARK                            x       y       z     vdW  Elec       q    Type
REMARK                         _______ _______ _______ _____ _____    ______ ____
ROOT
ATOM      1  C   UNL     1       5.410  -1.895  -0.058  0.00  0.00    +0.066 C 
ATOM      2  C   UNL     1       3.968  -1.455  -0.043  0.00  0.00    +0.045 A 
ATOM      3  C   UNL     1       2.957  -2.409  -0.043  0.00  0.00    +0.003 A 
ATOM      4  C   UNL     1       1.643  -2.010  -0.026  0.00  0.00    -0.026 A 
ATOM      5  C   UNL     1       1.337  -0.631  -0.015  0.00  0.00    +0.037 A 
ATOM      6  C   UNL     1       0.002  -0.004   0.002  0.00  0.00    +0.094 A 
ATOM      7  C   UNL     1      -0.017   1.395   0.010  0.00  0.00    +0.080 A 
ATOM      8  C   UNL     1      -1.216   2.095   0.030  0.00  0.00    +0.138 A 
ATOM      9  N   UNL     1      -2.354   1.403   0.032  0.00  0.00    -0.206 NA
ATOM     10  C   UNL     1      -2.323   0.076   0.025  0.00  0.00    +0.190 A 
ATOM     11  N   UNL     1      -1.204  -0.617   0.011  0.00  0.00    -0.221 NA
ATOM     12  S   UNL     1       1.691   1.867  -0.004  0.00  0.00    -0.064 S 
ATOM     13  C   UNL     1       2.431   0.253  -0.019  0.00  0.00    +0.111 A 
ATOM     14  N   UNL     1       3.678  -0.170  -0.032  0.00  0.00    -0.244 NA
ATOM     15  C   UNL     1       0.512  -3.002  -0.016  0.00  0.00    +0.070 C 
ATOM     16  C   UNL     1       1.030  -4.378  -0.442  0.00  0.00    +0.068 C 
ATOM     17  O   UNL     1       2.212  -4.670   0.312  0.00  0.00    -0.369 OA
ATOM     18  C   UNL     1       3.333  -3.868  -0.063  0.00  0.00    +0.197 C 
ATOM     19  C   UNL     1      -0.035  -5.439  -0.158  0.00  0.00    +0.041 C 
ATOM     20  C   UNL     1       1.362  -4.363  -1.935  0.00  0.00    +0.041 C 
ENDROOT
BRANCH  10  21
ATOM     21  S   UNL     1      -3.852  -0.800   0.036  0.00  0.00    -0.089 S 
ATOM     22  C   UNL     1      -5.011   0.591   0.053  0.00  0.00    +0.093 C 
ENDBRANCH  10  21
BRANCH   8  23
ATOM     23  N   UNL     1      -1.229   3.481   0.038  0.00  0.00    -0.328 N 
ATOM     24  H   UNL     1      -0.393   3.973   0.029  0.00  0.00    +0.147 HD
BRANCH  23  25
ATOM     25  C   UNL     1      -2.504   4.201   0.059  0.00  0.00    +0.101 C 
BRANCH  25  26
ATOM     26  C   UNL     1      -2.238   5.708   0.063  0.00  0.00    +0.000 C 
BRANCH  26  27
ATOM     27  C   UNL     1      -3.570   6.461   0.086  0.00  0.00    -0.078 C 
BRANCH  27  30
ATOM     28  C   UNL     1      -2.692   8.336  -1.170  0.00  0.00    -0.097 C 
ATOM     29  C   UNL     1      -4.550   8.659   0.349  0.00  0.00    -0.097 C 
ATOM     30  N   UNL     1      -3.296   7.913   0.111  0.00  0.00    +0.376 N 
ATOM     31  H   UNL     1      -2.638   8.115   0.873  0.00  0.00    -0.083 HD
ENDBRANCH  27  30
ENDBRANCH  26  27
ENDBRANCH  25  26
ENDBRANCH  23  25
ENDBRANCH   8  23
TORSDOF 6
