REMARK  Name = ZINC20911973
REMARK  14 active torsions:
REMARK  status: ('A' for Active; 'I' for Inactive)
REMARK    1  A    between atoms: C_1  and  C_2
REMARK    2  A    between atoms: C_3  and  C_11
REMARK    3  A    between atoms: C_4  and  C_10
REMARK    4  A    between atoms: N_5  and  C_7
REMARK    5  A    between atoms: C_7  and  C_8
REMARK    6  A    between atoms: C_7  and  C_9
REMARK    7  A    between atoms: N_12  and  N_13
REMARK    8  A    between atoms: C_17  and  S_20
REMARK    9  A    between atoms: N_18  and  N_19
REMARK   10  A    between atoms: S_20  and  C_21
REMARK   11  A    between atoms: C_21  and  C_22
REMARK   12  A    between atoms: C_22  and  C_23
REMARK   13  A    between atoms: N_25  and  C_26
REMARK   14  A    between atoms: C_26  and  C_27
REMARK                            x       y       z     vdW  Elec       q    Type
REMARK                         _______ _______ _______ _____ _____    ______ ____
ROOT
ATOM      1  N   UNL     1       4.418   4.531  -0.015  0.00  0.00    -0.204 N 
ATOM      2  C   UNL     1       3.541   3.456  -0.013  0.00  0.00    +0.254 A 
ATOM      3  N   UNL     1       3.875   2.188  -0.022  0.00  0.00    -0.109 NA
ATOM      4  N   UNL     1       2.697   1.430  -0.010  0.00  0.00    -0.119 NA
ATOM      5  C   UNL     1       1.681   2.259  -0.002  0.00  0.00    +0.210 A 
ATOM      6  N   UNL     1       2.176   3.533   0.000  0.00  0.00    -0.211 N 
ATOM      7  H   UNL     1       4.028   5.559  -0.005  0.00  0.00    +0.177 HD
ENDROOT
BRANCH   6   8
ATOM      8  N   UNL     1       1.436   4.681   0.013  0.00  0.00    -0.294 N 
ATOM      9  H   UNL     1       0.337   4.628   0.023  0.00  0.00    +0.163 HD
ATOM     10  H   UNL     1       1.939   5.659   0.013  0.00  0.00    +0.163 HD
ENDBRANCH   6   8
BRANCH   1  12
ATOM     11  C   UNL     1       6.621   5.311  -0.031  0.00  0.00    +0.141 C 
ATOM     12  N   UNL     1       5.801   4.306  -0.029  0.00  0.00    -0.187 NA
BRANCH  11  15
ATOM     13  C   UNL     1       8.039   2.475  -0.059  0.00  0.00    +0.068 C 
ATOM     14  C   UNL     1       8.722   3.819  -0.059  0.00  0.00    +0.069 A 
ATOM     15  C   UNL     1       8.078   5.075  -0.045  0.00  0.00    +0.038 A 
ATOM     16  C   UNL     1       9.062   6.039  -0.054  0.00  0.00    +0.045 A 
ATOM     17  N   UNL     1      10.251   5.402  -0.064  0.00  0.00    -0.265 N 
ATOM     18  N   UNL     1      10.012   4.023  -0.070  0.00  0.00    -0.175 NA
ATOM     19  C   UNL     1       8.850   7.531  -0.051  0.00  0.00    +0.066 C 
BRANCH  17  20
ATOM     20  C   UNL     1      11.568   6.044  -0.073  0.00  0.00    +0.101 C 
ATOM     21  C   UNL     1      12.354   5.612   1.167  0.00  0.00    +0.032 C 
ATOM     22  C   UNL     1      12.331   5.627  -1.331  0.00  0.00    +0.032 C 
ENDBRANCH  17  20
ENDBRANCH  11  15
ENDBRANCH   1  12
BRANCH   5  23
ATOM     23  S   UNL     1      -0.022   1.810   0.012  0.00  0.00    -0.084 S 
BRANCH  23  24
ATOM     24  C   UNL     1       0.002  -0.004   0.002  0.00  0.00    +0.086 C 
BRANCH  24  25
ATOM     25  C   UNL     1      -1.433  -0.534   0.013  0.00  0.00    +0.107 C 
BRANCH  25  26
ATOM     26  C   UNL     1      -1.413  -2.041   0.005  0.00  0.00    +0.214 C 
ATOM     27  O   UNL     1      -0.354  -2.632  -0.009  0.00  0.00    -0.276 OA
ATOM     28  N   UNL     1      -2.571  -2.730   0.012  0.00  0.00    -0.311 N 
ATOM     29  H   UNL     1      -3.531  -2.193   0.024  0.00  0.00    +0.149 HD
BRANCH  28  30
ATOM     30  C   UNL     1      -2.551  -4.195   0.004  0.00  0.00    +0.139 C 
BRANCH  30  31
ATOM     31  C   UNL     1      -3.965  -4.717   0.015  0.00  0.00    -0.030 A 
ATOM     32  C   UNL     1      -4.599  -4.968   1.217  0.00  0.00    +0.008 A 
ATOM     33  C   UNL     1      -5.897  -5.441   1.228  0.00  0.00    +0.038 A 
ATOM     34  C   UNL     1      -6.559  -5.675   0.034  0.00  0.00    +0.123 A 
ATOM     35  C   UNL     1      -5.920  -5.428  -1.169  0.00  0.00    +0.038 A 
ATOM     36  C   UNL     1      -4.624  -4.949  -1.178  0.00  0.00    +0.008 A 
ATOM     37  F   UNL     1      -7.826  -6.142   0.044  0.00  0.00    -0.205 F 
ENDBRANCH  30  31
ENDBRANCH  28  30
ENDBRANCH  25  26
ENDBRANCH  24  25
ENDBRANCH  23  24
ENDBRANCH   5  23
TORSDOF 10
