REMARK  Name = ZINC02885555
REMARK  10 active torsions:
REMARK  status: ('A' for Active; 'I' for Inactive)
REMARK    1  A    between atoms: N_8  and  N_9
REMARK    2  A    between atoms: N_9  and  C_10
REMARK    3  A    between atoms: C_10  and  C_12
REMARK    4  A    between atoms: C_10  and  O_29
REMARK    5  A    between atoms: C_12  and  O_13
REMARK    6  A    between atoms: O_13  and  C_14
REMARK    7  A    between atoms: C_14  and  C_15
REMARK    8  A    between atoms: N_17  and  N_18
REMARK    9  A    between atoms: C_27  and  O_28
REMARK   10  A    between atoms: C_30  and  O_32
REMARK                            x       y       z     vdW  Elec       q    Type
REMARK                         _______ _______ _______ _____ _____    ______ ____
ROOT
ATOM      1  C   UNL     1       1.126  -6.675   0.675  0.00  0.00    +0.213 C 
ENDROOT
BRANCH   1   2
ATOM      2  C   UNL     1       0.429  -5.512  -0.033  0.00  0.00    +0.241 C 
BRANCH   2   3
ATOM      3  N   UNL     1       1.312  -4.342  -0.035  0.00  0.00    -0.238 N 
ATOM      4  H   UNL     1       2.274  -4.461  -0.045  0.00  0.00    +0.171 HD
BRANCH   3  12
ATOM      5  C   UNL     1      -0.017   1.376   0.010  0.00  0.00    +0.001 A 
ATOM      6  C   UNL     1       1.172   2.091   0.002  0.00  0.00    +0.002 A 
ATOM      7  C   UNL     1       2.386   1.441  -0.013  0.00  0.00    +0.028 A 
ATOM      8  C   UNL     1       2.430   0.042  -0.021  0.00  0.00    +0.077 A 
ATOM      9  C   UNL     1       1.216  -0.676  -0.013  0.00  0.00    +0.033 A 
ATOM     10  C   UNL     1       0.002  -0.004   0.002  0.00  0.00    +0.012 A 
ATOM     11  C   UNL     1       1.601  -2.105  -0.025  0.00  0.00    +0.152 C 
ATOM     12  N   UNL     1       0.809  -3.155  -0.023  0.00  0.00    -0.179 NA
ATOM     13  C   UNL     1       3.074  -2.083  -0.039  0.00  0.00    +0.241 C 
ATOM     14  N   UNL     1       3.467  -0.835  -0.036  0.00  0.00    -0.211 NA
BRANCH  13  15
ATOM     15  O   UNL     1       3.883  -3.170  -0.053  0.00  0.00    -0.491 OA
ATOM     16  H   UNL     1       4.826  -2.957  -0.061  0.00  0.00    +0.294 HD
ENDBRANCH  13  15
ENDBRANCH   3  12
ENDBRANCH   2   3
BRANCH   2  17
ATOM     17  O   UNL     1       0.129  -5.884  -1.379  0.00  0.00    -0.371 OA
ATOM     18  H   UNL     1       0.907  -6.114  -1.906  0.00  0.00    +0.212 HD
ENDBRANCH   2  17
ENDBRANCH   1   2
BRANCH   1  19
ATOM     19  O   UNL     1       2.338  -6.994  -0.012  0.00  0.00    -0.366 OA
BRANCH  19  20
ATOM     20  C   UNL     1       3.070  -8.074   0.571  0.00  0.00    +0.257 C 
BRANCH  20  21
ATOM     21  C   UNL     1       4.322  -8.323  -0.230  0.00  0.00    +0.258 C 
ATOM     22  O   UNL     1       4.563  -7.642  -1.204  0.00  0.00    -0.272 OA
ATOM     23  N   UNL     1       5.173  -9.301   0.137  0.00  0.00    -0.204 N 
ATOM     24  H   UNL     1       4.980  -9.845   0.916  0.00  0.00    +0.177 HD
BRANCH  23  25
ATOM     25  N   UNL     1       6.245  -9.514  -0.549  0.00  0.00    -0.174 NA
ATOM     26  C   UNL     1       7.074 -10.467  -0.193  0.00  0.00    +0.152 C 
ATOM     27  C   UNL     1       8.346 -10.857  -0.842  0.00  0.00    +0.033 A 
ATOM     28  C   UNL     1       9.043 -10.397  -1.950  0.00  0.00    +0.012 A 
ATOM     29  C   UNL     1      10.238 -10.993  -2.304  0.00  0.00    +0.001 A 
ATOM     30  C   UNL     1      10.740 -12.046  -1.556  0.00  0.00    +0.002 A 
ATOM     31  C   UNL     1      10.060 -12.515  -0.453  0.00  0.00    +0.028 A 
ATOM     32  C   UNL     1       8.849 -11.927  -0.075  0.00  0.00    +0.077 A 
ATOM     33  N   UNL     1       7.991 -12.188   0.946  0.00  0.00    -0.211 NA
ATOM     34  C   UNL     1       6.954 -11.392   0.952  0.00  0.00    +0.241 C 
BRANCH  34  35
ATOM     35  O   UNL     1       5.942 -11.414   1.852  0.00  0.00    -0.491 OA
ATOM     36  H   UNL     1       6.037 -12.092   2.534  0.00  0.00    +0.294 HD
ENDBRANCH  34  35
ENDBRANCH  23  25
ENDBRANCH  20  21
ENDBRANCH  19  20
ENDBRANCH   1  19
TORSDOF 10
