REMARK  Name = ZINC39225742
REMARK  13 active torsions:
REMARK  status: ('A' for Active; 'I' for Inactive)
REMARK    1  A    between atoms: C_1  and  C_2
REMARK    2  A    between atoms: C_2  and  C_3
REMARK    3  A    between atoms: C_2  and  C_4
REMARK    4  A    between atoms: C_4  and  N_5
REMARK    5  A    between atoms: C_7  and  N_31
REMARK    6  A    between atoms: N_11  and  C_18
REMARK    7  A    between atoms: C_18  and  C_19
REMARK    8  A    between atoms: N_21  and  C_22
REMARK    9  A    between atoms: C_22  and  C_23
REMARK   10  A    between atoms: C_23  and  C_24
REMARK   11  A    between atoms: C_27  and  O_30
REMARK   12  A    between atoms: C_32  and  C_34
REMARK   13  A    between atoms: N_38  and  C_39
REMARK                            x       y       z     vdW  Elec       q    Type
REMARK                         _______ _______ _______ _____ _____    ______ ____
ROOT
ATOM      1  N   UNL     1      -2.085  -2.428  -0.159  0.00  0.00    -0.326 N 
ATOM      2  C   UNL     1      -1.839  -2.865  -1.533  0.00  0.00    +0.137 C 
ATOM      3  C   UNL     1      -2.800  -3.998  -1.899  0.00  0.00    +0.177 C 
ATOM      4  C   UNL     1      -4.189  -3.674  -1.416  0.00  0.00    +0.242 C 
ATOM      5  O   UNL     1      -5.035  -3.319  -2.210  0.00  0.00    -0.273 OA
ATOM      6  N   UNL     1      -4.501  -3.777  -0.104  0.00  0.00    -0.259 N 
ATOM      7  C   UNL     1      -3.517  -4.099   0.838  0.00  0.00    +0.058 A 
ATOM      8  C   UNL     1      -2.304  -3.399   0.825  0.00  0.00    +0.051 A 
ATOM      9  C   UNL     1      -1.332  -3.674   1.773  0.00  0.00    +0.025 A 
ATOM     10  C   UNL     1      -1.552  -4.659   2.719  0.00  0.00    +0.002 A 
ATOM     11  C   UNL     1      -2.737  -5.371   2.722  0.00  0.00    +0.002 A 
ATOM     12  C   UNL     1      -3.730  -5.092   1.779  0.00  0.00    +0.025 A 
ENDROOT
BRANCH   3  13
ATOM     13  N   UNL     1      -2.822  -4.166  -3.354  0.00  0.00    -0.297 N 
ATOM     14  C   UNL     1      -3.161  -5.355  -3.890  0.00  0.00    +0.261 C 
ATOM     15  O   UNL     1      -3.354  -6.315  -3.167  0.00  0.00    -0.269 OA
ATOM     16  H   UNL     1      -2.592  -3.421  -3.931  0.00  0.00    +0.150 HD
BRANCH  14  17
ATOM     17  C   UNL     1      -3.298  -5.492  -5.344  0.00  0.00    +0.104 A 
ATOM     18  C   UNL     1      -3.021  -4.521  -6.283  0.00  0.00    +0.032 A 
ATOM     19  C   UNL     1      -3.289  -5.077  -7.538  0.00  0.00    +0.020 A 
ATOM     20  C   UNL     1      -3.715  -6.348  -7.348  0.00  0.00    +0.086 A 
ATOM     21  N   UNL     1      -3.719  -6.615  -6.019  0.00  0.00    -0.346 N 
ATOM     22  C   UNL     1      -4.110  -7.886  -5.404  0.00  0.00    +0.149 C 
ENDBRANCH  14  17
ENDBRANCH   3  13
BRANCH   1  23
ATOM     23  C   UNL     1      -2.097  -1.003   0.182  0.00  0.00    +0.108 C 
BRANCH  23  25
ATOM     24  C   UNL     1      -3.561   0.993   0.517  0.00  0.00    +0.009 C 
ATOM     25  C   UNL     1      -3.514  -0.451   0.014  0.00  0.00    +0.000 C 
ATOM     26  C   UNL     1      -3.905  -0.488  -1.465  0.00  0.00    +0.009 C 
ENDBRANCH  23  25
ENDBRANCH   1  23
BRANCH   6  27
ATOM     27  C   UNL     1      -5.880  -3.548   0.334  0.00  0.00    +0.209 C 
BRANCH  27  28
ATOM     28  C   UNL     1      -6.638  -4.851   0.309  0.00  0.00    +0.231 C 
ATOM     29  O   UNL     1      -6.081  -5.869  -0.041  0.00  0.00    -0.274 OA
ATOM     30  N   UNL     1      -7.935  -4.883   0.675  0.00  0.00    -0.314 N 
ATOM     31  H   UNL     1      -8.380  -4.068   0.955  0.00  0.00    +0.149 HD
BRANCH  30  32
ATOM     32  C   UNL     1      -8.671  -6.149   0.650  0.00  0.00    +0.109 C 
BRANCH  32  33
ATOM     33  C   UNL     1     -10.111  -5.910   1.109  0.00  0.00    +0.054 C 
BRANCH  33  34
ATOM     34  C   UNL     1     -10.869  -7.213   1.083  0.00  0.00    -0.046 A 
ATOM     35  C   UNL     1     -11.537  -7.600  -0.064  0.00  0.00    +0.007 A 
ATOM     36  C   UNL     1     -12.233  -8.793  -0.089  0.00  0.00    +0.045 A 
ATOM     37  C   UNL     1     -12.260  -9.603   1.037  0.00  0.00    +0.117 A 
ATOM     38  C   UNL     1     -11.589  -9.213   2.186  0.00  0.00    +0.045 A 
ATOM     39  C   UNL     1     -10.890  -8.021   2.205  0.00  0.00    +0.007 A 
BRANCH  37  40
ATOM     40  O   UNL     1     -12.944 -10.777   1.014  0.00  0.00    -0.507 OA
ATOM     41  H   UNL     1     -12.417 -11.535   0.725  0.00  0.00    +0.292 HD
ENDBRANCH  37  40
ENDBRANCH  33  34
ENDBRANCH  32  33
ENDBRANCH  30  32
ENDBRANCH  27  28
ENDBRANCH   6  27
TORSDOF 10
