REMARK  Name = ZINC09983294
REMARK  9 active torsions:
REMARK  status: ('A' for Active; 'I' for Inactive)
REMARK    1  A    between atoms: C_1  and  C_2
REMARK    2  A    between atoms: C_2  and  C_3
REMARK    3  A    between atoms: N_11  and  C_15
REMARK    4  A    between atoms: C_15  and  C_16
REMARK    5  A    between atoms: N_18  and  C_19
REMARK    6  A    between atoms: C_20  and  C_32
REMARK    7  A    between atoms: N_22  and  C_25
REMARK    8  A    between atoms: C_23  and  C_24
REMARK    9  A    between atoms: C_28  and  C_31
REMARK                            x       y       z     vdW  Elec       q    Type
REMARK                         _______ _______ _______ _____ _____    ______ ____
ROOT
ATOM      1  C   UNL     1       4.155   1.196  -0.788  0.00  0.00    +0.235 C 
ATOM      2  O   UNL     1       3.725   2.319  -0.956  0.00  0.00    -0.274 OA
ATOM      3  N   UNL     1       3.338   0.223  -0.339  0.00  0.00    -0.281 N 
ATOM      4  H   UNL     1       3.677  -0.679  -0.223  0.00  0.00    +0.155 HD
ENDROOT
BRANCH   3   5
ATOM      5  C   UNL     1       1.995   0.514  -0.037  0.00  0.00    +0.078 A 
ATOM      6  C   UNL     1       1.045   1.042  -0.924  0.00  0.00    +0.082 A 
ATOM      7  N   UNL     1      -0.088   1.175  -0.284  0.00  0.00    -0.170 NA
ATOM      8  N   UNL     1       0.095   0.737   1.034  0.00  0.00    -0.235 N 
ATOM      9  C   UNL     1       1.388   0.334   1.163  0.00  0.00    +0.063 A 
ATOM     10  C   UNL     1       2.030  -0.213   2.413  0.00  0.00    +0.068 C 
ATOM     11  C   UNL     1       1.288   1.397  -2.369  0.00  0.00    +0.069 C 
BRANCH   8  12
ATOM     12  C   UNL     1      -0.881   0.717   2.040  0.00  0.00    +0.066 A 
ATOM     13  C   UNL     1      -0.890  -0.305   2.979  0.00  0.00    +0.028 A 
ATOM     14  C   UNL     1      -1.849  -0.320   3.973  0.00  0.00    +0.005 A 
ATOM     15  C   UNL     1      -2.806   0.677   4.026  0.00  0.00    -0.050 A 
ATOM     16  C   UNL     1      -2.803   1.693   3.089  0.00  0.00    +0.005 A 
ATOM     17  C   UNL     1      -1.843   1.716   2.096  0.00  0.00    +0.028 A 
ATOM     18  C   UNL     1      -3.855   0.655   5.108  0.00  0.00    +0.044 C 
ENDBRANCH   8  12
ENDBRANCH   3   5
BRANCH   1  19
ATOM     19  C   UNL     1       5.601   0.891  -1.083  0.00  0.00    +0.214 C 
BRANCH  19  28
ATOM     20  C   UNL     1       8.726   5.927   0.171  0.00  0.00    -0.011 C 
ATOM     21  C   UNL     1       7.201   5.833   0.086  0.00  0.00    +0.006 C 
ATOM     22  C   UNL     1       6.794   5.417  -1.329  0.00  0.00    +0.035 C 
ATOM     23  C   UNL     1       7.423   4.069  -1.665  0.00  0.00    +0.113 C 
ATOM     24  C   UNL     1       8.942   4.142  -1.565  0.00  0.00    +0.035 C 
ATOM     25  C   UNL     1       9.342   4.563  -0.148  0.00  0.00    +0.006 C 
ATOM     26  C   UNL     1       6.886   2.994  -0.748  0.00  0.00    +0.247 C 
ATOM     27  O   UNL     1       6.987   2.942   0.460  0.00  0.00    -0.273 OA
ATOM     28  N   UNL     1       6.270   2.106  -1.555  0.00  0.00    -0.215 N 
ATOM     29  C   UNL     1       6.352   2.469  -2.841  0.00  0.00    +0.310 C 
ATOM     30  O   UNL     1       5.877   1.826  -3.756  0.00  0.00    -0.252 OA
ATOM     31  N   UNL     1       7.015   3.630  -3.006  0.00  0.00    -0.285 N 
ATOM     32  H   UNL     1       7.193   4.083  -3.844  0.00  0.00    +0.151 HD
BRANCH  20  34
ATOM     33  C   UNL     1      10.647   6.568   1.633  0.00  0.00    +0.004 C 
ATOM     34  C   UNL     1       9.133   6.353   1.582  0.00  0.00    -0.000 C 
ENDBRANCH  20  34
ENDBRANCH  19  28
ENDBRANCH   1  19
TORSDOF 5
