REMARK  Name = ZINC35486387
REMARK  11 active torsions:
REMARK  status: ('A' for Active; 'I' for Inactive)
REMARK    1  A    between atoms: C_1  and  C_2
REMARK    2  A    between atoms: C_2  and  N_3
REMARK    3  A    between atoms: N_3  and  C_4
REMARK    4  A    between atoms: N_3  and  C_6
REMARK    5  A    between atoms: C_4  and  C_5
REMARK    6  A    between atoms: C_6  and  C_7
REMARK    7  A    between atoms: C_7  and  N_8
REMARK    8  A    between atoms: C_9  and  C_25
REMARK    9  A    between atoms: C_27  and  O_33
REMARK   10  A    between atoms: C_28  and  O_32
REMARK   11  A    between atoms: O_33  and  C_34
REMARK                            x       y       z     vdW  Elec       q    Type
REMARK                         _______ _______ _______ _____ _____    ______ ____
ROOT
ATOM      1  N   UNL     1      -3.366  -3.458  -0.229  0.00  0.00    -0.285 N 
ATOM      2  C   UNL     1      -3.304  -4.352  -1.397  0.00  0.00    +0.145 C 
ATOM      3  C   UNL     1      -3.527  -5.731  -0.867  0.00  0.00    +0.072 A 
ATOM      4  C   UNL     1      -3.585  -7.029  -1.546  0.00  0.00    +0.199 A 
ATOM      5  O   UNL     1      -3.273  -7.186  -2.713  0.00  0.00    -0.287 OA
ATOM      6  C   UNL     1      -4.060  -8.134  -0.676  0.00  0.00    +0.067 A 
ATOM      7  C   UNL     1      -4.360  -9.383  -1.221  0.00  0.00    +0.053 A 
ATOM      8  C   UNL     1      -4.805 -10.396  -0.399  0.00  0.00    +0.124 A 
ATOM      9  C   UNL     1      -4.953 -10.171   0.965  0.00  0.00    +0.042 A 
ATOM     10  C   UNL     1      -4.658  -8.943   1.512  0.00  0.00    +0.050 A 
ATOM     11  C   UNL     1      -4.204  -7.903   0.702  0.00  0.00    +0.140 A 
ATOM     12  O   UNL     1      -3.912  -6.710   1.268  0.00  0.00    -0.450 OA
ATOM     13  C   UNL     1      -3.696  -5.635   0.485  0.00  0.00    +0.199 A 
ATOM     14  C   UNL     1      -3.590  -4.215   0.865  0.00  0.00    +0.283 C 
ATOM     15  O   UNL     1      -3.692  -3.789   1.998  0.00  0.00    -0.267 OA
ATOM     16  F   UNL     1      -5.097 -11.608  -0.919  0.00  0.00    -0.205 F 
ENDROOT
BRANCH   2  17
ATOM     17  C   UNL     1      -1.950  -4.258  -2.052  0.00  0.00    -0.018 A 
ATOM     18  C   UNL     1      -1.850  -4.254  -3.431  0.00  0.00    +0.055 A 
ATOM     19  C   UNL     1      -0.606  -4.168  -4.035  0.00  0.00    +0.163 A 
ATOM     20  C   UNL     1       0.541  -4.084  -3.251  0.00  0.00    +0.173 A 
ATOM     21  C   UNL     1       0.434  -4.088  -1.869  0.00  0.00    +0.063 A 
ATOM     22  C   UNL     1      -0.811  -4.170  -1.273  0.00  0.00    +0.025 A 
ATOM     23 BR   UNL     1       1.990  -3.975  -0.800  0.00  0.00    -0.046 Br
BRANCH  20  24
ATOM     24  O   UNL     1       1.764  -4.000  -3.840  0.00  0.00    -0.503 OA
ATOM     25  H   UNL     1       2.056  -3.094  -4.013  0.00  0.00    +0.292 HD
ENDBRANCH  20  24
BRANCH  19  26
ATOM     26  O   UNL     1      -0.506  -4.165  -5.391  0.00  0.00    -0.491 OA
ATOM     27  C   UNL     1      -1.725  -4.254  -6.132  0.00  0.00    +0.277 C 
ENDBRANCH  19  26
ENDBRANCH   2  17
BRANCH   1  28
ATOM     28  C   UNL     1      -3.206  -2.002  -0.249  0.00  0.00    +0.090 C 
BRANCH  28  29
ATOM     29  C   UNL     1      -1.729  -1.649  -0.071  0.00  0.00    -0.060 C 
BRANCH  29  30
ATOM     30  N   UNL     1      -1.584  -0.191   0.037  0.00  0.00    +0.380 N 
ATOM     31  H   UNL     1      -2.024   0.251  -0.756  0.00  0.00    -0.082 HD
BRANCH  30  33
ATOM     32  C   UNL     1      -2.183   1.803   1.327  0.00  0.00    -0.017 C 
ATOM     33  C   UNL     1      -2.224   0.274   1.275  0.00  0.00    -0.082 C 
ENDBRANCH  30  33
BRANCH  30  34
ATOM     34  C   UNL     1      -0.157   0.159   0.062  0.00  0.00    -0.082 C 
ATOM     35  C   UNL     1       0.477  -0.190  -1.285  0.00  0.00    -0.017 C 
ENDBRANCH  30  34
ENDBRANCH  29  30
ENDBRANCH  28  29
ENDBRANCH   1  28
TORSDOF 8
