REMARK  Name = ZINC05180268
REMARK  5 active torsions:
REMARK  status: ('A' for Active; 'I' for Inactive)
REMARK    1  A    between atoms: C_1  and  C_2
REMARK    2  A    between atoms: C_2  and  C_3
REMARK    3  A    between atoms: C_6  and  C_9
REMARK    4  A    between atoms: C_13  and  S_15
REMARK    5  A    between atoms: S_15  and  C_16
REMARK                            x       y       z     vdW  Elec       q    Type
REMARK                         _______ _______ _______ _____ _____    ______ ____
ROOT
ATOM      1  C   UNL     1       2.698  -1.863  -4.736  0.00  0.00    +0.182 A 
ATOM      2  N   UNL     1       2.126  -2.110  -5.893  0.00  0.00    -0.152 NA
ATOM      3  H   UNL     1       3.033  -2.797  -7.695  0.00  0.00    +0.191 HD
ATOM      4  N   UNL     1       3.139  -2.540  -6.766  0.00  0.00    -0.253 N 
ATOM      5  C   UNL     1       4.289  -2.523  -6.056  0.00  0.00    +0.185 A 
ATOM      6  N   UNL     1       4.012  -2.109  -4.840  0.00  0.00    -0.201 NA
ENDROOT
BRANCH   1  10
ATOM      7  C   UNL     1       0.707  -0.490  -1.238  0.00  0.00    -0.048 A 
ATOM      8  C   UNL     1      -0.013  -0.718  -2.396  0.00  0.00    +0.004 A 
ATOM      9  C   UNL     1       0.627  -1.163  -3.534  0.00  0.00    +0.012 A 
ATOM     10  C   UNL     1       2.003  -1.383  -3.515  0.00  0.00    +0.021 A 
ATOM     11  C   UNL     1       2.724  -1.152  -2.346  0.00  0.00    +0.012 A 
ATOM     12  C   UNL     1       2.074  -0.701  -1.215  0.00  0.00    +0.004 A 
BRANCH   7  14
ATOM     13  C   UNL     1      -0.019   1.526   0.010  0.00  0.00    +0.009 C 
ATOM     14  C   UNL     1       0.002  -0.004   0.002  0.00  0.00    +0.032 C 
ENDBRANCH   7  14
ENDBRANCH   1  10
BRANCH   5  15
ATOM     15  S   UNL     1       5.883  -2.972  -6.659  0.00  0.00    -0.072 S 
BRANCH  15  16
ATOM     16  C   UNL     1       6.976  -2.732  -5.231  0.00  0.00    +0.166 C 
ATOM     17  C   UNL     1       8.424  -3.161  -5.577  0.00  0.00    +0.067 C 
ATOM     18  C   UNL     1       9.232  -2.015  -4.910  0.00  0.00    +0.234 C 
ATOM     19  O   UNL     1       8.374  -0.870  -5.100  0.00  0.00    -0.464 OA
ATOM     20  C   UNL     1       7.097  -1.258  -4.895  0.00  0.00    +0.321 C 
ATOM     21  O   UNL     1       6.198  -0.549  -4.510  0.00  0.00    -0.250 OA
ENDBRANCH  15  16
ENDBRANCH   5  15
TORSDOF 4
