REMARK  Name = ZINC21366982
REMARK  3 active torsions:
REMARK  status: ('A' for Active; 'I' for Inactive)
REMARK    1  A    between atoms: C_1  and  C_2
REMARK    2  A    between atoms: N_12  and  C_13
REMARK    3  A    between atoms: C_13  and  C_15
REMARK                            x       y       z     vdW  Elec       q    Type
REMARK                         _______ _______ _______ _____ _____    ______ ____
ROOT
ATOM      1  C   UNL     1      -0.207  -0.021   0.679  0.00  0.00    +0.063 C 
ATOM      2  C   UNL     1      -0.812   1.036   1.567  0.00  0.00    +0.015 A 
ATOM      3  C   UNL     1      -2.185   1.246   1.527  0.00  0.00    +0.046 A 
ATOM      4  C   UNL     1      -2.755   2.211   2.341  0.00  0.00    +0.068 A 
ATOM      5  C   UNL     1      -1.897   2.959   3.182  0.00  0.00    +0.021 A 
ATOM      6  C   UNL     1      -2.395   3.957   4.031  0.00  0.00    +0.012 A 
ATOM      7  C   UNL     1      -1.537   4.655   4.826  0.00  0.00    +0.001 A 
ATOM      8  C   UNL     1      -0.170   4.390   4.807  0.00  0.00    +0.002 A 
ATOM      9  C   UNL     1       0.347   3.428   3.994  0.00  0.00    +0.026 A 
ATOM     10  C   UNL     1      -0.508   2.686   3.160  0.00  0.00    +0.048 A 
ATOM     11  N   UNL     1      -0.027   1.735   2.352  0.00  0.00    -0.358 N 
ATOM     12  N   UNL     1      -4.125   2.442   2.328  0.00  0.00    -0.175 NA
ATOM     13  H   UNL     1       1.057   1.546   2.356  0.00  0.00    +0.166 HD
ENDROOT
BRANCH  12  14
ATOM     14  C   UNL     1      -4.819   2.314   1.180  0.00  0.00    +0.289 C 
ATOM     15  O   UNL     1      -4.262   1.921   0.174  0.00  0.00    -0.266 OA
BRANCH  14  16
ATOM     16  C   UNL     1      -6.261   2.652   1.144  0.00  0.00    +0.165 A 
ATOM     17  C   UNL     1      -6.981   2.516  -0.058  0.00  0.00    +0.160 A 
ATOM     18  N   UNL     1      -8.260   2.811  -0.107  0.00  0.00    -0.231 NA
ATOM     19  C   UNL     1      -8.885   3.244   0.994  0.00  0.00    +0.091 A 
ATOM     20  C   UNL     1     -10.252   3.567   0.970  0.00  0.00    +0.030 A 
ATOM     21  C   UNL     1     -10.863   4.005   2.105  0.00  0.00    +0.002 A 
ATOM     22  C   UNL     1     -10.152   4.140   3.297  0.00  0.00    +0.002 A 
ATOM     23  C   UNL     1      -8.828   3.838   3.360  0.00  0.00    +0.030 A 
ATOM     24  C   UNL     1      -8.160   3.382   2.208  0.00  0.00    +0.090 A 
ATOM     25  N   UNL     1      -6.863   3.073   2.242  0.00  0.00    -0.237 NA
ATOM     26 CL   UNL     1      -6.172   1.954  -1.488  0.00  0.00    -0.060 Cl
ENDBRANCH  14  16
ENDBRANCH  12  14
TORSDOF 2
