REMARK  Name = ZINC06908870
REMARK  6 active torsions:
REMARK  status: ('A' for Active; 'I' for Inactive)
REMARK    1  A    between atoms: C_1  and  C_2
REMARK    2  A    between atoms: C_10  and  S_12
REMARK    3  A    between atoms: S_12  and  C_13
REMARK    4  A    between atoms: C_13  and  C_14
REMARK    5  A    between atoms: N_16  and  C_17
REMARK    6  A    between atoms: C_17  and  C_23
REMARK                            x       y       z     vdW  Elec       q    Type
REMARK                         _______ _______ _______ _____ _____    ______ ____
ROOT
ATOM      1  C   UNL     1       0.105  -7.035   1.047  0.00  0.00    +0.173 C 
ENDROOT
BRANCH   1   2
ATOM      2  C   UNL     1       0.128  -8.426   1.625  0.00  0.00    +0.224 C 
ATOM      3  O   UNL     1       0.138  -8.583   2.827  0.00  0.00    -0.275 OA
ATOM      4  N   UNL     1       0.139  -9.496   0.805  0.00  0.00    -0.297 N 
ATOM      5  H   UNL     1       0.131  -9.371  -0.156  0.00  0.00    +0.150 HD
BRANCH   4   6
ATOM      6  C   UNL     1       0.161 -10.849   1.367  0.00  0.00    +0.121 C 
ATOM      7  C   UNL     1      -1.080 -11.061   2.236  0.00  0.00    +0.041 C 
ATOM      8  C   UNL     1      -1.057 -12.474   2.823  0.00  0.00    +0.003 C 
ATOM      9  C   UNL     1      -1.049 -13.498   1.687  0.00  0.00    +0.000 C 
ATOM     10  C   UNL     1       0.193 -13.286   0.818  0.00  0.00    +0.003 C 
ATOM     11  C   UNL     1       0.169 -11.873   0.231  0.00  0.00    +0.041 C 
BRANCH   6  12
ATOM     12  C   UNL     1       1.370 -11.019   2.189  0.00  0.00    +0.088 C 
ATOM     13  N   UNL     1       2.304 -11.150   2.824  0.00  0.00    -0.194 NA
ENDBRANCH   6  12
ENDBRANCH   4   6
ENDBRANCH   1   2
BRANCH   1  14
ATOM     14  S   UNL     1       0.096  -5.820   2.394  0.00  0.00    -0.079 S 
BRANCH  14  24
ATOM     15  C   UNL     1      -0.018   1.503   0.010  0.00  0.00    +0.044 C 
ATOM     16  C   UNL     1       0.002  -0.004   0.002  0.00  0.00    -0.048 A 
ATOM     17  C   UNL     1       0.006  -0.686  -1.206  0.00  0.00    +0.005 A 
ATOM     18  C   UNL     1       0.024  -2.063  -1.230  0.00  0.00    +0.030 A 
ATOM     19  C   UNL     1       0.040  -2.778  -0.030  0.00  0.00    +0.090 A 
ATOM     20  C   UNL     1       0.037  -2.082   1.190  0.00  0.00    +0.067 A 
ATOM     21  C   UNL     1       0.023  -0.696   1.196  0.00  0.00    +0.031 A 
ATOM     22  N   UNL     1       0.055  -3.047   2.184  0.00  0.00    -0.333 N 
ATOM     23  H   UNL     1       0.058  -2.887   3.141  0.00  0.00    +0.168 HD
ATOM     24  C   UNL     1       0.069  -4.265   1.566  0.00  0.00    +0.168 A 
ATOM     25  N   UNL     1       0.060  -4.104   0.266  0.00  0.00    -0.222 NA
ENDBRANCH  14  24
ENDBRANCH   1  14
TORSDOF 5
