REMARK  Name = ZINC04631453
REMARK  11 active torsions:
REMARK  status: ('A' for Active; 'I' for Inactive)
REMARK    1  A    between atoms: C_1  and  C_2
REMARK    2  A    between atoms: C_2  and  C_3
REMARK    3  A    between atoms: C_2  and  O_4
REMARK    4  A    between atoms: O_4  and  C_5
REMARK    5  A    between atoms: C_8  and  C_11
REMARK    6  A    between atoms: C_14  and  C_25
REMARK    7  A    between atoms: C_20  and  N_24
REMARK    8  A    between atoms: C_21  and  C_22
REMARK    9  A    between atoms: C_25  and  C_26
REMARK   10  A    between atoms: C_25  and  C_27
REMARK   11  A    between atoms: C_25  and  C_28
REMARK                            x       y       z     vdW  Elec       q    Type
REMARK                         _______ _______ _______ _____ _____    ______ ____
ROOT
ATOM      1  C   UNL     1       6.207  -1.047  -1.323  0.00  0.00    +0.101 C 
ATOM      2  C   UNL     1       6.877  -2.381  -1.533  0.00  0.00    +0.050 A 
ATOM      3  C   UNL     1       6.800  -3.534  -0.765  0.00  0.00    +0.076 A 
ATOM      4  N   UNL     1       7.548  -4.451  -1.330  0.00  0.00    -0.175 NA
ATOM      5  N   UNL     1       8.128  -3.901  -2.484  0.00  0.00    -0.246 N 
ATOM      6  H   UNL     1       8.727  -4.358  -3.095  0.00  0.00    +0.192 HD
ATOM      7  C   UNL     1       7.705  -2.631  -2.591  0.00  0.00    +0.222 A 
ATOM      8  O   UNL     1       7.993  -1.699  -3.533  0.00  0.00    -0.423 OA
ATOM      9  C   UNL     1       7.662  -0.419  -3.266  0.00  0.00    +0.200 C 
ATOM     10  C   UNL     1       6.842  -0.048  -2.257  0.00  0.00    +0.098 C 
ENDROOT
BRANCH   1  14
ATOM     11  C   UNL     1       2.034  -1.377  -2.184  0.00  0.00    +0.121 A 
ATOM     12  C   UNL     1       2.456  -0.779  -1.005  0.00  0.00    +0.046 A 
ATOM     13  C   UNL     1       3.805  -0.673  -0.729  0.00  0.00    +0.008 A 
ATOM     14  C   UNL     1       4.736  -1.164  -1.626  0.00  0.00    -0.034 A 
ATOM     15  C   UNL     1       4.319  -1.760  -2.802  0.00  0.00    +0.008 A 
ATOM     16  C   UNL     1       2.970  -1.873  -3.080  0.00  0.00    +0.046 A 
BRANCH  11  17
ATOM     17  O   UNL     1       0.708  -1.482  -2.457  0.00  0.00    -0.489 OA
BRANCH  17  19
ATOM     18  C   UNL     1      -0.353   0.548  -1.687  0.00  0.00    +0.051 C 
ATOM     19  C   UNL     1      -0.199  -0.960  -1.484  0.00  0.00    +0.167 C 
ATOM     20  C   UNL     1      -1.562  -1.638  -1.640  0.00  0.00    +0.051 C 
ENDBRANCH  17  19
ENDBRANCH  11  17
ENDBRANCH   1  14
BRANCH   3  21
ATOM     21  C   UNL     1       5.996  -3.704   0.499  0.00  0.00    +0.007 C 
ATOM     22  C   UNL     1       4.504  -3.707   0.158  0.00  0.00    +0.017 C 
ATOM     23  C   UNL     1       6.369  -5.028   1.167  0.00  0.00    +0.017 C 
ATOM     24  C   UNL     1       6.298  -2.547   1.454  0.00  0.00    +0.017 C 
ENDBRANCH   3  21
BRANCH   9  25
ATOM     25  N   UNL     1       8.188   0.565  -4.066  0.00  0.00    -0.328 N 
ATOM     26  H   UNL     1       8.779   0.330  -4.799  0.00  0.00    +0.145 HD
ATOM     27  H   UNL     1       7.969   1.495  -3.899  0.00  0.00    +0.145 HD
ENDBRANCH   9  25
BRANCH  10  28
ATOM     28  C   UNL     1       6.567   1.345  -2.068  0.00  0.00    +0.101 C 
ATOM     29  N   UNL     1       6.348   2.449  -1.917  0.00  0.00    -0.191 NA
ENDBRANCH  10  28
TORSDOF 6
