REMARK  Name = ZINC45844847
REMARK  3 active torsions:
REMARK  status: ('A' for Active; 'I' for Inactive)
REMARK    1  A    between atoms: C_1  and  C_2
REMARK    2  A    between atoms: N_14  and  C_15
REMARK    3  A    between atoms: C_15  and  C_16
REMARK                            x       y       z     vdW  Elec       q    Type
REMARK                         _______ _______ _______ _____ _____    ______ ____
ROOT
ATOM      1  C   UNL     1       2.841  -1.346   0.265  0.00  0.00    +0.033 C 
ATOM      2  C   UNL     1       2.189  -0.354   1.230  0.00  0.00    +0.105 C 
ATOM      3  C   UNL     1       2.533   1.075   0.814  0.00  0.00    -0.017 A 
ATOM      4  C   UNL     1       3.795   1.641   0.996  0.00  0.00    +0.013 A 
ATOM      5  C   UNL     1       4.029   2.912   0.599  0.00  0.00    +0.046 A 
ATOM      6  S   UNL     1       2.442   3.388  -0.069  0.00  0.00    -0.101 S 
ATOM      7  C   UNL     1       1.588   1.863   0.234  0.00  0.00    -0.004 A 
ATOM      8  C   UNL     1       0.166   1.520  -0.070  0.00  0.00    +0.062 C 
ATOM      9  C   UNL     1       0.003  -0.006  -0.002  0.00  0.00    +0.115 C 
ATOM     10  N   UNL     1       0.728  -0.498   1.180  0.00  0.00    -0.278 N 
ATOM     11  C   UNL     1       0.062  -1.070   2.203  0.00  0.00    +0.303 C 
ATOM     12  O   UNL     1      -1.153  -1.099   2.196  0.00  0.00    -0.253 OA
ATOM     13  N   UNL     1       0.744  -1.611   3.232  0.00  0.00    -0.295 N 
ATOM     14  H   UNL     1       1.709  -1.525   3.273  0.00  0.00    +0.151 HD
ENDROOT
BRANCH  13  15
ATOM     15  C   UNL     1       0.026  -2.328   4.289  0.00  0.00    +0.142 C 
BRANCH  15  16
ATOM     16  C   UNL     1       1.012  -2.831   5.313  0.00  0.00    -0.014 A 
ATOM     17  C   UNL     1       1.592  -4.085   5.172  0.00  0.00    +0.010 A 
ATOM     18  C   UNL     1       2.491  -4.508   6.134  0.00  0.00    +0.042 A 
ATOM     19  C   UNL     1       2.782  -3.667   7.204  0.00  0.00    +0.099 A 
ATOM     20  N   UNL     1       2.208  -2.479   7.303  0.00  0.00    -0.349 N 
ATOM     21  C   UNL     1       1.351  -2.047   6.397  0.00  0.00    +0.089 A 
ATOM     22  N   UNL     1       3.684  -4.080   8.178  0.00  0.00    -0.317 N 
ATOM     23  C   UNL     1       4.399  -5.365   8.195  0.00  0.00    +0.106 C 
ATOM     24  C   UNL     1       5.264  -5.391   9.473  0.00  0.00    +0.020 C 
ATOM     25  C   UNL     1       4.557  -4.360  10.392  0.00  0.00    +0.020 C 
ATOM     26  C   UNL     1       4.086  -3.300   9.362  0.00  0.00    +0.106 C 
ATOM     27  H   UNL     1       2.425  -1.910   8.058  0.00  0.00    +0.167 HD
ENDBRANCH  15  16
ENDBRANCH  13  15
TORSDOF 2
