REMARK  Name = ZINC13154932
REMARK  5 active torsions:
REMARK  status: ('A' for Active; 'I' for Inactive)
REMARK    1  A    between atoms: C_1  and  C_2
REMARK    2  A    between atoms: C_4  and  C_21
REMARK    3  A    between atoms: C_7  and  C_15
REMARK    4  A    between atoms: C_9  and  C_14
REMARK    5  A    between atoms: N_12  and  O_13
REMARK                            x       y       z     vdW  Elec       q    Type
REMARK                         _______ _______ _______ _____ _____    ______ ____
ROOT
ATOM      1  C   UNL     1       0.548   1.514   0.134  0.00  0.00    +0.016 C 
ATOM      2  C   UNL     1       0.512  -0.016   0.119  0.00  0.00    +0.055 C 
ATOM      3  C   UNL     1      -0.940  -0.498   0.021  0.00  0.00    +0.093 C 
ATOM      4  N   UNL     1      -1.662  -0.125   1.243  0.00  0.00    -0.301 NA
ATOM      5  C   UNL     1      -1.131  -0.826   2.419  0.00  0.00    +0.093 C 
ATOM      6  C   UNL     1       0.307  -0.366   2.680  0.00  0.00    +0.055 C 
ATOM      7  C   UNL     1       1.105  -0.553   1.405  0.00  0.00    +0.067 C 
ATOM      8  N   UNL     1       2.239  -1.144   1.414  0.00  0.00    -0.096 NA
ATOM      9  C   UNL     1       0.312   1.110   3.082  0.00  0.00    +0.016 C 
ATOM     10  H   UNL     1      -1.647   0.875   1.381  0.00  0.00    +0.123 HD
ENDROOT
BRANCH   5  11
ATOM     11  C   UNL     1      -1.146  -2.312   2.167  0.00  0.00    -0.030 A 
ATOM     12  C   UNL     1      -0.144  -3.111   2.684  0.00  0.00    +0.005 A 
ATOM     13  C   UNL     1      -0.157  -4.474   2.453  0.00  0.00    +0.000 A 
ATOM     14  C   UNL     1      -1.174  -5.038   1.705  0.00  0.00    +0.000 A 
ATOM     15  C   UNL     1      -2.177  -4.239   1.189  0.00  0.00    +0.000 A 
ATOM     16  C   UNL     1      -2.166  -2.877   1.424  0.00  0.00    +0.005 A 
ENDBRANCH   5  11
BRANCH   3  17
ATOM     17  C   UNL     1      -1.603   0.143  -1.171  0.00  0.00    -0.030 A 
ATOM     18  C   UNL     1      -2.071   1.441  -1.086  0.00  0.00    +0.005 A 
ATOM     19  C   UNL     1      -2.679   2.030  -2.179  0.00  0.00    +0.000 A 
ATOM     20  C   UNL     1      -2.819   1.320  -3.357  0.00  0.00    +0.000 A 
ATOM     21  C   UNL     1      -2.350   0.023  -3.442  0.00  0.00    +0.000 A 
ATOM     22  C   UNL     1      -1.738  -0.564  -2.351  0.00  0.00    +0.005 A 
ENDBRANCH   3  17
BRANCH   8  23
ATOM     23  O   UNL     1       2.771  -1.637   2.631  0.00  0.00    -0.409 OA
ATOM     24  H   UNL     1       3.632  -2.068   2.538  0.00  0.00    +0.328 HD
ENDBRANCH   8  23
TORSDOF 3
