REMARK  Name = ZINC36502225
REMARK  15 active torsions:
REMARK  status: ('A' for Active; 'I' for Inactive)
REMARK    1  A    between atoms: C_1  and  C_2
REMARK    2  A    between atoms: C_2  and  C_4
REMARK    3  A    between atoms: C_2  and  C_10
REMARK    4  A    between atoms: C_10  and  C_12
REMARK    5  A    between atoms: C_10  and  N_19
REMARK    6  A    between atoms: N_14  and  C_15
REMARK    7  A    between atoms: C_15  and  C_16
REMARK    8  A    between atoms: C_15  and  C_17
REMARK    9  A    between atoms: C_15  and  C_18
REMARK   10  A    between atoms: N_19  and  C_20
REMARK   11  A    between atoms: C_20  and  C_21
REMARK   12  A    between atoms: C_26  and  C_28
REMARK   13  A    between atoms: C_28  and  C_29
REMARK   14  A    between atoms: C_28  and  C_35
REMARK   15  A    between atoms: C_28  and  O_41
REMARK                            x       y       z     vdW  Elec       q    Type
REMARK                         _______ _______ _______ _____ _____    ______ ____
ROOT
ATOM      1  N   UNL     1      -1.705   1.270   0.673  0.00  0.00    -0.279 N 
ATOM      2  C   UNL     1      -2.931   1.782   0.901  0.00  0.00    +0.258 C 
ATOM      3  O   UNL     1      -3.132   2.452   1.892  0.00  0.00    -0.272 OA
ENDROOT
BRANCH   1   4
ATOM      4  C   UNL     1      -1.439   0.531  -0.565  0.00  0.00    +0.169 C 
BRANCH   4   5
ATOM      5  C   UNL     1      -1.012  -0.874  -0.229  0.00  0.00    +0.235 C 
ATOM      6  O   UNL     1      -0.937  -1.225   0.930  0.00  0.00    -0.274 OA
ATOM      7  N   UNL     1      -0.713  -1.742  -1.216  0.00  0.00    -0.309 N 
ATOM      8  H   UNL     1      -0.773  -1.461  -2.143  0.00  0.00    +0.149 HD
BRANCH   7   9
ATOM      9  C   UNL     1      -0.297  -3.108  -0.889  0.00  0.00    +0.026 C 
ATOM     10  C   UNL     1      -1.411  -3.807  -0.108  0.00  0.00    +0.031 C 
ATOM     11  C   UNL     1      -0.019  -3.879  -2.181  0.00  0.00    +0.031 C 
ATOM     12  C   UNL     1       0.973  -3.065  -0.038  0.00  0.00    +0.031 C 
ENDBRANCH   7   9
ENDBRANCH   4   5
BRANCH   4  14
ATOM     13  C   UNL     1      -0.759   2.657  -1.687  0.00  0.00    +0.015 C 
ATOM     14  C   UNL     1      -0.325   1.230  -1.346  0.00  0.00    +0.045 C 
BRANCH  14  15
ATOM     15  C   UNL     1      -0.051   0.471  -2.619  0.00  0.00    -0.042 A 
ATOM     16  C   UNL     1      -1.056   0.305  -3.554  0.00  0.00    +0.004 A 
ATOM     17  C   UNL     1      -0.804  -0.392  -4.721  0.00  0.00    +0.000 A 
ATOM     18  C   UNL     1       0.451  -0.922  -4.953  0.00  0.00    +0.000 A 
ATOM     19  C   UNL     1       1.455  -0.755  -4.018  0.00  0.00    +0.000 A 
ATOM     20  C   UNL     1       1.205  -0.055  -2.853  0.00  0.00    +0.004 A 
ENDBRANCH  14  15
ENDBRANCH   4  14
ENDBRANCH   1   4
BRANCH   1  21
ATOM     21  C   UNL     1      -0.639   1.450   1.661  0.00  0.00    +0.182 C 
BRANCH  21  22
ATOM     22  C   UNL     1       0.024   2.786   1.446  0.00  0.00    +0.122 A 
ATOM     23  C   UNL     1      -0.343   3.948   2.015  0.00  0.00    +0.046 A 
ATOM     24  C   UNL     1       0.546   4.938   1.537  0.00  0.00    +0.041 A 
ATOM     25  C   UNL     1       1.404   4.322   0.704  0.00  0.00    +0.195 A 
ATOM     26  O   UNL     1       1.086   3.017   0.657  0.00  0.00    -0.466 OA
ENDBRANCH  21  22
ENDBRANCH   1  21
BRANCH   2  27
ATOM     27  C   UNL     1      -4.050   1.523  -0.074  0.00  0.00    +0.192 C 
BRANCH  27  28
ATOM     28  C   UNL     1      -4.421   0.063  -0.036  0.00  0.00    -0.003 A 
ATOM     29  C   UNL     1      -4.485  -0.603   1.174  0.00  0.00    +0.007 A 
ATOM     30  C   UNL     1      -4.825  -1.942   1.209  0.00  0.00    +0.000 A 
ATOM     31  C   UNL     1      -5.103  -2.615   0.035  0.00  0.00    +0.000 A 
ATOM     32  C   UNL     1      -5.041  -1.950  -1.175  0.00  0.00    +0.000 A 
ATOM     33  C   UNL     1      -4.704  -0.609  -1.210  0.00  0.00    +0.007 A 
ENDBRANCH  27  28
BRANCH  27  34
ATOM     34  C   UNL     1      -5.248   2.356   0.303  0.00  0.00    -0.003 A 
ATOM     35  C   UNL     1      -5.765   2.284   1.583  0.00  0.00    +0.007 A 
ATOM     36  C   UNL     1      -6.863   3.049   1.929  0.00  0.00    +0.000 A 
ATOM     37  C   UNL     1      -7.445   3.885   0.994  0.00  0.00    +0.000 A 
ATOM     38  C   UNL     1      -6.927   3.958  -0.285  0.00  0.00    +0.000 A 
ATOM     39  C   UNL     1      -5.826   3.197  -0.630  0.00  0.00    +0.007 A 
ENDBRANCH  27  34
BRANCH  27  40
ATOM     40  O   UNL     1      -3.623   1.871  -1.393  0.00  0.00    -0.371 OA
ATOM     41  H   UNL     1      -3.368   2.799  -1.491  0.00  0.00    +0.212 HD
ENDBRANCH  27  40
ENDBRANCH   2  27
TORSDOF 11
