REMARK  Name = ZINC38865829
REMARK  6 active torsions:
REMARK  status: ('A' for Active; 'I' for Inactive)
REMARK    1  A    between atoms: C_1  and  C_2
REMARK    2  A    between atoms: C_4  and  C_27
REMARK    3  A    between atoms: C_6  and  C_8
REMARK    4  A    between atoms: N_10  and  C_11
REMARK    5  A    between atoms: C_13  and  C_26
REMARK    6  A    between atoms: C_18  and  C_21
REMARK                            x       y       z     vdW  Elec       q    Type
REMARK                         _______ _______ _______ _____ _____    ______ ____
ROOT
ATOM      1  C   UNL     1       0.063  -2.890   4.831  0.00  0.00    +0.131 A 
ATOM      2  C   UNL     1       0.088  -4.244   4.967  0.00  0.00    +0.068 A 
ATOM      3  C   UNL     1       0.096  -4.538   6.334  0.00  0.00    +0.062 A 
ATOM      4  N   UNL     1       0.076  -3.412   7.001  0.00  0.00    -0.168 NA
ATOM      5  N   UNL     1       0.062  -2.354   6.083  0.00  0.00    -0.194 N 
ATOM      6  C   UNL     1       0.045  -0.997   6.395  0.00  0.00    +0.196 A 
ATOM      7  N   UNL     1       0.048  -0.412   7.578  0.00  0.00    -0.218 NA
ATOM      8  C   UNL     1       0.031   0.907   7.695  0.00  0.00    +0.115 A 
ATOM      9  C   UNL     1       0.009   1.679   6.563  0.00  0.00    +0.080 A 
ATOM     10  S   UNL     1       0.022   0.415   5.299  0.00  0.00    -0.056 S 
ATOM     11  C   UNL     1       0.121  -5.919   6.937  0.00  0.00    +0.067 C 
ENDROOT
BRANCH   8  12
ATOM     12  C   UNL     1       0.034   1.539   9.031  0.00  0.00    +0.153 A 
ATOM     13  C   UNL     1       0.060   0.885  10.223  0.00  0.00    +0.051 A 
ATOM     14  C   UNL     1       0.053   1.874  11.228  0.00  0.00    +0.042 A 
ATOM     15  C   UNL     1       0.024   3.068  10.607  0.00  0.00    +0.196 A 
ATOM     16  O   UNL     1       0.018   2.863   9.279  0.00  0.00    -0.461 OA
ENDBRANCH   8  12
BRANCH   1  19
ATOM     17  C   UNL     1       0.052  -2.845   2.457  0.00  0.00    +0.249 C 
ATOM     18  O   UNL     1       0.068  -4.061   2.446  0.00  0.00    -0.270 OA
ATOM     19  N   UNL     1       0.049  -2.182   3.631  0.00  0.00    -0.266 N 
ATOM     20  H   UNL     1       0.036  -1.213   3.640  0.00  0.00    +0.157 HD
BRANCH  17  26
ATOM     21  C   UNL     1      -0.018   1.503   0.010  0.00  0.00    +0.044 C 
ATOM     22  C   UNL     1       0.002  -0.004   0.002  0.00  0.00    -0.049 A 
ATOM     23  C   UNL     1       0.006  -0.688  -1.201  0.00  0.00    +0.006 A 
ATOM     24  C   UNL     1       0.025  -2.071  -1.217  0.00  0.00    -0.049 A 
ATOM     25  C   UNL     1       0.040  -2.778  -0.033  0.00  0.00    +0.016 A 
ATOM     26  C   UNL     1       0.036  -2.095   1.184  0.00  0.00    +0.038 A 
ATOM     27  C   UNL     1       0.023  -0.699   1.194  0.00  0.00    +0.016 A 
ATOM     28  C   UNL     1       0.029  -2.807  -2.532  0.00  0.00    +0.044 C 
ENDBRANCH  17  26
ENDBRANCH   1  19
TORSDOF 3
