REMARK  Name = ZINC64622962
REMARK  2 active torsions:
REMARK  status: ('A' for Active; 'I' for Inactive)
REMARK    1  A    between atoms: C_8  and  C_26
REMARK    2  A    between atoms: N_18  and  C_19
REMARK                            x       y       z     vdW  Elec       q    Type
REMARK                         _______ _______ _______ _____ _____    ______ ____
ROOT
ATOM      1  C   UNL     1      -0.672   1.732   0.099  0.00  0.00    +0.001 A 
ATOM      2  C   UNL     1       0.447   2.534   0.363  0.00  0.00    +0.002 A 
ATOM      3  C   UNL     1       1.665   2.017   0.630  0.00  0.00    +0.026 A 
ATOM      4  C   UNL     1       1.862   0.610   0.653  0.00  0.00    +0.043 A 
ATOM      5  N   UNL     1       2.936  -0.118   0.863  0.00  0.00    -0.375 N 
ATOM      6  C   UNL     1       2.551  -1.528   0.846  0.00  0.00    +0.131 C 
ATOM      7  C   UNL     1       3.340  -2.322  -0.202  0.00  0.00    +0.134 C 
ATOM      8  N   UNL     1       2.630  -3.590  -0.435  0.00  0.00    -0.276 N 
ATOM      9  C   UNL     1       1.247  -3.593  -0.923  0.00  0.00    +0.114 C 
ATOM     10  C   UNL     1       0.357  -2.812   0.061  0.00  0.00    +0.052 C 
ATOM     11  C   UNL     1       1.090  -1.542   0.429  0.00  0.00    -0.035 C 
ATOM     12  C   UNL     1       0.695  -0.262   0.370  0.00  0.00    -0.001 A 
ATOM     13  C   UNL     1      -0.595   0.383   0.093  0.00  0.00    +0.010 A 
ATOM     14  C   UNL     1       3.257  -4.759  -0.198  0.00  0.00    +0.307 C 
ATOM     15  O   UNL     1       4.337  -4.768   0.360  0.00  0.00    -0.252 OA
ATOM     16  N   UNL     1       2.686  -5.919  -0.580  0.00  0.00    -0.269 N 
ATOM     17  H   UNL     1       1.874  -5.909  -1.110  0.00  0.00    +0.156 HD
ATOM     18  H   UNL     1       3.832   0.223   1.006  0.00  0.00    +0.160 HD
ENDROOT
BRANCH  16  19
ATOM     19  C   UNL     1       3.266  -7.139  -0.210  0.00  0.00    +0.035 A 
ATOM     20  C   UNL     1       4.639  -7.228  -0.024  0.00  0.00    +0.026 A 
ATOM     21  C   UNL     1       5.209  -8.433   0.341  0.00  0.00    +0.040 A 
ATOM     22  C   UNL     1       4.412  -9.551   0.520  0.00  0.00    +0.124 A 
ATOM     23  C   UNL     1       3.042  -9.464   0.334  0.00  0.00    +0.040 A 
ATOM     24  C   UNL     1       2.468  -8.260  -0.025  0.00  0.00    +0.026 A 
ATOM     25  F   UNL     1       4.971 -10.728   0.877  0.00  0.00    -0.205 F 
ENDBRANCH  16  19
BRANCH   7  26
ATOM     26  C   UNL     1       4.729  -2.601   0.309  0.00  0.00    -0.025 A 
ATOM     27  C   UNL     1       5.798  -2.613  -0.567  0.00  0.00    +0.008 A 
ATOM     28  C   UNL     1       7.074  -2.868  -0.100  0.00  0.00    +0.038 A 
ATOM     29  C   UNL     1       7.280  -3.111   1.248  0.00  0.00    +0.123 A 
ATOM     30  C   UNL     1       6.209  -3.099   2.125  0.00  0.00    +0.038 A 
ATOM     31  C   UNL     1       4.936  -2.838   1.656  0.00  0.00    +0.008 A 
ATOM     32  F   UNL     1       8.527  -3.361   1.706  0.00  0.00    -0.205 F 
ENDBRANCH   7  26
TORSDOF 2
