REMARK  Name = ZINC00888089
REMARK  10 active torsions:
REMARK  status: ('A' for Active; 'I' for Inactive)
REMARK    1  A    between atoms: C_3  and  C_6
REMARK    2  A    between atoms: C_6  and  C_8
REMARK    3  A    between atoms: C_6  and  N_19
REMARK    4  A    between atoms: N_10  and  C_11
REMARK    5  A    between atoms: C_11  and  C_12
REMARK    6  A    between atoms: N_19  and  C_20
REMARK    7  A    between atoms: C_20  and  C_21
REMARK    8  A    between atoms: C_28  and  C_30
REMARK    9  A    between atoms: C_30  and  N_31
REMARK   10  A    between atoms: C_33  and  C_36
REMARK                            x       y       z     vdW  Elec       q    Type
REMARK                         _______ _______ _______ _____ _____    ______ ____
ROOT
ATOM      1  N   UNL     1       3.916   0.688   1.169  0.00  0.00    -0.280 N 
ATOM      2  C   UNL     1       4.757   0.792   2.217  0.00  0.00    +0.240 C 
ATOM      3  O   UNL     1       5.212   1.874   2.523  0.00  0.00    -0.273 OA
ENDROOT
BRANCH   1   4
ATOM      4  C   UNL     1       3.561   1.879   0.393  0.00  0.00    +0.199 C 
BRANCH   4   7
ATOM      5  C   UNL     1      -0.117   2.867   0.314  0.00  0.00    +0.008 A 
ATOM      6  C   UNL     1       1.243   3.018   0.505  0.00  0.00    +0.013 A 
ATOM      7  C   UNL     1       2.062   1.965   0.262  0.00  0.00    +0.019 A 
ATOM      8  S   UNL     1       0.904   0.708  -0.253  0.00  0.00    -0.099 S 
ATOM      9  C   UNL     1      -0.593   1.670  -0.110  0.00  0.00    +0.045 A 
ENDBRANCH   4   7
BRANCH   4  10
ATOM     10  C   UNL     1       4.180   1.788  -0.978  0.00  0.00    +0.239 C 
ATOM     11  O   UNL     1       5.093   1.016  -1.181  0.00  0.00    -0.273 OA
ATOM     12  N   UNL     1       3.719   2.564  -1.979  0.00  0.00    -0.309 N 
ATOM     13  H   UNL     1       2.988   3.181  -1.816  0.00  0.00    +0.149 HD
BRANCH  12  14
ATOM     14  C   UNL     1       4.321   2.476  -3.311  0.00  0.00    +0.139 C 
BRANCH  14  15
ATOM     15  C   UNL     1       3.629   3.440  -4.240  0.00  0.00    -0.030 A 
ATOM     16  C   UNL     1       2.522   3.031  -4.960  0.00  0.00    +0.008 A 
ATOM     17  C   UNL     1       1.886   3.915  -5.812  0.00  0.00    +0.038 A 
ATOM     18  C   UNL     1       2.358   5.210  -5.944  0.00  0.00    +0.123 A 
ATOM     19  C   UNL     1       3.467   5.618  -5.222  0.00  0.00    +0.038 A 
ATOM     20  C   UNL     1       4.098   4.734  -4.367  0.00  0.00    +0.008 A 
ATOM     21  F   UNL     1       1.738   6.074  -6.776  0.00  0.00    -0.205 F 
ENDBRANCH  14  15
ENDBRANCH  12  14
ENDBRANCH   4  10
ENDBRANCH   1   4
BRANCH   1  22
ATOM     22  C   UNL     1       3.356  -0.616   0.806  0.00  0.00    +0.144 C 
BRANCH  22  23
ATOM     23  C   UNL     1       4.456  -1.508   0.289  0.00  0.00    -0.030 A 
ATOM     24  C   UNL     1       4.753  -1.526  -1.061  0.00  0.00    +0.008 A 
ATOM     25  C   UNL     1       5.761  -2.344  -1.536  0.00  0.00    +0.038 A 
ATOM     26  C   UNL     1       6.474  -3.144  -0.659  0.00  0.00    +0.123 A 
ATOM     27  C   UNL     1       6.175  -3.125   0.693  0.00  0.00    +0.038 A 
ATOM     28  C   UNL     1       5.170  -2.303   1.166  0.00  0.00    +0.008 A 
ATOM     29  F   UNL     1       7.459  -3.944  -1.122  0.00  0.00    -0.205 F 
ENDBRANCH  22  23
ENDBRANCH   1  22
BRANCH   2  30
ATOM     30  C   UNL     1       5.131  -0.434   3.008  0.00  0.00    +0.264 C 
BRANCH  30  31
ATOM     31  N   UNL     1       5.544  -0.039   4.357  0.00  0.00    -0.154 N 
ATOM     32  N   UNL     1       6.747   0.257   4.710  0.00  0.00    -0.130 NA
ATOM     33  C   UNL     1       6.728   0.561   5.993  0.00  0.00    +0.205 A 
ATOM     34  N   UNL     1       5.456   0.435   6.398  0.00  0.00    -0.108 NA
ATOM     35  N   UNL     1       4.762   0.074   5.372  0.00  0.00    -0.045 NA
BRANCH  33  36
ATOM     36  C   UNL     1       7.888   0.964   6.827  0.00  0.00    +0.023 A 
ATOM     37  C   UNL     1       9.157   1.056   6.260  0.00  0.00    +0.014 A 
ATOM     38  C   UNL     1      10.233   1.431   7.039  0.00  0.00    +0.039 A 
ATOM     39  C   UNL     1      10.052   1.716   8.383  0.00  0.00    +0.123 A 
ATOM     40  C   UNL     1       8.791   1.625   8.950  0.00  0.00    +0.039 A 
ATOM     41  C   UNL     1       7.709   1.257   8.177  0.00  0.00    +0.014 A 
ATOM     42  F   UNL     1      11.108   2.082   9.142  0.00  0.00    -0.205 F 
ENDBRANCH  33  36
ENDBRANCH  30  31
ENDBRANCH   2  30
TORSDOF 10
