REMARK  Name = ZINC19314685
REMARK  9 active torsions:
REMARK  status: ('A' for Active; 'I' for Inactive)
REMARK    1  A    between atoms: C_1  and  C_2
REMARK    2  A    between atoms: C_2  and  O_3
REMARK    3  A    between atoms: O_3  and  C_4
REMARK    4  A    between atoms: C_4  and  C_6
REMARK    5  A    between atoms: C_7  and  C_29
REMARK    6  A    between atoms: C_11  and  C_13
REMARK    7  A    between atoms: C_18  and  N_19
REMARK    8  A    between atoms: C_25  and  C_27
REMARK    9  A    between atoms: C_25  and  C_28
REMARK                            x       y       z     vdW  Elec       q    Type
REMARK                         _______ _______ _______ _____ _____    ______ ____
ROOT
ATOM      1  C   UNL     1       1.210   1.878  -0.454  0.00  0.00    +0.065 C 
ATOM      2  C   UNL     1      -0.007   1.350  -0.669  0.00  0.00    +0.016 C 
ATOM      3  N   UNL     1      -1.113   2.152  -0.703  0.00  0.00    -0.321 N 
ATOM      4  C   UNL     1      -1.088   3.397  -0.130  0.00  0.00    +0.016 C 
ATOM      5  C   UNL     1       0.088   4.017   0.107  0.00  0.00    +0.024 C 
ATOM      6  C   UNL     1       1.394   3.353  -0.248  0.00  0.00    +0.094 C 
ATOM      7  C   UNL     1       0.128   5.297   0.687  0.00  0.00    +0.162 C 
ATOM      8  O   UNL     1       1.204   5.821   0.902  0.00  0.00    -0.292 OA
ATOM      9  C   UNL     1      -1.135   6.030   1.048  0.00  0.00    +0.086 C 
ATOM     10  C   UNL     1      -2.259   5.574   0.111  0.00  0.00    -0.023 C 
ATOM     11  C   UNL     1      -2.399   4.054   0.224  0.00  0.00    +0.058 C 
ATOM     12  C   UNL     1      -1.913   5.952  -1.330  0.00  0.00    +0.011 C 
ATOM     13  C   UNL     1      -3.575   6.243   0.516  0.00  0.00    +0.011 C 
ATOM     14  C   UNL     1      -0.151  -0.135  -0.882  0.00  0.00    +0.061 C 
ATOM     15  H   UNL     1      -2.034   1.799  -1.191  0.00  0.00    +0.152 HD
ENDROOT
BRANCH   6  16
ATOM     16  C   UNL     1       1.933   3.966  -1.515  0.00  0.00    -0.005 A 
ATOM     17  C   UNL     1       1.167   3.960  -2.666  0.00  0.00    +0.007 A 
ATOM     18  C   UNL     1       1.661   4.522  -3.828  0.00  0.00    +0.000 A 
ATOM     19  C   UNL     1       2.920   5.091  -3.839  0.00  0.00    +0.002 A 
ATOM     20  C   UNL     1       3.686   5.098  -2.688  0.00  0.00    +0.033 A 
ATOM     21  C   UNL     1       3.190   4.540  -1.525  0.00  0.00    +0.130 A 
BRANCH  21  22
ATOM     22  N   UNL     1       4.008   4.552  -0.291  0.00  0.00    +0.057 N 
ATOM     23  O   UNL     1       3.483   4.777   0.785  0.00  0.00    -0.126 OA
ATOM     24  O   UNL     1       5.205   4.338  -0.352  0.00  0.00    -0.126 OA
ENDBRANCH  21  22
ENDBRANCH   6  16
BRANCH   1  25
ATOM     25  C   UNL     1       2.340   1.027  -0.420  0.00  0.00    +0.338 C 
ATOM     26  O   UNL     1       2.220  -0.154  -0.687  0.00  0.00    -0.245 OA
BRANCH  25  27
ATOM     27  O   UNL     1       3.550   1.525  -0.093  0.00  0.00    -0.462 OA
BRANCH  27  29
ATOM     28  C   UNL     1       5.927   1.351   0.311  0.00  0.00    +0.048 C 
ATOM     29  C   UNL     1       4.647   0.609  -0.080  0.00  0.00    +0.229 C 
ENDBRANCH  27  29
ENDBRANCH  25  27
ENDBRANCH   1  25
TORSDOF 5
