REMARK  Name = ZINC38862878
REMARK  5 active torsions:
REMARK  status: ('A' for Active; 'I' for Inactive)
REMARK    1  A    between atoms: C_1  and  C_2
REMARK    2  A    between atoms: C_4  and  N_19
REMARK    3  A    between atoms: C_9  and  C_12
REMARK    4  A    between atoms: C_20  and  C_22
REMARK    5  A    between atoms: N_27  and  C_29
REMARK                            x       y       z     vdW  Elec       q    Type
REMARK                         _______ _______ _______ _____ _____    ______ ____
ROOT
ATOM      1  C   UNL     1       0.064   1.516  -0.024  0.00  0.00    +0.067 C 
ATOM      2  C   UNL     1       0.070   0.009  -0.025  0.00  0.00    +0.062 A 
ATOM      3  C   UNL     1       0.062  -0.807  -1.160  0.00  0.00    +0.068 A 
ATOM      4  C   UNL     1       0.071  -2.103  -0.744  0.00  0.00    +0.131 A 
ATOM      5  N   UNL     1       0.084  -2.094   0.618  0.00  0.00    -0.194 N 
ATOM      6  N   UNL     1       0.089  -0.757   1.036  0.00  0.00    -0.168 NA
ATOM      7  C   UNL     1       0.097  -3.213   1.447  0.00  0.00    +0.196 A 
ATOM      8  N   UNL     1       0.104  -3.276   2.765  0.00  0.00    -0.221 NA
ATOM      9  C   UNL     1       0.116  -4.438   3.398  0.00  0.00    +0.080 A 
ATOM     10  C   UNL     1       0.119  -5.598   2.673  0.00  0.00    +0.077 A 
ATOM     11  S   UNL     1       0.098  -4.946   1.008  0.00  0.00    -0.056 S 
ENDROOT
BRANCH   9  12
ATOM     12  C   UNL     1       0.125  -4.483   4.881  0.00  0.00    +0.001 A 
ATOM     13  C   UNL     1       0.143  -5.709   5.544  0.00  0.00    +0.011 A 
ATOM     14  C   UNL     1       0.151  -5.745   6.923  0.00  0.00    +0.020 A 
ATOM     15  C   UNL     1       0.142  -4.566   7.649  0.00  0.00    +0.041 A 
ATOM     16  C   UNL     1       0.123  -3.346   6.995  0.00  0.00    +0.020 A 
ATOM     17  C   UNL     1       0.121  -3.299   5.616  0.00  0.00    +0.011 A 
ATOM     18 CL   UNL     1       0.153  -4.619   9.384  0.00  0.00    -0.084 Cl
ENDBRANCH   9  12
BRANCH   4  19
ATOM     19  N   UNL     1       0.067  -3.233  -1.561  0.00  0.00    -0.270 N 
ATOM     20  C   UNL     1       0.052  -3.094  -2.902  0.00  0.00    +0.223 C 
ATOM     21  O   UNL     1       0.044  -1.987  -3.397  0.00  0.00    -0.275 OA
ATOM     22  H   UNL     1       0.073  -4.118  -1.165  0.00  0.00    +0.156 HD
BRANCH  20  23
ATOM     23  C   UNL     1       0.048  -4.315  -3.785  0.00  0.00    +0.102 C 
ATOM     24  C   UNL     1      -1.251  -5.133  -3.592  0.00  0.00    +0.110 C 
ATOM     25  C   UNL     1      -2.179  -4.613  -4.668  0.00  0.00    +0.221 C 
ATOM     26  O   UNL     1      -3.380  -4.784  -4.691  0.00  0.00    -0.275 OA
ATOM     27  N   UNL     1      -1.480  -3.933  -5.593  0.00  0.00    -0.271 N 
ATOM     28  C   UNL     1      -0.047  -3.919  -5.275  0.00  0.00    +0.127 C 
BRANCH  27  29
ATOM     29  C   UNL     1      -2.046  -3.318  -6.716  0.00  0.00    +0.036 A 
ATOM     30  C   UNL     1      -3.397  -3.481  -6.992  0.00  0.00    +0.025 A 
ATOM     31  C   UNL     1      -3.953  -2.873  -8.100  0.00  0.00    +0.022 A 
ATOM     32  C   UNL     1      -3.165  -2.102  -8.936  0.00  0.00    +0.041 A 
ATOM     33  C   UNL     1      -1.818  -1.938  -8.663  0.00  0.00    +0.022 A 
ATOM     34  C   UNL     1      -1.258  -2.539  -7.553  0.00  0.00    +0.025 A 
ATOM     35 CL   UNL     1      -3.866  -1.339 -10.329  0.00  0.00    -0.084 Cl
ENDBRANCH  27  29
ENDBRANCH  20  23
ENDBRANCH   4  19
TORSDOF 4
