REMARK  Name = ZINC39665387
REMARK  8 active torsions:
REMARK  status: ('A' for Active; 'I' for Inactive)
REMARK    1  A    between atoms: C_1  and  C_2
REMARK    2  A    between atoms: C_2  and  C_4
REMARK    3  A    between atoms: C_2  and  O_33
REMARK    4  A    between atoms: C_4  and  N_5
REMARK    5  A    between atoms: C_6  and  C_8
REMARK    6  A    between atoms: C_19  and  C_21
REMARK    7  A    between atoms: C_24  and  C_26
REMARK    8  A    between atoms: O_33  and  C_34
REMARK                            x       y       z     vdW  Elec       q    Type
REMARK                         _______ _______ _______ _____ _____    ______ ____
ROOT
ATOM      1  C   UNL     1      -3.163  -3.758  -0.533  0.00  0.00    +0.100 C 
ATOM      2  C   UNL     1      -2.533  -4.169  -1.883  0.00  0.00    +0.121 C 
ATOM      3  N   UNL     1      -3.441  -5.211  -2.418  0.00  0.00    -0.294 N 
ATOM      4  C   UNL     1      -4.800  -4.728  -2.074  0.00  0.00    +0.115 C 
ATOM      5  C   UNL     1      -4.650  -4.126  -0.663  0.00  0.00    -0.004 C 
ATOM      6  C   UNL     1      -5.517  -2.877  -0.528  0.00  0.00    -0.010 C 
ATOM      7  C   UNL     1      -6.994  -3.276  -0.602  0.00  0.00    -0.082 C 
ATOM      8  N   UNL     1      -7.300  -4.227   0.473  0.00  0.00    +0.379 N 
ATOM      9  C   UNL     1      -6.531  -5.463   0.283  0.00  0.00    -0.082 C 
ATOM     10  C   UNL     1      -5.034  -5.157   0.394  0.00  0.00    -0.010 C 
ATOM     11  C   UNL     1      -3.107  -6.343  -3.069  0.00  0.00    +0.282 C 
ATOM     12  O   UNL     1      -3.976  -7.105  -3.450  0.00  0.00    -0.267 OA
ATOM     13  H   UNL     1      -7.060  -3.816   1.363  0.00  0.00    -0.086 HD
ATOM     14  H   UNL     1      -8.286  -4.441   0.460  0.00  0.00    -0.086 HD
ENDROOT
BRANCH  11  15
ATOM     15  C   UNL     1      -1.698  -6.655  -3.318  0.00  0.00    +0.190 A 
ATOM     16  C   UNL     1      -1.220  -7.769  -3.974  0.00  0.00    +0.055 A 
ATOM     17  C   UNL     1       0.175  -7.663  -3.986  0.00  0.00    +0.051 A 
ATOM     18  C   UNL     1       0.494  -6.500  -3.344  0.00  0.00    +0.139 A 
ATOM     19  O   UNL     1      -0.641  -5.899  -2.951  0.00  0.00    -0.450 OA
BRANCH  18  20
ATOM     20  C   UNL     1       1.861  -5.987  -3.124  0.00  0.00    +0.052 A 
ATOM     21  C   UNL     1       2.845  -6.819  -2.586  0.00  0.00    +0.014 A 
ATOM     22  C   UNL     1       4.120  -6.333  -2.383  0.00  0.00    +0.001 A 
ATOM     23  C   UNL     1       4.426  -5.023  -2.711  0.00  0.00    +0.003 A 
ATOM     24  C   UNL     1       3.458  -4.191  -3.243  0.00  0.00    +0.039 A 
ATOM     25  C   UNL     1       2.178  -4.666  -3.458  0.00  0.00    +0.134 A 
ATOM     26  F   UNL     1       1.234  -3.855  -3.985  0.00  0.00    -0.205 F 
ENDBRANCH  18  20
ENDBRANCH  11  15
BRANCH   1  28
ATOM     27  N   UNL     1      -2.934  -1.787   0.944  0.00  0.00    -0.312 N 
ATOM     28  C   UNL     1      -3.006  -2.276  -0.310  0.00  0.00    +0.218 C 
ATOM     29  O   UNL     1      -2.944  -1.523  -1.259  0.00  0.00    -0.275 OA
ATOM     30  H   UNL     1      -2.983  -2.389   1.703  0.00  0.00    +0.149 HD
BRANCH  27  31
ATOM     31  C   UNL     1      -2.782  -0.346   1.160  0.00  0.00    +0.148 C 
BRANCH  31  33
ATOM     32  C   UNL     1      -2.567   1.446   2.888  0.00  0.00    +0.053 C 
ATOM     33  C   UNL     1      -2.727  -0.059   2.662  0.00  0.00    +0.187 C 
BRANCH  33  34
ATOM     34  O   UNL     1      -3.936  -0.508   3.277  0.00  0.00    -0.488 OA
BRANCH  34  35
ATOM     35  C   UNL     1      -3.876  -0.821   4.599  0.00  0.00    +0.121 A 
ATOM     36  C   UNL     1      -4.981  -1.371   5.233  0.00  0.00    +0.045 A 
ATOM     37  C   UNL     1      -4.917  -1.689   6.576  0.00  0.00    +0.004 A 
ATOM     38  C   UNL     1      -3.754  -1.460   7.288  0.00  0.00    +0.000 A 
ATOM     39  C   UNL     1      -2.652  -0.912   6.658  0.00  0.00    +0.004 A 
ATOM     40  C   UNL     1      -2.708  -0.598   5.314  0.00  0.00    +0.045 A 
ENDBRANCH  34  35
ENDBRANCH  33  34
ENDBRANCH  31  33
ENDBRANCH  27  31
ENDBRANCH   1  28
TORSDOF 7
