REMARK  Name = ZINC12078966
REMARK  4 active torsions:
REMARK  status: ('A' for Active; 'I' for Inactive)
REMARK    1  A    between atoms: C_4  and  C_7
REMARK    2  A    between atoms: C_12  and  C_13
REMARK    3  A    between atoms: N_18  and  S_20
REMARK    4  A    between atoms: S_20  and  C_23
REMARK                            x       y       z     vdW  Elec       q    Type
REMARK                         _______ _______ _______ _____ _____    ______ ____
ROOT
ATOM      1  C   UNL     1      -1.725   5.666  -1.896  0.00  0.00    +0.053 C 
ATOM      2  C   UNL     1      -1.242   6.212  -3.241  0.00  0.00    +0.012 C 
ATOM      3  C   UNL     1      -2.166   5.716  -4.356  0.00  0.00    +0.018 C 
ATOM      4  C   UNL     1      -3.585   6.234  -4.106  0.00  0.00    +0.109 C 
ATOM      5  N   UNL     1      -4.003   5.835  -2.755  0.00  0.00    -0.176 NA
ATOM      6  C   UNL     1      -3.140   6.183  -1.618  0.00  0.00    +0.119 C 
ENDROOT
BRANCH   1  12
ATOM      7  C   UNL     1      -0.070   5.329   0.030  0.00  0.00    +0.023 A 
ATOM      8  C   UNL     1       0.653   6.166   0.901  0.00  0.00    +0.143 A 
ATOM      9  N   UNL     1       0.376   7.406   0.594  0.00  0.00    -0.181 NA
ATOM     10  N   UNL     1      -0.534   7.409  -0.469  0.00  0.00    -0.281 N 
ATOM     11  H   UNL     1      -0.923   8.220  -0.906  0.00  0.00    +0.189 HD
ATOM     12  C   UNL     1      -0.797   6.129  -0.802  0.00  0.00    +0.048 A 
BRANCH   7  16
ATOM     13  C   UNL     1      -0.013   1.076   0.008  0.00  0.00    +0.000 A 
ATOM     14  C   UNL     1      -1.221   1.749   0.017  0.00  0.00    +0.001 A 
ATOM     15  C   UNL     1      -1.245   3.129   0.031  0.00  0.00    +0.008 A 
ATOM     16  C   UNL     1      -0.050   3.844   0.023  0.00  0.00    -0.015 A 
ATOM     17  C   UNL     1       1.164   3.161   0.007  0.00  0.00    +0.008 A 
ATOM     18  C   UNL     1       1.177   1.781   0.000  0.00  0.00    +0.001 A 
ENDBRANCH   7  16
ENDBRANCH   1  12
BRANCH   5  19
ATOM     19  S   UNL     1      -5.419   5.010  -2.518  0.00  0.00    +0.063 S 
ATOM     20  O   UNL     1      -5.816   5.260  -1.177  0.00  0.00    -0.153 OA
ATOM     21  O   UNL     1      -6.254   5.310  -3.628  0.00  0.00    -0.153 OA
BRANCH  19  22
ATOM     22  C   UNL     1      -5.044   3.292  -2.621  0.00  0.00    +0.131 A 
ATOM     23  C   UNL     1      -5.189   2.495  -1.527  0.00  0.00    +0.031 A 
ATOM     24  C   UNL     1      -4.897   1.133  -1.586  0.00  0.00    +0.003 A 
ATOM     25  C   UNL     1      -4.460   0.562  -2.741  0.00  0.00    +0.010 A 
ATOM     26  C   UNL     1      -4.299   1.354  -3.890  0.00  0.00    +0.002 A 
ATOM     27  C   UNL     1      -4.599   2.738  -3.833  0.00  0.00    +0.097 A 
ATOM     28  N   UNL     1      -4.454   3.495  -4.926  0.00  0.00    -0.253 NA
ATOM     29  C   UNL     1      -4.041   2.983  -6.059  0.00  0.00    +0.111 A 
ATOM     30  C   UNL     1      -3.733   1.630  -6.184  0.00  0.00    +0.020 A 
ATOM     31  C   UNL     1      -3.849   0.802  -5.104  0.00  0.00    +0.011 A 
ENDBRANCH  19  22
ENDBRANCH   5  19
TORSDOF 4
