REMARK  Name = ZINC37510822
REMARK  11 active torsions:
REMARK  status: ('A' for Active; 'I' for Inactive)
REMARK    1  A    between atoms: C_1  and  C_2
REMARK    2  A    between atoms: C_2  and  C_3
REMARK    3  A    between atoms: C_7  and  O_9
REMARK    4  A    between atoms: O_9  and  C_10
REMARK    5  A    between atoms: C_10  and  C_11
REMARK    6  A    between atoms: C_11  and  C_13
REMARK    7  A    between atoms: N_19  and  C_24
REMARK    8  A    between atoms: C_24  and  C_25
REMARK    9  A    between atoms: C_28  and  C_30
REMARK   10  A    between atoms: N_35  and  C_38
REMARK   11  A    between atoms: C_38  and  C_39
REMARK                            x       y       z     vdW  Elec       q    Type
REMARK                         _______ _______ _______ _____ _____    ______ ____
ROOT
ATOM      1  C   UNL     1       6.903  -2.667  -4.681  0.00  0.00    +0.023 A 
ATOM      2  C   UNL     1       6.365  -3.005  -5.929  0.00  0.00    +0.015 A 
ATOM      3  C   UNL     1       7.187  -3.463  -6.935  0.00  0.00    +0.048 A 
ATOM      4  C   UNL     1       8.551  -3.591  -6.715  0.00  0.00    +0.143 A 
ATOM      5  C   UNL     1       9.096  -3.255  -5.472  0.00  0.00    +0.079 A 
ATOM      6  C   UNL     1       8.281  -2.791  -4.460  0.00  0.00    +0.038 A 
ATOM      7  N   UNL     1      10.478  -3.393  -5.271  0.00  0.00    -0.258 N 
ATOM      8  C   UNL     1      11.284  -3.534  -6.345  0.00  0.00    +0.258 C 
ATOM      9  O   UNL     1      12.479  -3.684  -6.194  0.00  0.00    -0.271 OA
ATOM     10  C   UNL     1      10.694  -3.506  -7.732  0.00  0.00    +0.325 C 
ATOM     11  O   UNL     1       9.369  -4.040  -7.701  0.00  0.00    -0.481 OA
ENDROOT
BRANCH   1  12
ATOM     12  C   UNL     1       6.027  -2.178  -3.609  0.00  0.00    +0.200 C 
ATOM     13  O   UNL     1       6.496  -1.881  -2.531  0.00  0.00    -0.288 OA
BRANCH  12  14
ATOM     14  C   UNL     1       4.545  -2.045  -3.849  0.00  0.00    +0.308 C 
BRANCH  14  15
ATOM     15  O   UNL     1       3.913  -1.554  -2.665  0.00  0.00    -0.484 OA
BRANCH  15  20
ATOM     16  C   UNL     1       0.520  -0.722  -1.650  0.00  0.00    -0.044 A 
ATOM     17  C   UNL     1      -0.174  -1.014  -2.810  0.00  0.00    +0.004 A 
ATOM     18  C   UNL     1       0.499  -1.486  -3.921  0.00  0.00    +0.004 A 
ATOM     19  C   UNL     1       1.868  -1.668  -3.875  0.00  0.00    +0.045 A 
ATOM     20  C   UNL     1       2.567  -1.376  -2.713  0.00  0.00    +0.121 A 
ATOM     21  C   UNL     1       1.889  -0.896  -1.601  0.00  0.00    +0.049 A 
BRANCH  16  23
ATOM     22  C   UNL     1      -0.278   1.320  -0.492  0.00  0.00    +0.009 C 
ATOM     23  C   UNL     1      -0.218  -0.208  -0.441  0.00  0.00    +0.032 C 
ENDBRANCH  16  23
ENDBRANCH  15  20
ENDBRANCH  14  15
ENDBRANCH  12  14
ENDBRANCH   1  12
BRANCH   7  24
ATOM     24  C   UNL     1      11.037  -3.382  -3.917  0.00  0.00    +0.188 C 
BRANCH  24  25
ATOM     25  C   UNL     1      11.077  -4.789  -3.379  0.00  0.00    +0.124 A 
ATOM     26  C   UNL     1      12.110  -5.652  -3.509  0.00  0.00    +0.047 A 
ATOM     27  C   UNL     1      11.736  -6.842  -2.866  0.00  0.00    +0.055 A 
ATOM     28  C   UNL     1      10.479  -6.644  -2.371  0.00  0.00    +0.190 A 
ATOM     29  O   UNL     1      10.099  -5.389  -2.688  0.00  0.00    -0.453 OA
BRANCH  28  30
ATOM     30  C   UNL     1       9.684  -7.622  -1.621  0.00  0.00    +0.282 C 
ATOM     31  O   UNL     1      10.083  -8.765  -1.499  0.00  0.00    -0.267 OA
ATOM     32  N   UNL     1       8.511  -7.254  -1.068  0.00  0.00    -0.299 N 
ATOM     33  C   UNL     1       7.738  -8.193  -0.240  0.00  0.00    +0.089 C 
ATOM     34  C   UNL     1       7.379  -7.497   1.077  0.00  0.00    -0.060 C 
ATOM     35  N   UNL     1       6.689  -6.233   0.789  0.00  0.00    +0.382 N 
ATOM     36  C   UNL     1       7.598  -5.315   0.092  0.00  0.00    -0.060 C 
ATOM     37  C   UNL     1       7.971  -5.900  -1.269  0.00  0.00    +0.089 C 
ATOM     38  H   UNL     1       5.885  -6.415   0.207  0.00  0.00    -0.082 HD
BRANCH  35  39
ATOM     39  C   UNL     1       6.247  -5.621   2.049  0.00  0.00    -0.082 C 
ATOM     40  C   UNL     1       5.421  -4.369   1.746  0.00  0.00    -0.017 C 
ENDBRANCH  35  39
ENDBRANCH  28  30
ENDBRANCH  24  25
ENDBRANCH   7  24
TORSDOF 9
