REMARK  Name = ZINC13064255
REMARK  10 active torsions:
REMARK  status: ('A' for Active; 'I' for Inactive)
REMARK    1  A    between atoms: C_1  and  C_2
REMARK    2  A    between atoms: C_2  and  C_3
REMARK    3  A    between atoms: C_3  and  C_5
REMARK    4  A    between atoms: C_3  and  N_67
REMARK    5  A    between atoms: N_9  and  C_10
REMARK    6  A    between atoms: C_15  and  C_16
REMARK    7  A    between atoms: C_15  and  N_67
REMARK    8  A    between atoms: C_21  and  O_28
REMARK    9  A    between atoms: O_28  and  C_29
REMARK   10  A    between atoms: C_30  and  N_67
REMARK                            x       y       z     vdW  Elec       q    Type
REMARK                         _______ _______ _______ _____ _____    ______ ____
ROOT
ATOM      1  N   UNL     1       2.496   1.053   8.687  0.00  0.00    +0.391 N 
ATOM      2  H   UNL     1       2.992   1.523   7.920  0.00  0.00    -0.080 HD
ENDROOT
BRANCH   1   3
ATOM      3  C   UNL     1       1.433   1.948   9.191  0.00  0.00    -0.067 C 
ATOM      4  C   UNL     1       2.067   3.242   9.741  0.00  0.00    -0.015 C 
ATOM      5  C   UNL     1       1.187   3.606  10.963  0.00  0.00    -0.002 C 
ATOM      6  C   UNL     1       0.869   2.222  11.581  0.00  0.00    -0.002 C 
ATOM      7  C   UNL     1       0.672   1.299  10.361  0.00  0.00    -0.015 C 
ENDBRANCH   1   3
BRANCH   1   8
ATOM      8  C   UNL     1       3.457   0.751   9.768  0.00  0.00    +0.003 C 
BRANCH   8   9
ATOM      9  C   UNL     1       2.932  -0.354  10.647  0.00  0.00    +0.138 A 
ATOM     10  N   UNL     1       2.216  -1.384  10.266  0.00  0.00    -0.115 NA
ATOM     11  N   UNL     1       1.966  -2.102  11.306  0.00  0.00    -0.023 NA
ATOM     12  N   UNL     1       2.498  -1.552  12.342  0.00  0.00    -0.044 NA
ATOM     13  N   UNL     1       3.102  -0.473  11.977  0.00  0.00    -0.228 N 
BRANCH  13  14
ATOM     14  C   UNL     1       3.836   0.450  12.846  0.00  0.00    +0.111 C 
ATOM     15  C   UNL     1       4.967  -0.300  13.579  0.00  0.00    +0.027 C 
ATOM     16  C   UNL     1       4.995   0.341  14.990  0.00  0.00    +0.002 C 
ATOM     17  C   UNL     1       3.494   0.576  15.290  0.00  0.00    +0.002 C 
ATOM     18  C   UNL     1       2.900   1.008  13.933  0.00  0.00    +0.027 C 
ENDBRANCH  13  14
ENDBRANCH   8   9
BRANCH   8  20
ATOM     19  C   UNL     1       5.330   1.450   8.269  0.00  0.00    +0.002 C 
ATOM     20  C   UNL     1       4.782   0.316   9.137  0.00  0.00    -0.011 C 
ENDBRANCH   8  20
ENDBRANCH   1   8
BRANCH   1  21
ATOM     21  C   UNL     1       1.901  -0.200   8.176  0.00  0.00    -0.036 C 
BRANCH  21  22
ATOM     22  C   UNL     1       1.327   0.061   6.807  0.00  0.00    +0.001 A 
ATOM     23  C   UNL     1       2.076  -0.185   5.702  0.00  0.00    +0.017 A 
ATOM     24  C   UNL     1       1.491   0.080   4.388  0.00  0.00    -0.001 A 
ATOM     25  C   UNL     1       2.216  -0.154   3.214  0.00  0.00    +0.013 A 
ATOM     26  C   UNL     1       1.642   0.096   2.002  0.00  0.00    +0.046 A 
ATOM     27  C   UNL     1       0.343   0.594   1.923  0.00  0.00    +0.122 A 
ATOM     28  C   UNL     1      -0.391   0.833   3.072  0.00  0.00    +0.072 A 
ATOM     29  C   UNL     1       0.175   0.578   4.315  0.00  0.00    +0.053 A 
ATOM     30  N   UNL     1      -0.533   0.807   5.476  0.00  0.00    -0.322 N 
ATOM     31  H   UNL     1      -1.438   1.150   5.424  0.00  0.00    +0.169 HD
ATOM     32  C   UNL     1       0.015   0.560   6.679  0.00  0.00    +0.251 A 
ATOM     33  O   UNL     1      -0.640   0.774   7.685  0.00  0.00    -0.268 OA
BRANCH  27  34
ATOM     34  O   UNL     1      -0.210   0.843   0.708  0.00  0.00    -0.495 OA
ATOM     35  C   UNL     1       0.598   0.576  -0.440  0.00  0.00    +0.277 C 
ENDBRANCH  27  34
ENDBRANCH  21  22
ENDBRANCH   1  21
TORSDOF 8
