REMARK  Name = ZINC15274814
REMARK  9 active torsions:
REMARK  status: ('A' for Active; 'I' for Inactive)
REMARK    1  A    between atoms: C_1  and  C_2
REMARK    2  A    between atoms: C_5  and  N_8
REMARK    3  A    between atoms: C_9  and  C_26
REMARK    4  A    between atoms: C_12  and  S_13
REMARK    5  A    between atoms: S_13  and  C_14
REMARK    6  A    between atoms: C_14  and  C_15
REMARK    7  A    between atoms: N_17  and  C_18
REMARK    8  A    between atoms: C_19  and  C_25
REMARK    9  A    between atoms: C_23  and  C_24
REMARK                            x       y       z     vdW  Elec       q    Type
REMARK                         _______ _______ _______ _____ _____    ______ ____
ROOT
ATOM      1  N   UNL     1      -5.007   2.228  -2.257  0.00  0.00    -0.270 N 
ATOM      2  C   UNL     1      -5.804   3.188  -1.672  0.00  0.00    +0.172 A 
ATOM      3  N   UNL     1      -5.097   3.747  -0.718  0.00  0.00    -0.128 NA
ATOM      4  N   UNL     1      -3.931   3.208  -0.661  0.00  0.00    -0.122 NA
ATOM      5  C   UNL     1      -3.820   2.271  -1.576  0.00  0.00    +0.197 A 
ENDROOT
BRANCH   1  10
ATOM      6  C   UNL     1      -6.362  -1.197  -6.574  0.00  0.00    +0.044 C 
ATOM      7  C   UNL     1      -6.003  -0.288  -5.428  0.00  0.00    -0.050 A 
ATOM      8  C   UNL     1      -5.792  -0.817  -4.168  0.00  0.00    +0.005 A 
ATOM      9  C   UNL     1      -5.461   0.015  -3.115  0.00  0.00    +0.026 A 
ATOM     10  C   UNL     1      -5.342   1.382  -3.323  0.00  0.00    +0.051 A 
ATOM     11  C   UNL     1      -5.560   1.911  -4.588  0.00  0.00    +0.026 A 
ATOM     12  C   UNL     1      -5.885   1.074  -5.638  0.00  0.00    +0.005 A 
ENDBRANCH   1  10
BRANCH   2  13
ATOM     13  C   UNL     1      -7.191   3.528  -2.052  0.00  0.00    +0.055 A 
ATOM     14  C   UNL     1      -8.135   2.517  -2.241  0.00  0.00    +0.014 A 
ATOM     15  C   UNL     1      -9.428   2.841  -2.595  0.00  0.00    +0.001 A 
ATOM     16  C   UNL     1      -9.793   4.165  -2.762  0.00  0.00    +0.003 A 
ATOM     17  C   UNL     1      -8.865   5.174  -2.577  0.00  0.00    +0.039 A 
ATOM     18  C   UNL     1      -7.566   4.864  -2.218  0.00  0.00    +0.134 A 
ATOM     19  F   UNL     1      -6.662   5.850  -2.031  0.00  0.00    -0.205 F 
ENDBRANCH   2  13
BRANCH   5  20
ATOM     20  S   UNL     1      -2.406   1.265  -1.875  0.00  0.00    -0.076 S 
BRANCH  20  21
ATOM     21  C   UNL     1      -1.285   1.912  -0.610  0.00  0.00    +0.173 C 
BRANCH  21  22
ATOM     22  C   UNL     1       0.029   1.178  -0.679  0.00  0.00    +0.228 C 
ATOM     23  O   UNL     1       0.192   0.303  -1.503  0.00  0.00    -0.275 OA
ATOM     24  N   UNL     1       1.025   1.498   0.171  0.00  0.00    -0.284 N 
ATOM     25  H   UNL     1       0.920   2.243   0.782  0.00  0.00    +0.155 HD
BRANCH  24  26
ATOM     26  C   UNL     1       2.210   0.754   0.171  0.00  0.00    +0.039 A 
ATOM     27  C   UNL     1       2.163  -0.630   0.272  0.00  0.00    -0.029 A 
ATOM     28  C   UNL     1       3.335  -1.362   0.266  0.00  0.00    +0.005 A 
ATOM     29  C   UNL     1       4.554  -0.716   0.170  0.00  0.00    +0.001 A 
ATOM     30  C   UNL     1       4.604   0.662   0.075  0.00  0.00    +0.005 A 
ATOM     31  C   UNL     1       3.436   1.399   0.074  0.00  0.00    -0.029 A 
ATOM     32  C   UNL     1       3.492   2.901  -0.030  0.00  0.00    +0.045 C 
ATOM     33  C   UNL     1       0.835  -1.334   0.384  0.00  0.00    +0.045 C 
ENDBRANCH  24  26
ENDBRANCH  21  22
ENDBRANCH  20  21
ENDBRANCH   5  20
TORSDOF 6
