REMARK  Name = ZINC01919264
REMARK  16 active torsions:
REMARK  status: ('A' for Active; 'I' for Inactive)
REMARK    1  A    between atoms: C_1  and  C_2
REMARK    2  A    between atoms: C_2  and  O_3
REMARK    3  A    between atoms: O_3  and  C_4
REMARK    4  A    between atoms: C_4  and  C_6
REMARK    5  A    between atoms: C_10  and  N_11
REMARK    6  A    between atoms: C_12  and  C_14
REMARK    7  A    between atoms: C_14  and  O_15
REMARK    8  A    between atoms: O_15  and  C_16
REMARK    9  A    between atoms: C_16  and  C_18
REMARK   10  A    between atoms: C_20  and  O_28
REMARK   11  A    between atoms: C_21  and  O_26
REMARK   12  A    between atoms: C_22  and  O_24
REMARK   13  A    between atoms: O_24  and  C_25
REMARK   14  A    between atoms: O_26  and  C_27
REMARK   15  A    between atoms: O_28  and  C_29
REMARK   16  A    between atoms: C_31  and  C_35
REMARK                            x       y       z     vdW  Elec       q    Type
REMARK                         _______ _______ _______ _____ _____    ______ ____
ROOT
ATOM      1  N   UNL     1       1.216   3.792  -2.476  0.00  0.00    -0.277 N 
ATOM      2  C   UNL     1       1.240   4.657  -3.509  0.00  0.00    +0.255 C 
ATOM      3  O   UNL     1       1.288   5.851  -3.300  0.00  0.00    -0.272 OA
ATOM      4  H   UNL     1       1.177   2.837  -2.644  0.00  0.00    +0.155 HD
ENDROOT
BRANCH   1   9
ATOM      5  C   UNL     1       1.232   3.540   0.009  0.00  0.00    +0.091 A 
ATOM      6  C   UNL     1       1.268   4.287   1.256  0.00  0.00    -0.021 A 
ATOM      7  C   UNL     1       1.325   5.629   1.120  0.00  0.00    -0.004 A 
ATOM      8  S   UNL     1       1.318   5.909  -0.628  0.00  0.00    -0.077 S 
ATOM      9  C   UNL     1       1.249   4.266  -1.174  0.00  0.00    +0.086 A 
ATOM     10  C   UNL     1       1.377   6.646   2.218  0.00  0.00    +0.046 C 
ATOM     11  C   UNL     1       1.724   5.929   3.528  0.00  0.00    -0.009 C 
ATOM     12  C   UNL     1       0.838   4.687   3.667  0.00  0.00    +0.008 C 
ATOM     13  C   UNL     1       1.249   3.637   2.634  0.00  0.00    +0.037 C 
ATOM     14  C   UNL     1       1.480   6.868   4.711  0.00  0.00    +0.008 C 
BRANCH   5  15
ATOM     15  C   UNL     1       1.176   2.076   0.002  0.00  0.00    +0.342 C 
ATOM     16  O   UNL     1       2.205   1.428  -0.011  0.00  0.00    -0.245 OA
BRANCH  15  17
ATOM     17  O   UNL     1      -0.018   1.448   0.010  0.00  0.00    -0.461 OA
BRANCH  17  19
ATOM     18  C   UNL     1      -1.433  -0.534   0.013  0.00  0.00    +0.048 C 
ATOM     19  C   UNL     1       0.002  -0.004   0.002  0.00  0.00    +0.229 C 
ENDBRANCH  17  19
ENDBRANCH  15  17
ENDBRANCH   5  15
ENDBRANCH   1   9
BRANCH   2  20
ATOM     20  C   UNL     1       1.205   4.142  -4.925  0.00  0.00    +0.328 C 
BRANCH  20  21
ATOM     21  O   UNL     1       1.239   5.261  -5.849  0.00  0.00    -0.452 OA
BRANCH  21  22
ATOM     22  C   UNL     1       1.214   4.970  -7.164  0.00  0.00    +0.340 C 
ATOM     23  O   UNL     1       1.165   3.812  -7.529  0.00  0.00    -0.245 OA
BRANCH  22  24
ATOM     24  C   UNL     1       1.246   6.057  -8.161  0.00  0.00    +0.066 A 
ATOM     25  C   UNL     1       1.297   7.389  -7.742  0.00  0.00    +0.064 A 
ATOM     26  C   UNL     1       1.333   8.405  -8.678  0.00  0.00    +0.166 A 
ATOM     27  C   UNL     1       1.306   8.103 -10.037  0.00  0.00    +0.204 A 
ATOM     28  C   UNL     1       1.250   6.777 -10.457  0.00  0.00    +0.166 A 
ATOM     29  C   UNL     1       1.220   5.756  -9.525  0.00  0.00    +0.064 A 
BRANCH  28  30
ATOM     30  O   UNL     1       1.225   6.485 -11.785  0.00  0.00    -0.491 OA
ATOM     31  C   UNL     1       1.167   5.103 -12.145  0.00  0.00    +0.277 C 
ENDBRANCH  28  30
BRANCH  27  32
ATOM     32  O   UNL     1       1.335   9.104 -10.956  0.00  0.00    -0.488 OA
ATOM     33  C   UNL     1       0.077   9.632 -11.380  0.00  0.00    +0.277 C 
ENDBRANCH  27  32
BRANCH  26  34
ATOM     34  O   UNL     1       1.388   9.702  -8.272  0.00  0.00    -0.491 OA
ATOM     35  C   UNL     1       1.412   9.940  -6.863  0.00  0.00    +0.277 C 
ENDBRANCH  26  34
ENDBRANCH  22  24
ENDBRANCH  21  22
ENDBRANCH  20  21
ENDBRANCH   2  20
TORSDOF 11
