REMARK  Name = ZINC08845569
REMARK  9 active torsions:
REMARK  status: ('A' for Active; 'I' for Inactive)
REMARK    1  A    between atoms: C_1  and  C_2
REMARK    2  A    between atoms: C_5  and  O_34
REMARK    3  A    between atoms: C_6  and  C_8
REMARK    4  A    between atoms: N_16  and  C_28
REMARK    5  A    between atoms: C_17  and  C_19
REMARK    6  A    between atoms: C_22  and  O_27
REMARK    7  A    between atoms: C_23  and  O_25
REMARK    8  A    between atoms: O_25  and  C_26
REMARK    9  A    between atoms: C_28  and  C_29
REMARK                            x       y       z     vdW  Elec       q    Type
REMARK                         _______ _______ _______ _____ _____    ______ ____
ROOT
ATOM      1  C   UNL     1       0.319  -2.939   2.921  0.00  0.00    +0.102 A 
ATOM      2  C   UNL     1       0.287  -4.336   2.842  0.00  0.00    +0.035 A 
ATOM      3  C   UNL     1       0.211  -4.785   4.147  0.00  0.00    +0.126 A 
ATOM      4  N   UNL     1       0.200  -3.668   4.933  0.00  0.00    -0.272 N 
ATOM      5  H   UNL     1       0.151  -3.668   5.902  0.00  0.00    +0.189 HD
ATOM      6  N   UNL     1       0.268  -2.615   4.198  0.00  0.00    -0.173 NA
ATOM      7  C   UNL     1       0.175  -6.252   4.134  0.00  0.00    +0.266 C 
ATOM      8  O   UNL     1       0.107  -6.953   5.125  0.00  0.00    -0.268 OA
ATOM      9  N   UNL     1       0.226  -6.710   2.871  0.00  0.00    -0.278 N 
ATOM     10  C   UNL     1       0.301  -5.557   1.964  0.00  0.00    +0.142 C 
ENDROOT
BRANCH   1  16
ATOM     11  C   UNL     1      -1.255  -1.463  -1.581  0.00  0.00    +0.044 C 
ATOM     12  C   UNL     1      -0.353  -1.283  -0.387  0.00  0.00    -0.050 A 
ATOM     13  C   UNL     1       0.553  -0.237  -0.359  0.00  0.00    +0.007 A 
ATOM     14  C   UNL     1       1.385  -0.065   0.731  0.00  0.00    +0.046 A 
ATOM     15  C   UNL     1       1.315  -0.940   1.803  0.00  0.00    +0.126 A 
ATOM     16  C   UNL     1       0.401  -1.997   1.778  0.00  0.00    +0.044 A 
ATOM     17  C   UNL     1      -0.437  -2.158   0.677  0.00  0.00    +0.017 A 
BRANCH  15  18
ATOM     18  O   UNL     1       2.132  -0.771   2.876  0.00  0.00    -0.506 OA
ATOM     19  H   UNL     1       1.792  -0.152   3.536  0.00  0.00    +0.292 HD
ENDBRANCH  15  18
ENDBRANCH   1  16
BRANCH  10  20
ATOM     20  C   UNL     1       1.577  -5.607   1.165  0.00  0.00    -0.019 A 
ATOM     21  C   UNL     1       2.765  -5.950   1.783  0.00  0.00    +0.009 A 
ATOM     22  C   UNL     1       3.939  -5.998   1.054  0.00  0.00    +0.049 A 
ATOM     23  C   UNL     1       3.926  -5.701  -0.299  0.00  0.00    +0.158 A 
ATOM     24  C   UNL     1       2.731  -5.356  -0.922  0.00  0.00    +0.162 A 
ATOM     25  C   UNL     1       1.557  -5.315  -0.186  0.00  0.00    +0.055 A 
BRANCH  24  26
ATOM     26  O   UNL     1       2.713  -5.063  -2.250  0.00  0.00    -0.491 OA
ATOM     27  C   UNL     1       1.450  -4.718  -2.821  0.00  0.00    +0.277 C 
ENDBRANCH  24  26
BRANCH  23  28
ATOM     28  O   UNL     1       5.080  -5.746  -1.018  0.00  0.00    -0.503 OA
ATOM     29  H   UNL     1       5.265  -6.610  -1.411  0.00  0.00    +0.292 HD
ENDBRANCH  23  28
ENDBRANCH  10  20
BRANCH   9  30
ATOM     30  C   UNL     1       0.211  -8.119   2.468  0.00  0.00    +0.183 C 
BRANCH  30  31
ATOM     31  C   UNL     1      -1.213  -8.566   2.258  0.00  0.00    +0.122 A 
ATOM     32  C   UNL     1      -1.894  -8.505   1.100  0.00  0.00    +0.046 A 
ATOM     33  C   UNL     1      -3.184  -9.025   1.355  0.00  0.00    +0.041 A 
ATOM     34  C   UNL     1      -3.214  -9.372   2.654  0.00  0.00    +0.195 A 
ATOM     35  O   UNL     1      -2.016  -9.097   3.195  0.00  0.00    -0.466 OA
ENDBRANCH  30  31
ENDBRANCH   9  30
TORSDOF 7
