REMARK  Name = ZINC44752412
REMARK  8 active torsions:
REMARK  status: ('A' for Active; 'I' for Inactive)
REMARK    1  A    between atoms: C_1  and  C_2
REMARK    2  A    between atoms: C_3  and  N_12
REMARK    3  A    between atoms: C_5  and  C_9
REMARK    4  A    between atoms: C_13  and  C_15
REMARK    5  A    between atoms: C_15  and  O_16
REMARK    6  A    between atoms: O_16  and  N_17
REMARK    7  A    between atoms: C_18  and  C_19
REMARK    8  A    between atoms: C_18  and  C_20
REMARK                            x       y       z     vdW  Elec       q    Type
REMARK                         _______ _______ _______ _____ _____    ______ ____
ROOT
ATOM      1  N   UNL     1       0.852  -0.035  -2.395  0.00  0.00    -0.282 N 
ATOM      2  C   UNL     1       0.790  -0.684  -3.575  0.00  0.00    +0.258 C 
ATOM      3  O   UNL     1       0.813  -1.896  -3.602  0.00  0.00    -0.272 OA
ATOM      4  H   UNL     1       0.755   0.930  -2.367  0.00  0.00    +0.155 HD
ENDROOT
BRANCH   1   7
ATOM      5  C   UNL     1       0.114   1.193   0.059  0.00  0.00    +0.048 C 
ATOM      6  C   UNL     1       0.710  -0.190   0.011  0.00  0.00    +0.006 A 
ATOM      7  C   UNL     1       1.058  -0.753  -1.212  0.00  0.00    +0.040 A 
ATOM      8  C   UNL     1       1.607  -2.024  -1.259  0.00  0.00    +0.036 A 
ATOM      9  C   UNL     1       1.810  -2.737  -0.077  0.00  0.00    +0.041 A 
ATOM     10  C   UNL     1       1.459  -2.165   1.147  0.00  0.00    +0.051 A 
ATOM     11  C   UNL     1       0.916  -0.894   1.185  0.00  0.00    +0.129 A 
ATOM     12  F   UNL     1       0.581  -0.340   2.370  0.00  0.00    -0.205 F 
BRANCH   9  13
ATOM     13  C   UNL     1       2.395  -4.094  -0.121  0.00  0.00    +0.242 C 
ATOM     14  O   UNL     1       2.699  -4.591  -1.188  0.00  0.00    -0.270 OA
ATOM     15  N   UNL     1       2.590  -4.781   1.022  0.00  0.00    -0.325 N 
ATOM     16  H   UNL     1       2.347  -4.385   1.874  0.00  0.00    +0.145 HD
ATOM     17  H   UNL     1       2.974  -5.671   0.994  0.00  0.00    +0.145 HD
ENDBRANCH   9  13
ENDBRANCH   1   7
BRANCH   2  18
ATOM     18  C   UNL     1       0.691   0.097  -4.860  0.00  0.00    +0.358 C 
BRANCH  18  19
ATOM     19  O   UNL     1       0.638  -0.809  -5.964  0.00  0.00    -0.384 OA
BRANCH  19  20
ATOM     20  N   UNL     1       0.543  -0.173  -7.226  0.00  0.00    -0.089 NA
ATOM     21  C   UNL     1       0.488  -0.884  -8.306  0.00  0.00    +0.084 C 
ATOM     22  C   UNL     1       0.526  -0.211  -9.654  0.00  0.00    +0.069 C 
BRANCH  21  23
ATOM     23  C   UNL     1       0.389  -2.354  -8.218  0.00  0.00    +0.003 A 
ATOM     24  C   UNL     1      -0.308  -2.946  -7.162  0.00  0.00    +0.013 A 
ATOM     25  C   UNL     1      -0.400  -4.319  -7.081  0.00  0.00    +0.050 A 
ATOM     26  C   UNL     1       0.197  -5.117  -8.047  0.00  0.00    +0.166 A 
ATOM     27  C   UNL     1       0.893  -4.532  -9.104  0.00  0.00    +0.167 A 
ATOM     28  C   UNL     1       0.985  -3.156  -9.193  0.00  0.00    +0.059 A 
ATOM     29  O   UNL     1       1.380  -5.523  -9.907  0.00  0.00    -0.453 OA
ATOM     30  C   UNL     1       1.325  -6.723  -9.112  0.00  0.00    +0.466 C 
ATOM     31  O   UNL     1       0.248  -6.473  -8.190  0.00  0.00    -0.453 OA
ENDBRANCH  21  23
ENDBRANCH  19  20
ENDBRANCH  18  19
ENDBRANCH   2  18
TORSDOF 6
