REMARK  Name = ZINC11603446
REMARK  7 active torsions:
REMARK  status: ('A' for Active; 'I' for Inactive)
REMARK    1  A    between atoms: C_1  and  C_2
REMARK    2  A    between atoms: C_7  and  C_9
REMARK    3  A    between atoms: C_7  and  C_27
REMARK    4  A    between atoms: C_7  and  N_56
REMARK    5  A    between atoms: C_9  and  N_10
REMARK    6  A    between atoms: C_11  and  C_13
REMARK    7  A    between atoms: C_13  and  C_14
REMARK                            x       y       z     vdW  Elec       q    Type
REMARK                         _______ _______ _______ _____ _____    ______ ____
ROOT
ATOM      1  N   UNL     1       1.258   2.142  -0.238  0.00  0.00    -0.316 N 
ATOM      2  C   UNL     1       0.143   1.389  -0.312  0.00  0.00    +0.215 C 
ATOM      3  O   UNL     1      -0.949   1.911  -0.227  0.00  0.00    -0.276 OA
ATOM      4  H   UNL     1       2.131   1.725  -0.310  0.00  0.00    +0.149 HD
ENDROOT
BRANCH   1   5
ATOM      5  C   UNL     1       1.152   3.591  -0.049  0.00  0.00    +0.094 C 
BRANCH   5   6
ATOM      6  C   UNL     1       2.551   4.186   0.126  0.00  0.00    -0.013 C 
BRANCH   6  13
ATOM      7  C   UNL     1       5.116   2.402   4.913  0.00  0.00    +0.007 C 
ATOM      8  C   UNL     1       4.400   3.261   3.869  0.00  0.00    -0.018 C 
ATOM      9  C   UNL     1       3.055   2.621   3.513  0.00  0.00    -0.015 C 
ATOM     10  C   UNL     1       2.371   3.452   2.426  0.00  0.00    -0.078 C 
ATOM     11  C   UNL     1       4.512   4.167   1.544  0.00  0.00    -0.078 C 
ATOM     12  C   UNL     1       5.261   3.357   2.606  0.00  0.00    -0.015 C 
ATOM     13  N   UNL     1       3.239   3.485   1.229  0.00  0.00    +0.386 N 
ATOM     14  H   UNL     1       3.441   2.522   0.938  0.00  0.00    -0.081 HD
ENDBRANCH   6  13
BRANCH   6  15
ATOM     15  C   UNL     1       2.437   5.659   0.424  0.00  0.00    -0.022 A 
ATOM     16  C   UNL     1       2.592   6.714  -0.413  0.00  0.00    +0.009 A 
ATOM     17  C   UNL     1       2.438   7.994   0.085  0.00  0.00    +0.008 A 
ATOM     18  C   UNL     1       2.135   8.156   1.396  0.00  0.00    +0.045 A 
ATOM     19  S   UNL     1       2.053   6.467   1.969  0.00  0.00    -0.103 S 
ENDBRANCH   6  15
ENDBRANCH   5   6
ENDBRANCH   1   5
BRANCH   2  20
ATOM     20  C   UNL     1       0.251  -0.101  -0.506  0.00  0.00    +0.119 C 
BRANCH  20  21
ATOM     21  C   UNL     1      -1.150  -0.713  -0.556  0.00  0.00    +0.146 C 
ATOM     22  C   UNL     1      -1.045  -2.213  -0.653  0.00  0.00    +0.231 C 
ATOM     23  O   UNL     1      -1.170  -2.867   0.360  0.00  0.00    -0.274 OA
ATOM     24  N   UNL     1      -0.823  -2.853  -1.796  0.00  0.00    -0.284 N 
ATOM     25  C   UNL     1      -0.768  -2.289  -3.067  0.00  0.00    +0.048 A 
ATOM     26  C   UNL     1      -0.182  -3.009  -4.104  0.00  0.00    +0.044 A 
ATOM     27  C   UNL     1      -0.106  -2.466  -5.373  0.00  0.00    +0.043 A 
ATOM     28  C   UNL     1      -0.611  -1.202  -5.626  0.00  0.00    +0.021 A 
ATOM     29  C   UNL     1      -1.198  -0.478  -4.605  0.00  0.00    +0.018 A 
ATOM     30  C   UNL     1      -1.278  -1.019  -3.332  0.00  0.00    +0.030 A 
ATOM     31  S   UNL     1      -2.032  -0.101  -2.025  0.00  0.00    -0.110 S 
ATOM     32 CL   UNL     1       0.628  -3.374  -6.657  0.00  0.00    -0.083 Cl
ATOM     33  H   UNL     1      -0.685  -3.812  -1.739  0.00  0.00    +0.155 HD
ENDBRANCH  20  21
ENDBRANCH   2  20
TORSDOF 6
