REMARK  Name = ZINC35257509
REMARK  4 active torsions:
REMARK  status: ('A' for Active; 'I' for Inactive)
REMARK    1  A    between atoms: C_5  and  C_8
REMARK    2  A    between atoms: C_8  and  N_9
REMARK    3  A    between atoms: N_9  and  C_10
REMARK    4  A    between atoms: C_15  and  C_18
REMARK                            x       y       z     vdW  Elec       q    Type
REMARK                         _______ _______ _______ _____ _____    ______ ____
ROOT
ATOM      1  N   UNL     1       1.250  -2.684   1.360  0.00  0.00    +0.384 N 
ATOM      2  H   UNL     1       2.074  -2.339   1.829  0.00  0.00    -0.085 HD
ATOM      3  H   UNL     1       0.427  -2.362   1.846  0.00  0.00    -0.085 HD
ENDROOT
BRANCH   1   4
ATOM      4  C   UNL     1       1.270  -4.153   1.351  0.00  0.00    -0.071 C 
ATOM      5  C   UNL     1       2.578  -4.642   0.726  0.00  0.00    -0.016 C 
ATOM      6  C   UNL     1       2.599  -6.172   0.717  0.00  0.00    -0.001 C 
ATOM      7  C   UNL     1       2.494  -6.691   2.152  0.00  0.00    +0.012 C 
ATOM      8  C   UNL     1       1.186  -6.203   2.778  0.00  0.00    +0.092 C 
ATOM      9  C   UNL     1       1.166  -4.673   2.787  0.00  0.00    -0.004 C 
BRANCH   8  10
ATOM     10  C   UNL     1       1.082  -6.723   4.213  0.00  0.00    +0.393 C 
ATOM     11  F   UNL     1       2.164  -6.246   4.961  0.00  0.00    -0.170 F 
ATOM     12  F   UNL     1      -0.114  -6.276   4.785  0.00  0.00    -0.170 F 
ATOM     13  F   UNL     1       1.101  -8.121   4.205  0.00  0.00    -0.170 F 
ENDBRANCH   8  10
ENDBRANCH   1   4
BRANCH   1  14
ATOM     14  C   UNL     1       1.230  -2.187  -0.022  0.00  0.00    -0.043 C 
BRANCH  14  19
ATOM     15  C   UNL     1      -0.017   1.379   0.010  0.00  0.00    +0.022 A 
ATOM     16  C   UNL     1       1.171   2.087   0.002  0.00  0.00    +0.023 A 
ATOM     17  C   UNL     1       2.378   1.413  -0.013  0.00  0.00    +0.060 A 
ATOM     18  C   UNL     1       2.397   0.028  -0.021  0.00  0.00    +0.062 A 
ATOM     19  C   UNL     1       1.209  -0.680  -0.013  0.00  0.00    -0.026 A 
ATOM     20  C   UNL     1       0.002  -0.004   0.002  0.00  0.00    +0.044 A 
ATOM     21 CL   UNL     1      -1.490  -0.892   0.012  0.00  0.00    -0.083 Cl
ATOM     22 CL   UNL     1       3.913  -0.819  -0.041  0.00  0.00    -0.082 Cl
ATOM     23 CL   UNL     1       3.869   2.302  -0.024  0.00  0.00    -0.082 Cl
ENDBRANCH  14  19
ENDBRANCH   1  14
TORSDOF 4
