REMARK  Name = ZINC31781097
REMARK  7 active torsions:
REMARK  status: ('A' for Active; 'I' for Inactive)
REMARK    1  A    between atoms: C_1  and  C_2
REMARK    2  A    between atoms: C_2  and  O_3
REMARK    3  A    between atoms: O_3  and  C_4
REMARK    4  A    between atoms: C_4  and  C_6
REMARK    5  A    between atoms: C_7  and  C_21
REMARK    6  A    between atoms: C_12  and  C_14
REMARK    7  A    between atoms: C_21  and  N_22
REMARK                            x       y       z     vdW  Elec       q    Type
REMARK                         _______ _______ _______ _____ _____    ______ ____
ROOT
ATOM      1  C   UNL     1      -2.795  -2.411   0.132  0.00  0.00    +0.080 C 
ATOM      2  C   UNL     1      -2.985  -3.731  -0.085  0.00  0.00    +0.044 C 
ATOM      3  N   UNL     1      -4.241  -4.254  -0.192  0.00  0.00    -0.271 N 
ATOM      4  C   UNL     1      -5.360  -3.525  -0.095  0.00  0.00    +0.304 C 
ATOM      5  O   UNL     1      -6.435  -4.081  -0.205  0.00  0.00    -0.252 OA
ATOM      6  N   UNL     1      -5.333  -2.195   0.120  0.00  0.00    -0.288 N 
ATOM      7  C   UNL     1      -4.024  -1.534   0.257  0.00  0.00    +0.144 C 
ATOM      8  H   UNL     1      -4.328  -5.208  -0.347  0.00  0.00    +0.156 HD
ATOM      9  H   UNL     1      -6.156  -1.686   0.186  0.00  0.00    +0.151 HD
ENDROOT
BRANCH   7  10
ATOM     10  C   UNL     1      -3.978  -0.859   1.603  0.00  0.00    -0.022 A 
ATOM     11  C   UNL     1      -4.368  -1.549   2.736  0.00  0.00    +0.007 A 
ATOM     12  C   UNL     1      -4.326  -0.930   3.971  0.00  0.00    +0.020 A 
ATOM     13  C   UNL     1      -3.894   0.380   4.074  0.00  0.00    +0.041 A 
ATOM     14  C   UNL     1      -3.504   1.070   2.940  0.00  0.00    +0.020 A 
ATOM     15  C   UNL     1      -3.541   0.449   1.706  0.00  0.00    +0.007 A 
ATOM     16 CL   UNL     1      -3.841   1.158   5.625  0.00  0.00    -0.084 Cl
ENDBRANCH   7  10
BRANCH   1  17
ATOM     17  C   UNL     1      -1.494  -1.868   0.244  0.00  0.00    +0.339 C 
ATOM     18  O   UNL     1      -1.024  -1.636   1.342  0.00  0.00    -0.245 OA
BRANCH  17  19
ATOM     19  O   UNL     1      -0.775  -1.605  -0.867  0.00  0.00    -0.462 OA
BRANCH  19  21
ATOM     20  C   UNL     1       1.189  -0.829  -2.042  0.00  0.00    +0.048 C 
ATOM     21  C   UNL     1       0.532  -1.057  -0.680  0.00  0.00    +0.229 C 
ENDBRANCH  19  21
ENDBRANCH  17  19
ENDBRANCH   1  17
BRANCH   2  22
ATOM     22  C   UNL     1      -1.789  -4.640  -0.210  0.00  0.00    +0.177 C 
BRANCH  22  23
ATOM     23  N   UNL     1      -1.771  -5.580   0.914  0.00  0.00    -0.293 N 
ATOM     24  C   UNL     1      -1.120  -5.246   2.059  0.00  0.00    +0.203 A 
ATOM     25  N   UNL     1      -1.058  -6.023   3.098  0.00  0.00    -0.237 NA
ATOM     26  C   UNL     1      -1.650  -7.243   3.108  0.00  0.00    +0.081 A 
ATOM     27  C   UNL     1      -1.585  -8.080   4.223  0.00  0.00    +0.067 A 
ATOM     28  C   UNL     1      -2.204  -9.313   4.185  0.00  0.00    +0.125 A 
ATOM     29  C   UNL     1      -2.891  -9.729   3.049  0.00  0.00    +0.039 A 
ATOM     30  C   UNL     1      -2.967  -8.926   1.946  0.00  0.00    +0.018 A 
ATOM     31  C   UNL     1      -2.351  -7.676   1.959  0.00  0.00    +0.065 A 
ATOM     32  C   UNL     1      -2.406  -6.769   0.804  0.00  0.00    +0.262 A 
ATOM     33  O   UNL     1      -2.997  -7.079  -0.215  0.00  0.00    -0.267 OA
ATOM     34  F   UNL     1      -2.143 -10.124   5.263  0.00  0.00    -0.205 F 
ENDBRANCH  22  23
ENDBRANCH   2  22
TORSDOF 6
