REMARK  Name = ZINC23327116
REMARK  9 active torsions:
REMARK  status: ('A' for Active; 'I' for Inactive)
REMARK    1  A    between atoms: C_1  and  C_2
REMARK    2  A    between atoms: C_2  and  C_4
REMARK    3  A    between atoms: C_2  and  N_14
REMARK    4  A    between atoms: C_15  and  C_17
REMARK    5  A    between atoms: C_17  and  O_18
REMARK    6  A    between atoms: O_18  and  C_19
REMARK    7  A    between atoms: C_19  and  C_21
REMARK    8  A    between atoms: C_30  and  N_33
REMARK    9  A    between atoms: C_34  and  C_36
REMARK                            x       y       z     vdW  Elec       q    Type
REMARK                         _______ _______ _______ _____ _____    ______ ____
ROOT
ATOM      1  O   UNL     1      -0.216  -1.149  -4.684  0.00  0.00    -0.455 OA
ENDROOT
BRANCH   1   2
ATOM      2  C   UNL     1       0.256  -1.565  -5.869  0.00  0.00    +0.314 C 
ATOM      3  O   UNL     1       1.419  -1.873  -5.981  0.00  0.00    -0.250 OA
BRANCH   2   4
ATOM      4  C   UNL     1      -0.664  -1.649  -7.060  0.00  0.00    +0.070 C 
ATOM      5  C   UNL     1      -1.805  -2.621  -6.755  0.00  0.00    +0.021 C 
ATOM      6  C   UNL     1      -2.739  -2.705  -7.964  0.00  0.00    -0.008 C 
ATOM      7  C   UNL     1      -3.315  -1.319  -8.262  0.00  0.00    +0.007 C 
ATOM      8  C   UNL     1      -2.174  -0.347  -8.566  0.00  0.00    -0.008 C 
ATOM      9  C   UNL     1      -1.240  -0.263  -7.358  0.00  0.00    +0.021 C 
ATOM     10  C   UNL     1      -1.390  -0.846  -9.782  0.00  0.00    +0.029 C 
ATOM     11  C   UNL     1      -0.814  -2.232  -9.485  0.00  0.00    +0.036 C 
ATOM     12  C   UNL     1      -1.956  -3.204  -9.180  0.00  0.00    +0.029 C 
ATOM     13  C   UNL     1       0.120  -2.147  -8.276  0.00  0.00    +0.043 C 
BRANCH  11  14
ATOM     14  N   UNL     1      -0.064  -2.709 -10.649  0.00  0.00    -0.310 N 
ATOM     15  C   UNL     1      -0.686  -2.863 -11.835  0.00  0.00    +0.210 C 
ATOM     16  O   UNL     1      -1.867  -2.606 -11.938  0.00  0.00    -0.276 OA
ATOM     17  C   UNL     1       0.086  -3.354 -13.032  0.00  0.00    +0.109 C 
ATOM     18  H   UNL     1       0.881  -2.915 -10.566  0.00  0.00    +0.149 HD
ENDBRANCH  11  14
ENDBRANCH   2   4
ENDBRANCH   1   2
BRANCH   1  19
ATOM     19  C   UNL     1       0.712  -1.094  -3.598  0.00  0.00    +0.327 C 
BRANCH  19  21
ATOM     20  N   UNL     1       0.688  -0.476  -1.203  0.00  0.00    -0.306 N 
ATOM     21  C   UNL     1       0.006  -0.608  -2.358  0.00  0.00    +0.251 C 
ATOM     22  O   UNL     1      -1.175  -0.336  -2.400  0.00  0.00    -0.272 OA
ATOM     23  H   UNL     1       1.632  -0.695  -1.170  0.00  0.00    +0.149 HD
BRANCH  20  25
ATOM     24  C   UNL     1      -0.019   1.526   0.010  0.00  0.00    +0.033 C 
ATOM     25  C   UNL     1       0.002  -0.004   0.002  0.00  0.00    +0.100 C 
BRANCH  25  26
ATOM     26  C   UNL     1       0.731  -0.503   1.223  0.00  0.00    -0.027 A 
ATOM     27  C   UNL     1       2.113  -0.515   1.249  0.00  0.00    +0.006 A 
ATOM     28  C   UNL     1       2.773  -0.976   2.369  0.00  0.00    +0.004 A 
ATOM     29  C   UNL     1       2.060  -1.428   3.472  0.00  0.00    -0.044 A 
ATOM     30  C   UNL     1       0.684  -1.412   3.448  0.00  0.00    -0.044 A 
ATOM     31  C   UNL     1       0.021  -0.945   2.320  0.00  0.00    +0.009 A 
ATOM     32  C   UNL     1      -0.153  -1.871   4.613  0.00  0.00    +0.035 C 
ATOM     33  C   UNL     1       0.678  -2.727   5.568  0.00  0.00    +0.005 C 
ATOM     34  C   UNL     1       1.964  -1.964   5.906  0.00  0.00    +0.005 C 
ATOM     35  C   UNL     1       2.845  -1.925   4.659  0.00  0.00    +0.035 C 
ENDBRANCH  25  26
ENDBRANCH  20  25
ENDBRANCH  19  21
ENDBRANCH   1  19
TORSDOF 7
