REMARK  Name = ZINC35997688
REMARK  6 active torsions:
REMARK  status: ('A' for Active; 'I' for Inactive)
REMARK    1  A    between atoms: C_1  and  C_2
REMARK    2  A    between atoms: C_2  and  C_3
REMARK    3  A    between atoms: C_9  and  C_11
REMARK    4  A    between atoms: C_11  and  C_13
REMARK    5  A    between atoms: C_11  and  N_21
REMARK    6  A    between atoms: C_25  and  C_28
REMARK                            x       y       z     vdW  Elec       q    Type
REMARK                         _______ _______ _______ _____ _____    ______ ____
ROOT
ATOM      1  C   UNL     1       4.172  -2.393  -5.702  0.00  0.00    +0.006 C 
ENDROOT
BRANCH   1   8
ATOM      2  C   UNL     1       0.707  -0.490  -1.238  0.00  0.00    +0.152 A 
ATOM      3  N   UNL     1       0.124  -0.743  -2.408  0.00  0.00    -0.205 NA
ATOM      4  C   UNL     1       1.025  -1.146  -3.261  0.00  0.00    +0.199 A 
ATOM      5  N   UNL     1       2.247  -1.167  -2.660  0.00  0.00    -0.170 N 
ATOM      6  N   UNL     1       1.988  -0.724  -1.336  0.00  0.00    -0.146 NA
ATOM      7  C   UNL     1       3.316  -1.572  -3.422  0.00  0.00    +0.282 A 
ATOM      8  C   UNL     1       3.147  -1.926  -4.701  0.00  0.00    +0.050 A 
ATOM      9  S   UNL     1       1.388  -1.698  -4.910  0.00  0.00    -0.050 S 
ATOM     10  O   UNL     1       4.559  -1.612  -2.870  0.00  0.00    -0.265 OA
BRANCH   2  12
ATOM     11  C   UNL     1      -0.019   1.526   0.010  0.00  0.00    +0.012 C 
ATOM     12  C   UNL     1       0.002  -0.004   0.002  0.00  0.00    +0.075 C 
ENDBRANCH   2  12
ENDBRANCH   1   8
BRANCH   1  13
ATOM     13  C   UNL     1       4.283  -1.383  -6.815  0.00  0.00    -0.055 A 
ATOM     14  C   UNL     1       3.343  -1.365  -7.829  0.00  0.00    +0.004 A 
ATOM     15  C   UNL     1       3.444  -0.440  -8.851  0.00  0.00    +0.021 A 
ATOM     16  C   UNL     1       4.486   0.470  -8.859  0.00  0.00    +0.059 A 
ATOM     17  C   UNL     1       5.427   0.453  -7.844  0.00  0.00    +0.059 A 
ATOM     18  C   UNL     1       5.321  -0.470  -6.819  0.00  0.00    +0.023 A 
ATOM     19 CL   UNL     1       6.735   1.594  -7.853  0.00  0.00    -0.082 Cl
ATOM     20 CL   UNL     1       4.613   1.632 -10.142  0.00  0.00    -0.082 Cl
ENDBRANCH   1  13
BRANCH   1  21
ATOM     21  N   UNL     1       3.760  -3.689  -6.257  0.00  0.00    +0.388 N 
ATOM     22  C   UNL     1       3.643  -4.669  -5.171  0.00  0.00    -0.077 C 
ATOM     23  C   UNL     1       3.136  -6.000  -5.731  0.00  0.00    -0.018 C 
ATOM     24  C   UNL     1       4.124  -6.514  -6.782  0.00  0.00    -0.001 C 
ATOM     25  C   UNL     1       4.295  -5.452  -7.872  0.00  0.00    -0.031 C 
ATOM     26  C   UNL     1       4.759  -4.142  -7.232  0.00  0.00    -0.074 C 
ATOM     27  C   UNL     1       5.338  -5.924  -8.887  0.00  0.00    +0.005 C 
ATOM     28  H   UNL     1       2.866  -3.589  -6.714  0.00  0.00    -0.080 HD
ENDBRANCH   1  21
TORSDOF 4
