REMARK  Name = ZINC14666675
REMARK  9 active torsions:
REMARK  status: ('A' for Active; 'I' for Inactive)
REMARK    1  A    between atoms: C_1  and  C_2
REMARK    2  A    between atoms: C_2  and  C_3
REMARK    3  A    between atoms: C_2  and  C_4
REMARK    4  A    between atoms: C_2  and  C_5
REMARK    5  A    between atoms: C_10  and  O_11
REMARK    6  A    between atoms: O_11  and  C_12
REMARK    7  A    between atoms: C_12  and  C_13
REMARK    8  A    between atoms: N_15  and  N_16
REMARK    9  A    between atoms: C_17  and  C_19
REMARK                            x       y       z     vdW  Elec       q    Type
REMARK                         _______ _______ _______ _____ _____    ______ ____
ROOT
ATOM      1  C   UNL     1      -2.545   4.034   0.036  0.00  0.00    +0.267 C 
ATOM      2  O   UNL     1      -3.497   3.283   0.036  0.00  0.00    -0.271 OA
ATOM      3  N   UNL     1      -2.738   5.367   0.044  0.00  0.00    -0.231 N 
ATOM      4  H   UNL     1      -1.977   5.968   0.044  0.00  0.00    +0.173 HD
ENDROOT
BRANCH   3   5
ATOM      5  N   UNL     1      -4.040   5.887   0.053  0.00  0.00    -0.230 N 
ATOM      6  C   UNL     1      -4.233   7.220   0.061  0.00  0.00    +0.261 C 
ATOM      7  O   UNL     1      -3.279   7.973   0.061  0.00  0.00    -0.269 OA
ATOM      8  H   UNL     1      -4.801   5.286   0.054  0.00  0.00    +0.173 HD
BRANCH   6   9
ATOM      9  C   UNL     1      -5.606   7.768   0.071  0.00  0.00    +0.051 A 
ATOM     10  C   UNL     1      -6.705   6.907   0.066  0.00  0.00    +0.014 A 
ATOM     11  C   UNL     1      -7.983   7.424   0.080  0.00  0.00    +0.001 A 
ATOM     12  C   UNL     1      -8.178   8.794   0.089  0.00  0.00    +0.001 A 
ATOM     13  C   UNL     1      -7.095   9.654   0.088  0.00  0.00    +0.015 A 
ATOM     14  C   UNL     1      -5.810   9.149   0.079  0.00  0.00    +0.026 A 
ATOM     15  I   UNL     1      -4.170  10.453   0.078  0.00  0.00    -0.043 I 
ENDBRANCH   6   9
ENDBRANCH   3   5
BRANCH   1  16
ATOM     16  C   UNL     1      -1.145   3.475   0.026  0.00  0.00    +0.326 C 
BRANCH  16  17
ATOM     17  O   UNL     1      -1.202   2.047   0.019  0.00  0.00    -0.482 OA
BRANCH  17  23
ATOM     18  C   UNL     1       0.002  -0.004   0.002  0.00  0.00    -0.000 A 
ATOM     19  C   UNL     1       1.208  -0.677  -0.013  0.00  0.00    +0.008 A 
ATOM     20  C   UNL     1       2.396   0.030  -0.021  0.00  0.00    +0.001 A 
ATOM     21  C   UNL     1       2.380   1.413  -0.013  0.00  0.00    +0.004 A 
ATOM     22  C   UNL     1       1.177   2.091   0.002  0.00  0.00    +0.046 A 
ATOM     23  C   UNL     1      -0.017   1.383   0.010  0.00  0.00    +0.125 A 
BRANCH  18  25
ATOM     24  C   UNL     1      -0.992  -2.276  -0.001  0.00  0.00    +0.015 C 
ATOM     25  C   UNL     1      -1.292  -0.776   0.010  0.00  0.00    -0.009 C 
ATOM     26  C   UNL     1      -2.088  -0.424   1.268  0.00  0.00    +0.015 C 
ATOM     27  C   UNL     1      -2.111  -0.411  -1.230  0.00  0.00    +0.015 C 
ENDBRANCH  18  25
ENDBRANCH  17  23
ENDBRANCH  16  17
ENDBRANCH   1  16
TORSDOF 6
