REMARK  Name = ZINC39923308
REMARK  9 active torsions:
REMARK  status: ('A' for Active; 'I' for Inactive)
REMARK    1  A    between atoms: C_1  and  C_2
REMARK    2  A    between atoms: C_2  and  N_3
REMARK    3  A    between atoms: C_4  and  C_26
REMARK    4  A    between atoms: C_8  and  S_10
REMARK    5  A    between atoms: S_10  and  C_11
REMARK    6  A    between atoms: C_11  and  C_12
REMARK    7  A    between atoms: N_14  and  N_15
REMARK    8  A    between atoms: C_16  and  C_17
REMARK    9  A    between atoms: C_29  and  C_32
REMARK                            x       y       z     vdW  Elec       q    Type
REMARK                         _______ _______ _______ _____ _____    ______ ____
ROOT
ATOM      1  S   UNL     1       3.013   1.609   1.435  0.00  0.00    -0.150 S 
ENDROOT
BRANCH   1   6
ATOM      2  N   UNL     1       0.908   0.351   0.295  0.00  0.00    +0.410 N 
ATOM      3  C   UNL     1       0.648  -1.084   0.550  0.00  0.00    +0.049 C 
ATOM      4  N   UNL     1       1.840  -1.776  -0.006  0.00  0.00    -0.267 NA
ATOM      5  N   UNL     1       2.943  -0.864   0.337  0.00  0.00    -0.262 NA
ATOM      6  C   UNL     1       2.373   0.490   0.158  0.00  0.00    +0.077 C 
ATOM      7  H   UNL     1       1.761  -1.887  -1.006  0.00  0.00    +0.139 HD
ATOM      8  H   UNL     1       3.734  -1.007  -0.273  0.00  0.00    +0.140 HD
ATOM      9  H   UNL     1       0.578   0.907   1.070  0.00  0.00    -0.075 HD
BRANCH   3  10
ATOM     10  C   UNL     1      -0.603  -1.528  -0.164  0.00  0.00    -0.046 A 
ATOM     11  C   UNL     1      -0.578  -1.754  -1.527  0.00  0.00    +0.003 A 
ATOM     12  C   UNL     1      -1.726  -2.161  -2.182  0.00  0.00    +0.003 A 
ATOM     13  C   UNL     1      -2.898  -2.344  -1.472  0.00  0.00    -0.050 A 
ATOM     14  C   UNL     1      -2.923  -2.120  -0.108  0.00  0.00    +0.003 A 
ATOM     15  C   UNL     1      -1.774  -1.716   0.547  0.00  0.00    +0.003 A 
ATOM     16  C   UNL     1      -4.149  -2.787  -2.186  0.00  0.00    +0.044 C 
ENDBRANCH   3  10
BRANCH   2  18
ATOM     17  C   UNL     1       0.499   2.261  -1.183  0.00  0.00    -0.017 C 
ATOM     18  C   UNL     1       0.244   0.771  -0.946  0.00  0.00    -0.076 C 
ENDBRANCH   2  18
ENDBRANCH   1   6
BRANCH   1  19
ATOM     19  C   UNL     1       2.553   0.804   2.994  0.00  0.00    +0.166 C 
BRANCH  19  20
ATOM     20  C   UNL     1       3.032   1.641   4.152  0.00  0.00    +0.242 C 
ATOM     21  O   UNL     1       3.626   2.678   3.945  0.00  0.00    -0.273 OA
ATOM     22  N   UNL     1       2.801   1.237   5.417  0.00  0.00    -0.206 N 
ATOM     23  H   UNL     1       2.326   0.407   5.582  0.00  0.00    +0.177 HD
BRANCH  22  24
ATOM     24  N   UNL     1       3.247   2.015   6.493  0.00  0.00    -0.188 NA
ATOM     25  C   UNL     1       2.921   1.686   7.718  0.00  0.00    +0.136 C 
BRANCH  25  26
ATOM     26  C   UNL     1       1.994   0.659   7.945  0.00  0.00    +0.000 C 
ATOM     27  C   UNL     1       1.428   0.290   9.163  0.00  0.00    +0.004 A 
ATOM     28  C   UNL     1       1.584   0.784  10.477  0.00  0.00    +0.010 A 
ATOM     29  C   UNL     1       0.890   0.218  11.495  0.00  0.00    +0.001 A 
ATOM     30  C   UNL     1       0.015  -0.852  11.281  0.00  0.00    +0.002 A 
ATOM     31  C   UNL     1      -0.184  -1.377  10.048  0.00  0.00    +0.026 A 
ATOM     32  C   UNL     1       0.507  -0.837   8.931  0.00  0.00    +0.043 A 
ATOM     33  N   UNL     1       0.489  -1.162   7.655  0.00  0.00    -0.380 N 
ATOM     34  C   UNL     1       1.393  -0.274   6.917  0.00  0.00    +0.150 C 
ATOM     35  H   UNL     1      -0.042  -1.874   7.265  0.00  0.00    +0.160 HD
ENDBRANCH  25  26
ENDBRANCH  22  24
ENDBRANCH  19  20
ENDBRANCH   1  19
TORSDOF 7
