REMARK  Name = ZINC26960793
REMARK  9 active torsions:
REMARK  status: ('A' for Active; 'I' for Inactive)
REMARK    1  A    between atoms: C_4  and  C_7
REMARK    2  A    between atoms: C_7  and  C_8
REMARK    3  A    between atoms: C_8  and  C_10
REMARK    4  A    between atoms: C_8  and  S_30
REMARK    5  A    between atoms: C_13  and  C_16
REMARK    6  A    between atoms: N_18  and  N_19
REMARK    7  A    between atoms: C_20  and  C_21
REMARK    8  A    between atoms: C_24  and  N_27
REMARK    9  A    between atoms: S_30  and  C_33
REMARK                            x       y       z     vdW  Elec       q    Type
REMARK                         _______ _______ _______ _____ _____    ______ ____
ROOT
ATOM      1  C   UNL     1       4.490   5.034  -2.168  0.00  0.00    -0.023 A 
ATOM      2  C   UNL     1       4.797   6.159  -1.424  0.00  0.00    +0.006 A 
ATOM      3  C   UNL     1       6.021   6.777  -1.575  0.00  0.00    +0.013 A 
ATOM      4  C   UNL     1       6.948   6.269  -2.488  0.00  0.00    +0.038 A 
ATOM      5  C   UNL     1       6.630   5.136  -3.239  0.00  0.00    +0.013 A 
ATOM      6  C   UNL     1       5.404   4.525  -3.074  0.00  0.00    +0.006 A 
ENDROOT
BRANCH   4   7
ATOM      7  C   UNL     1       8.259   6.928  -2.658  0.00  0.00    +0.263 C 
ATOM      8  O   UNL     1       9.065   6.483  -3.453  0.00  0.00    -0.268 OA
ATOM      9  N   UNL     1       8.564   8.022  -1.932  0.00  0.00    -0.203 N 
ATOM     10  H   UNL     1       7.835   8.424  -1.212  0.00  0.00    +0.178 HD
BRANCH   9  11
ATOM     11  N   UNL     1       9.807   8.646  -2.093  0.00  0.00    -0.187 NA
ATOM     12  C   UNL     1      10.100   9.700  -1.393  0.00  0.00    +0.138 C 
BRANCH  12  13
ATOM     13  C   UNL     1      11.409  10.357  -1.563  0.00  0.00    -0.005 A 
ATOM     14  C   UNL     1      12.338   9.846  -2.472  0.00  0.00    +0.012 A 
ATOM     15  C   UNL     1      13.559  10.469  -2.629  0.00  0.00    +0.033 A 
ATOM     16  C   UNL     1      13.868  11.592  -1.882  0.00  0.00    +0.126 A 
ATOM     17  C   UNL     1      12.954  12.101  -0.976  0.00  0.00    +0.033 A 
ATOM     18  C   UNL     1      11.727  11.491  -0.812  0.00  0.00    +0.012 A 
BRANCH  16  19
ATOM     19  N   UNL     1      15.182  12.251  -2.052  0.00  0.00    +0.056 N 
ATOM     20  O   UNL     1      15.457  13.240  -1.396  0.00  0.00    -0.126 OA
ATOM     21  O   UNL     1      15.988  11.806  -2.849  0.00  0.00    -0.126 OA
ENDBRANCH  16  19
ENDBRANCH  12  13
ENDBRANCH   9  11
ENDBRANCH   4   7
BRANCH   1  22
ATOM     22  C   UNL     1       3.152   4.362  -1.994  0.00  0.00    +0.170 C 
BRANCH  22  23
ATOM     23  S   UNL     1       2.971   3.810  -0.276  0.00  0.00    +0.004 S 
ATOM     24  O   UNL     1       1.860   2.932  -0.158  0.00  0.00    -0.169 OA
ATOM     25  O   UNL     1       3.122   4.911   0.610  0.00  0.00    -0.169 OA
BRANCH  23  26
ATOM     26  C   UNL     1       4.380   2.795   0.025  0.00  0.00    +0.089 A 
ATOM     27  C   UNL     1       5.502   3.332   0.628  0.00  0.00    +0.027 A 
ATOM     28  C   UNL     1       6.608   2.536   0.864  0.00  0.00    +0.002 A 
ATOM     29  C   UNL     1       6.593   1.205   0.492  0.00  0.00    +0.000 A 
ATOM     30  C   UNL     1       5.469   0.667  -0.107  0.00  0.00    +0.002 A 
ATOM     31  C   UNL     1       4.363   1.463  -0.342  0.00  0.00    +0.027 A 
ENDBRANCH  23  26
ENDBRANCH  22  23
BRANCH  22  32
ATOM     32  C   UNL     1       2.036   5.352  -2.332  0.00  0.00    +0.066 C 
BRANCH  32  36
ATOM     33  C   UNL     1      -1.730   3.339  -2.245  0.00  0.00    +0.000 A 
ATOM     34  C   UNL     1      -1.299   4.046  -1.139  0.00  0.00    +0.000 A 
ATOM     35  C   UNL     1      -0.080   4.698  -1.167  0.00  0.00    +0.004 A 
ATOM     36  C   UNL     1       0.708   4.641  -2.301  0.00  0.00    -0.045 A 
ATOM     37  C   UNL     1       0.274   3.938  -3.409  0.00  0.00    +0.004 A 
ATOM     38  C   UNL     1      -0.942   3.282  -3.380  0.00  0.00    +0.000 A 
ENDBRANCH  32  36
ENDBRANCH  22  32
ENDBRANCH   1  22
TORSDOF 9
