REMARK  Name = ZINC10475407
REMARK  12 active torsions:
REMARK  status: ('A' for Active; 'I' for Inactive)
REMARK    1  A    between atoms: C_1  and  C_2
REMARK    2  A    between atoms: C_2  and  O_3
REMARK    3  A    between atoms: O_3  and  C_4
REMARK    4  A    between atoms: C_5  and  C_13
REMARK    5  A    between atoms: C_9  and  O_10
REMARK    6  A    between atoms: O_10  and  C_11
REMARK    7  A    between atoms: C_13  and  N_49
REMARK    8  A    between atoms: C_14  and  C_15
REMARK    9  A    between atoms: C_14  and  N_49
REMARK   10  A    between atoms: C_15  and  S_16
REMARK   11  A    between atoms: S_16  and  C_17
REMARK   12  A    between atoms: N_21  and  C_22
REMARK                            x       y       z     vdW  Elec       q    Type
REMARK                         _______ _______ _______ _____ _____    ______ ____
ROOT
ATOM      1  N   UNL     1      -0.953  -1.675   1.290  0.00  0.00    +0.382 N 
ATOM      2  H   UNL     1      -0.225  -2.261   1.716  0.00  0.00    -0.085 HD
ATOM      3  H   UNL     1      -0.526  -1.054   0.593  0.00  0.00    -0.085 HD
ENDROOT
BRANCH   1   4
ATOM      4  C   UNL     1      -1.598  -0.862   2.337  0.00  0.00    -0.043 C 
BRANCH   4   6
ATOM      5  C   UNL     1      -0.148   1.182   2.381  0.00  0.00    +0.163 A 
ATOM      6  C   UNL     1      -0.559   0.010   2.995  0.00  0.00    -0.018 A 
ATOM      7  C   UNL     1      -0.014  -0.362   4.210  0.00  0.00    +0.020 A 
ATOM      8  C   UNL     1       0.936   0.439   4.819  0.00  0.00    +0.022 A 
ATOM      9  C   UNL     1       1.347   1.612   4.212  0.00  0.00    +0.064 A 
ATOM     10  C   UNL     1       0.807   1.988   2.993  0.00  0.00    +0.163 A 
ATOM     11 BR   UNL     1       1.675  -0.072   6.483  0.00  0.00    -0.050 Br
BRANCH  10  12
ATOM     12  O   UNL     1       1.210   3.141   2.395  0.00  0.00    -0.491 OA
ATOM     13  C   UNL     1       2.193   3.918   3.081  0.00  0.00    +0.277 C 
ENDBRANCH  10  12
BRANCH   5  14
ATOM     14  O   UNL     1      -0.682   1.547   1.184  0.00  0.00    -0.488 OA
BRANCH  14  16
ATOM     15  C   UNL     1      -0.753   1.593  -1.232  0.00  0.00    +0.048 C 
ATOM     16  C   UNL     1      -0.013   1.086   0.008  0.00  0.00    +0.226 C 
ENDBRANCH  14  16
ENDBRANCH   5  14
ENDBRANCH   4   6
ENDBRANCH   1   4
BRANCH   1  17
ATOM     17  C   UNL     1      -1.947  -2.540   0.628  0.00  0.00    -0.071 C 
BRANCH  17  18
ATOM     18  C   UNL     1      -1.250  -3.371  -0.452  0.00  0.00    +0.058 C 
BRANCH  18  19
ATOM     19  S   UNL     1      -2.463  -4.436  -1.270  0.00  0.00    -0.086 S 
BRANCH  19  20
ATOM     20  C   UNL     1      -1.419  -5.254  -2.430  0.00  0.00    +0.214 A 
ATOM     21  N   UNL     1      -0.124  -5.072  -2.581  0.00  0.00    -0.101 NA
ATOM     22  N   UNL     1       0.330  -5.828  -3.514  0.00  0.00    -0.022 NA
ATOM     23  N   UNL     1      -0.619  -6.537  -4.021  0.00  0.00    -0.038 NA
ATOM     24  N   UNL     1      -1.796  -6.195  -3.332  0.00  0.00    -0.187 N 
BRANCH  24  25
ATOM     25  C   UNL     1      -3.083  -6.714  -3.533  0.00  0.00    +0.070 A 
ATOM     26  C   UNL     1      -3.939  -6.890  -2.455  0.00  0.00    +0.028 A 
ATOM     27  C   UNL     1      -5.208  -7.397  -2.658  0.00  0.00    +0.002 A 
ATOM     28  C   UNL     1      -5.622  -7.738  -3.932  0.00  0.00    +0.000 A 
ATOM     29  C   UNL     1      -4.770  -7.569  -5.008  0.00  0.00    +0.002 A 
ATOM     30  C   UNL     1      -3.501  -7.058  -4.812  0.00  0.00    +0.028 A 
ENDBRANCH  24  25
ENDBRANCH  19  20
ENDBRANCH  18  19
ENDBRANCH  17  18
ENDBRANCH   1  17
TORSDOF 10
