REMARK  Name = ZINC38556285
REMARK  8 active torsions:
REMARK  status: ('A' for Active; 'I' for Inactive)
REMARK    1  A    between atoms: C_1  and  C_2
REMARK    2  A    between atoms: C_5  and  C_8
REMARK    3  A    between atoms: C_10  and  C_14
REMARK    4  A    between atoms: C_18  and  S_22
REMARK    5  A    between atoms: N_20  and  N_21
REMARK    6  A    between atoms: S_22  and  C_23
REMARK    7  A    between atoms: C_23  and  C_24
REMARK    8  A    between atoms: C_24  and  C_26
REMARK                            x       y       z     vdW  Elec       q    Type
REMARK                         _______ _______ _______ _____ _____    ______ ____
ROOT
ATOM      1  C   UNL     1       1.300  -7.197   0.809  0.00  0.00    +0.244 C 
ATOM      2  N   UNL     1       1.464  -7.247   2.268  0.00  0.00    -0.167 NA
ATOM      3  N   UNL     1       1.198  -8.370   2.708  0.00  0.00    -0.159 NA
ATOM      4  C   UNL     1       0.805  -9.285   1.629  0.00  0.00    +0.272 C 
ATOM      5  N   UNL     1       1.262  -8.618   0.380  0.00  0.00    -0.183 NA
ENDROOT
BRANCH   1   8
ATOM      6  C   UNL     1      -0.113  -4.340  -0.223  0.00  0.00    +0.091 C 
ATOM      7  C   UNL     1       0.006  -5.051   0.914  0.00  0.00    +0.035 C 
ATOM      8  C   UNL     1      -0.010  -6.495   0.445  0.00  0.00    +0.195 C 
ATOM      9  N   UNL     1      -0.149  -6.371  -1.016  0.00  0.00    -0.176 NA
ATOM     10  N   UNL     1      -0.203  -5.171  -1.295  0.00  0.00    -0.154 NA
BRANCH   6  15
ATOM     11  C   UNL     1      -0.249   1.411  -0.505  0.00  0.00    +0.044 C 
ATOM     12  C   UNL     1      -0.214  -0.094  -0.431  0.00  0.00    -0.050 A 
ATOM     13  C   UNL     1      -0.313  -0.844  -1.590  0.00  0.00    +0.004 A 
ATOM     14  C   UNL     1      -0.281  -2.222  -1.528  0.00  0.00    +0.010 A 
ATOM     15  C   UNL     1      -0.148  -2.859  -0.296  0.00  0.00    +0.002 A 
ATOM     16  C   UNL     1      -0.048  -2.099   0.868  0.00  0.00    +0.010 A 
ATOM     17  C   UNL     1      -0.076  -0.721   0.794  0.00  0.00    +0.004 A 
ENDBRANCH   6  15
ENDBRANCH   1   8
BRANCH   5  18
ATOM     18  N   UNL     1       2.585  -9.081  -0.006  0.00  0.00    -0.263 NA
ATOM     19  H   UNL     1       2.544 -10.013  -0.390  0.00  0.00    +0.137 HD
ATOM     20  H   UNL     1       3.017  -8.441  -0.655  0.00  0.00    +0.137 HD
ENDBRANCH   5  18
BRANCH   4  21
ATOM     21  S   UNL     1       1.630 -10.889   1.829  0.00  0.00    -0.108 S 
BRANCH  21  22
ATOM     22  C   UNL     1       0.728 -11.680   3.189  0.00  0.00    +0.152 C 
BRANCH  22  23
ATOM     23  C   UNL     1       1.395 -12.984   3.542  0.00  0.00    +0.173 C 
ATOM     24  O   UNL     1       2.381 -13.345   2.936  0.00  0.00    -0.291 OA
BRANCH  23  25
ATOM     25  C   UNL     1       0.849 -13.820   4.622  0.00  0.00    +0.019 A 
ATOM     26  C   UNL     1      -0.301 -13.400   5.319  0.00  0.00    +0.012 A 
ATOM     27  C   UNL     1      -0.822 -14.155   6.318  0.00  0.00    +0.009 A 
ATOM     28  C   UNL     1      -0.215 -15.374   6.672  0.00  0.00    -0.018 A 
ATOM     29  C   UNL     1      -0.738 -16.171   7.703  0.00  0.00    +0.008 A 
ATOM     30  C   UNL     1      -0.129 -17.347   8.023  0.00  0.00    +0.001 A 
ATOM     31  C   UNL     1       1.009 -17.775   7.342  0.00  0.00    +0.001 A 
ATOM     32  C   UNL     1       1.545 -17.029   6.338  0.00  0.00    +0.008 A 
ATOM     33  C   UNL     1       0.944 -15.810   5.978  0.00  0.00    -0.017 A 
ATOM     34  C   UNL     1       1.467 -15.021   4.944  0.00  0.00    +0.020 A 
ENDBRANCH  23  25
ENDBRANCH  22  23
ENDBRANCH  21  22
ENDBRANCH   4  21
TORSDOF 7
