REMARK  Name = ZINC26957618
REMARK  13 active torsions:
REMARK  status: ('A' for Active; 'I' for Inactive)
REMARK    1  A    between atoms: C_1  and  C_2
REMARK    2  A    between atoms: C_2  and  O_3
REMARK    3  A    between atoms: O_3  and  C_4
REMARK    4  A    between atoms: C_6  and  C_16
REMARK    5  A    between atoms: C_8  and  O_13
REMARK    6  A    between atoms: C_9  and  O_10
REMARK    7  A    between atoms: O_10  and  C_11
REMARK    8  A    between atoms: C_11  and  C_12
REMARK    9  A    between atoms: O_13  and  C_14
REMARK   10  A    between atoms: C_14  and  C_15
REMARK   11  A    between atoms: N_18  and  N_19
REMARK   12  A    between atoms: C_20  and  C_22
REMARK   13  A    between atoms: C_22  and  C_23
REMARK                            x       y       z     vdW  Elec       q    Type
REMARK                         _______ _______ _______ _____ _____    ______ ____
ROOT
ATOM      1  C   UNL     1      -1.125   7.541   1.858  0.00  0.00    +0.260 C 
ATOM      2  O   UNL     1      -2.090   8.133   1.414  0.00  0.00    -0.269 OA
ATOM      3  N   UNL     1      -0.161   8.219   2.513  0.00  0.00    -0.230 N 
ATOM      4  H   UNL     1       0.711   7.683   2.915  0.00  0.00    +0.173 HD
ENDROOT
BRANCH   1   7
ATOM      5  C   UNL     1       0.200   4.030   2.030  0.00  0.00    +0.166 A 
ATOM      6  C   UNL     1       0.098   5.399   2.192  0.00  0.00    +0.062 A 
ATOM      7  C   UNL     1      -1.010   6.080   1.681  0.00  0.00    +0.045 A 
ATOM      8  C   UNL     1      -2.008   5.377   1.003  0.00  0.00    +0.062 A 
ATOM      9  C   UNL     1      -1.898   4.008   0.838  0.00  0.00    +0.166 A 
ATOM     10  C   UNL     1      -0.793   3.332   1.349  0.00  0.00    +0.204 A 
BRANCH   5  11
ATOM     11  O   UNL     1       1.275   3.365   2.532  0.00  0.00    -0.488 OA
BRANCH  11  13
ATOM     12  C   UNL     1       3.381   3.229   3.709  0.00  0.00    +0.048 C 
ATOM     13  C   UNL     1       2.256   4.144   3.220  0.00  0.00    +0.226 C 
ENDBRANCH  11  13
ENDBRANCH   5  11
BRANCH  10  14
ATOM     14  O   UNL     1      -0.688   1.987   1.186  0.00  0.00    -0.485 OA
BRANCH  14  15
ATOM     15  C   UNL     1      -0.019   1.526   0.010  0.00  0.00    +0.226 C 
ATOM     16  C   UNL     1       0.002  -0.004   0.002  0.00  0.00    +0.048 C 
ENDBRANCH  14  15
ENDBRANCH  10  14
BRANCH   9  17
ATOM     17  O   UNL     1      -2.869   3.323   0.178  0.00  0.00    -0.488 OA
BRANCH  17  18
ATOM     18  C   UNL     1      -3.974   4.081  -0.319  0.00  0.00    +0.226 C 
ATOM     19  C   UNL     1      -4.957   3.145  -1.027  0.00  0.00    +0.048 C 
ENDBRANCH  17  18
ENDBRANCH   9  17
ENDBRANCH   1   7
BRANCH   3  20
ATOM     20  N   UNL     1      -0.271   9.605   2.681  0.00  0.00    -0.234 N 
ATOM     21  C   UNL     1       0.693  10.283   3.336  0.00  0.00    +0.234 C 
ATOM     22  O   UNL     1       1.655   9.692   3.779  0.00  0.00    -0.274 OA
ATOM     23  H   UNL     1      -1.144  10.141   2.279  0.00  0.00    +0.173 HD
BRANCH  21  24
ATOM     24  C   UNL     1       0.575  11.774   3.517  0.00  0.00    +0.136 C 
BRANCH  24  25
ATOM     25  C   UNL     1       1.773  12.284   4.275  0.00  0.00    +0.007 A 
ATOM     26  C   UNL     1       1.862  12.491   5.599  0.00  0.00    +0.200 A 
ATOM     27  O   UNL     1       3.086  12.950   5.910  0.00  0.00    -0.463 OA
ATOM     28  C   UNL     1       3.851  13.065   4.805  0.00  0.00    +0.136 A 
ATOM     29  C   UNL     1       3.075  12.648   3.719  0.00  0.00    +0.031 A 
ATOM     30  C   UNL     1       3.653  12.659   2.382  0.00  0.00    -0.007 A 
ATOM     31  C   UNL     1       2.924  12.255   1.259  0.00  0.00    +0.009 A 
ATOM     32  C   UNL     1       3.510  12.282   0.027  0.00  0.00    +0.001 A 
ATOM     33  C   UNL     1       4.826  12.707  -0.128  0.00  0.00    +0.001 A 
ATOM     34  C   UNL     1       5.565  13.106   0.945  0.00  0.00    +0.008 A 
ATOM     35  C   UNL     1       4.994  13.091   2.227  0.00  0.00    -0.017 A 
ATOM     36  C   UNL     1       5.726  13.495   3.360  0.00  0.00    +0.012 A 
ATOM     37  C   UNL     1       5.169  13.487   4.596  0.00  0.00    +0.047 A 
ENDBRANCH  24  25
ENDBRANCH  21  24
ENDBRANCH   3  20
TORSDOF 10
