REMARK  Name = ZINC27791585
REMARK  10 active torsions:
REMARK  status: ('A' for Active; 'I' for Inactive)
REMARK    1  A    between atoms: C_1  and  C_2
REMARK    2  A    between atoms: C_2  and  N_3
REMARK    3  A    between atoms: N_5  and  C_25
REMARK    4  A    between atoms: C_8  and  C_11
REMARK    5  A    between atoms: C_11  and  C_12
REMARK    6  A    between atoms: N_14  and  C_15
REMARK    7  A    between atoms: C_18  and  O_23
REMARK    8  A    between atoms: C_20  and  O_21
REMARK    9  A    between atoms: O_21  and  C_22
REMARK   10  A    between atoms: O_23  and  C_24
REMARK                            x       y       z     vdW  Elec       q    Type
REMARK                         _______ _______ _______ _____ _____    ______ ____
ROOT
ATOM      1  N   UNL     1      10.430   2.090   3.418  0.00  0.00    -0.263 NA
ATOM      2  C   UNL     1       9.621   2.849   2.735  0.00  0.00    +0.159 C 
ATOM      3  N   UNL     1       9.942   3.883   1.877  0.00  0.00    -0.247 N 
ATOM      4  C   UNL     1       9.020   4.582   1.237  0.00  0.00    +0.235 C 
ATOM      5  O   UNL     1       9.306   5.489   0.485  0.00  0.00    -0.274 OA
ATOM      6  C   UNL     1       7.579   4.178   1.503  0.00  0.00    +0.149 C 
ATOM      7  S   UNL     1       7.836   2.796   2.685  0.00  0.00    -0.077 S 
ENDROOT
BRANCH   3   8
ATOM      8  C   UNL     1      11.354   4.217   1.669  0.00  0.00    +0.083 C 
ATOM      9  C   UNL     1      11.603   5.666   2.092  0.00  0.00    +0.023 C 
ATOM     10  C   UNL     1      13.106   5.898   2.257  0.00  0.00    +0.002 C 
ATOM     11  C   UNL     1      13.725   4.719   3.010  0.00  0.00    +0.000 C 
ATOM     12  C   UNL     1      14.659   3.949   2.074  0.00  0.00    +0.000 C 
ATOM     13  C   UNL     1      13.827   3.103   1.108  0.00  0.00    +0.000 C 
ATOM     14  C   UNL     1      13.225   4.005   0.028  0.00  0.00    +0.002 C 
ATOM     15  C   UNL     1      11.704   4.050   0.189  0.00  0.00    +0.023 C 
ENDBRANCH   3   8
BRANCH   1  17
ATOM     16  C   UNL     1      12.113   1.993   5.189  0.00  0.00    +0.029 C 
ATOM     17  C   UNL     1      11.736   2.602   3.837  0.00  0.00    +0.141 C 
ENDBRANCH   1  17
BRANCH   6  18
ATOM     18  C   UNL     1       6.794   5.321   2.149  0.00  0.00    +0.120 C 
BRANCH  18  19
ATOM     19  C   UNL     1       5.392   4.859   2.452  0.00  0.00    +0.219 C 
ATOM     20  O   UNL     1       5.054   3.726   2.178  0.00  0.00    -0.275 OA
ATOM     21  N   UNL     1       4.513   5.703   3.027  0.00  0.00    -0.283 N 
ATOM     22  H   UNL     1       4.788   6.755   3.192  0.00  0.00    +0.155 HD
BRANCH  21  23
ATOM     23  C   UNL     1       3.247   5.241   3.416  0.00  0.00    +0.076 A 
ATOM     24  C   UNL     1       3.051   3.894   3.683  0.00  0.00    +0.030 A 
ATOM     25  C   UNL     1       1.805   3.439   4.070  0.00  0.00    +0.047 A 
ATOM     26  C   UNL     1       0.745   4.326   4.182  0.00  0.00    +0.124 A 
ATOM     27  C   UNL     1       0.935   5.673   3.916  0.00  0.00    +0.093 A 
ATOM     28  C   UNL     1       2.184   6.133   3.533  0.00  0.00    +0.145 A 
BRANCH  28  29
ATOM     29  O   UNL     1       2.373   7.455   3.272  0.00  0.00    -0.493 OA
ATOM     30  C   UNL     1       1.238   8.312   3.413  0.00  0.00    +0.277 C 
ENDBRANCH  28  29
BRANCH  26  31
ATOM     31  O   UNL     1      -0.482   3.874   4.558  0.00  0.00    -0.495 OA
ATOM     32  C   UNL     1      -0.606   2.474   4.816  0.00  0.00    +0.277 C 
ENDBRANCH  26  31
ENDBRANCH  21  23
ENDBRANCH  18  19
ENDBRANCH   6  18
TORSDOF 7
