REMARK  Name = ZINC67461469
REMARK  8 active torsions:
REMARK  status: ('A' for Active; 'I' for Inactive)
REMARK    1  A    between atoms: C_4  and  C_7
REMARK    2  A    between atoms: C_7  and  N_8
REMARK    3  A    between atoms: C_12  and  C_14
REMARK    4  A    between atoms: C_14  and  N_15
REMARK    5  A    between atoms: N_18  and  C_19
REMARK    6  A    between atoms: C_19  and  C_20
REMARK    7  A    between atoms: N_22  and  C_23
REMARK    8  A    between atoms: C_23  and  C_24
REMARK                            x       y       z     vdW  Elec       q    Type
REMARK                         _______ _______ _______ _____ _____    ______ ____
ROOT
ATOM      1  N   UNL     1       5.888  -2.084  -1.982  0.00  0.00    -0.301 N 
ATOM      2  C   UNL     1       7.013  -2.454  -1.339  0.00  0.00    +0.300 C 
ATOM      3  O   UNL     1       7.496  -3.551  -1.540  0.00  0.00    -0.253 OA
ATOM      4  N   UNL     1       7.604  -1.606  -0.473  0.00  0.00    -0.291 N 
ATOM      5  H   UNL     1       5.503  -1.209  -1.821  0.00  0.00    +0.150 HD
ATOM      6  H   UNL     1       7.218  -0.730  -0.313  0.00  0.00    +0.151 HD
ENDROOT
BRANCH   1   7
ATOM      7  C   UNL     1       5.246  -3.006  -2.922  0.00  0.00    +0.090 C 
BRANCH   7  12
ATOM      8  N   UNL     1       3.102  -1.908  -2.422  0.00  0.00    +0.383 N 
ATOM      9  C   UNL     1       1.818  -2.629  -2.549  0.00  0.00    -0.078 C 
ATOM     10  C   UNL     1       1.734  -3.028  -4.044  0.00  0.00    -0.020 C 
ATOM     11  C   UNL     1       3.214  -3.369  -4.361  0.00  0.00    -0.016 C 
ATOM     12  C   UNL     1       3.996  -2.346  -3.510  0.00  0.00    -0.051 C 
ATOM     13  H   UNL     1       3.522  -2.122  -1.530  0.00  0.00    -0.081 HD
BRANCH   8  14
ATOM     14  C   UNL     1       2.870  -0.461  -2.526  0.00  0.00    -0.075 C 
BRANCH  14  18
ATOM     15  C   UNL     1       1.760   1.799   0.993  0.00  0.00    +0.000 C 
ATOM     16  C   UNL     1       2.123   0.323   1.169  0.00  0.00    +0.000 C 
ATOM     17  C   UNL     1       2.920  -0.155  -0.047  0.00  0.00    +0.002 C 
ATOM     18  C   UNL     1       2.073   0.016  -1.310  0.00  0.00    -0.028 C 
ATOM     19  C   UNL     1       1.711   1.492  -1.486  0.00  0.00    +0.002 C 
ATOM     20  C   UNL     1       0.914   1.970  -0.270  0.00  0.00    +0.000 C 
ENDBRANCH  14  18
ENDBRANCH   8  14
ENDBRANCH   7  12
ENDBRANCH   1   7
BRANCH   4  21
ATOM     21  C   UNL     1       8.827  -2.007   0.226  0.00  0.00    +0.201 C 
BRANCH  21  22
ATOM     22  C   UNL     1       9.280  -0.888   1.128  0.00  0.00    +0.231 C 
ATOM     23  O   UNL     1       8.644   0.143   1.182  0.00  0.00    -0.274 OA
ATOM     24  N   UNL     1      10.393  -1.033   1.875  0.00  0.00    -0.305 N 
ATOM     25  H   UNL     1      10.902  -1.858   1.832  0.00  0.00    +0.149 HD
BRANCH  24  26
ATOM     26  C   UNL     1      10.833   0.054   2.752  0.00  0.00    +0.217 C 
BRANCH  26  27
ATOM     27  C   UNL     1      12.111  -0.365   3.482  0.00  0.00    +0.405 C 
ATOM     28  F   UNL     1      13.113  -0.644   2.546  0.00  0.00    -0.169 F 
ATOM     29  F   UNL     1      12.532   0.674   4.319  0.00  0.00    -0.169 F 
ATOM     30  F   UNL     1      11.857  -1.507   4.248  0.00  0.00    -0.169 F 
ENDBRANCH  26  27
ENDBRANCH  24  26
ENDBRANCH  21  22
ENDBRANCH   4  21
TORSDOF 8
