REMARK  Name = ZINC12475309
REMARK  8 active torsions:
REMARK  status: ('A' for Active; 'I' for Inactive)
REMARK    1  A    between atoms: C_1  and  C_2
REMARK    2  A    between atoms: C_5  and  C_26
REMARK    3  A    between atoms: C_6  and  N_8
REMARK    4  A    between atoms: C_9  and  C_11
REMARK    5  A    between atoms: C_13  and  C_17
REMARK    6  A    between atoms: C_19  and  C_25
REMARK    7  A    between atoms: C_21  and  C_24
REMARK    8  A    between atoms: C_22  and  O_23
REMARK                            x       y       z     vdW  Elec       q    Type
REMARK                         _______ _______ _______ _____ _____    ______ ____
ROOT
ATOM      1  C   UNL     1       0.279  -2.882   4.822  0.00  0.00    +0.121 A 
ATOM      2  C   UNL     1       0.383  -2.349   6.093  0.00  0.00    +0.062 A 
ATOM      3  C   UNL     1       0.480  -3.458   6.954  0.00  0.00    +0.097 A 
ATOM      4  N   UNL     1       0.433  -4.543   6.210  0.00  0.00    -0.173 NA
ATOM      5  N   UNL     1       0.311  -4.240   4.968  0.00  0.00    -0.272 N 
ATOM      6  H   UNL     1       0.253  -4.881   4.242  0.00  0.00    +0.189 HD
ENDROOT
BRANCH   3   7
ATOM      7  C   UNL     1       0.612  -3.412   8.431  0.00  0.00    +0.044 A 
ATOM      8  C   UNL     1       0.644  -2.187   9.093  0.00  0.00    +0.017 A 
ATOM      9  C   UNL     1       0.766  -2.150  10.467  0.00  0.00    -0.049 A 
ATOM     10  C   UNL     1       0.858  -3.326  11.191  0.00  0.00    +0.010 A 
ATOM     11  C   UNL     1       0.828  -4.546  10.544  0.00  0.00    -0.008 A 
ATOM     12  C   UNL     1       0.700  -4.598   9.165  0.00  0.00    +0.129 A 
ATOM     13  C   UNL     1       0.929  -5.823  11.339  0.00  0.00    +0.047 C 
ATOM     14  C   UNL     1       0.800  -0.824  11.182  0.00  0.00    +0.044 C 
BRANCH  12  15
ATOM     15  O   UNL     1       0.664  -5.798   8.528  0.00  0.00    -0.506 OA
ATOM     16  H   UNL     1       1.534  -6.129   8.265  0.00  0.00    +0.292 HD
ENDBRANCH  12  15
ENDBRANCH   3   7
BRANCH   1  18
ATOM     17  N   UNL     1       0.053  -2.797   2.392  0.00  0.00    -0.280 N 
ATOM     18  C   UNL     1       0.151  -2.134   3.561  0.00  0.00    +0.266 C 
ATOM     19  O   UNL     1       0.135  -0.918   3.574  0.00  0.00    -0.268 OA
ATOM     20  H   UNL     1      -0.015  -3.765   2.387  0.00  0.00    +0.155 HD
BRANCH  17  26
ATOM     21  C   UNL     1       1.264   1.227  -0.159  0.00  0.00    +0.044 C 
ATOM     22  C   UNL     1       0.628  -0.137  -0.080  0.00  0.00    -0.049 A 
ATOM     23  C   UNL     1       0.038  -0.690  -1.202  0.00  0.00    +0.004 A 
ATOM     24  C   UNL     1      -0.547  -1.941  -1.133  0.00  0.00    +0.005 A 
ATOM     25  C   UNL     1      -0.544  -2.643   0.057  0.00  0.00    -0.029 A 
ATOM     26  C   UNL     1       0.048  -2.090   1.185  0.00  0.00    +0.037 A 
ATOM     27  C   UNL     1       0.639  -0.835   1.112  0.00  0.00    +0.027 A 
ATOM     28  C   UNL     1      -1.182  -4.006   0.131  0.00  0.00    +0.045 C 
ENDBRANCH  17  26
ENDBRANCH   1  18
TORSDOF 4
