REMARK  Name = ZINC11612216
REMARK  8 active torsions:
REMARK  status: ('A' for Active; 'I' for Inactive)
REMARK    1  A    between atoms: C_1  and  O_2
REMARK    2  A    between atoms: O_2  and  C_3
REMARK    3  A    between atoms: C_3  and  C_5
REMARK    4  A    between atoms: C_7  and  C_27
REMARK    5  A    between atoms: C_9  and  C_20
REMARK    6  A    between atoms: C_11  and  C_16
REMARK    7  A    between atoms: C_16  and  O_18
REMARK    8  A    between atoms: O_18  and  C_19
REMARK                            x       y       z     vdW  Elec       q    Type
REMARK                         _______ _______ _______ _____ _____    ______ ____
ROOT
ATOM      1  C   UNL     1       3.642   5.638   1.326  0.00  0.00    +0.230 C 
ATOM      2  C   UNL     1       4.294   4.268   1.107  0.00  0.00    -0.004 C 
ATOM      3  C   UNL     1       2.257   2.937   1.215  0.00  0.00    -0.004 C 
ATOM      4  C   UNL     1       1.282   4.096   1.451  0.00  0.00    +0.230 C 
ATOM      5  S   UNL     1       2.156   5.413   2.351  0.00  0.00    -0.007 S 
ATOM      6  O   UNL     1       1.377   6.600   2.285  0.00  0.00    -0.173 OA
ATOM      7  O   UNL     1       2.549   4.910   3.620  0.00  0.00    -0.173 OA
ATOM      8  N   UNL     1       3.377   3.383   0.362  0.00  0.00    +0.391 N 
ATOM      9  H   UNL     1       3.897   2.560   0.036  0.00  0.00    -0.084 HD
ATOM     10  H   UNL     1       3.001   3.893  -0.445  0.00  0.00    -0.084 HD
ENDROOT
BRANCH   3  11
ATOM     11  C   UNL     1       2.784   2.449   2.540  0.00  0.00    -0.059 A 
ATOM     12  C   UNL     1       2.070   2.691   3.699  0.00  0.00    +0.003 A 
ATOM     13  C   UNL     1       2.553   2.243   4.914  0.00  0.00    +0.020 A 
ATOM     14  C   UNL     1       3.751   1.553   4.971  0.00  0.00    +0.041 A 
ATOM     15  C   UNL     1       4.465   1.312   3.810  0.00  0.00    +0.020 A 
ATOM     16  C   UNL     1       3.981   1.760   2.596  0.00  0.00    +0.003 A 
ATOM     17 CL   UNL     1       4.358   0.991   6.497  0.00  0.00    -0.084 Cl
ENDBRANCH   3  11
BRANCH   2  18
ATOM     18  C   UNL     1       5.559   4.439   0.306  0.00  0.00    -0.059 A 
ATOM     19  C   UNL     1       5.493   4.583  -1.067  0.00  0.00    +0.003 A 
ATOM     20  C   UNL     1       6.652   4.745  -1.802  0.00  0.00    +0.020 A 
ATOM     21  C   UNL     1       7.880   4.752  -1.164  0.00  0.00    +0.041 A 
ATOM     22  C   UNL     1       7.946   4.601   0.210  0.00  0.00    +0.020 A 
ATOM     23  C   UNL     1       6.785   4.445   0.944  0.00  0.00    +0.003 A 
ATOM     24 CL   UNL     1       9.337   4.947  -2.087  0.00  0.00    -0.084 Cl
ENDBRANCH   2  18
BRANCH   1  25
ATOM     25  C   UNL     1       4.607   6.556   2.029  0.00  0.00    +0.330 C 
ATOM     26  O   UNL     1       5.440   6.100   2.776  0.00  0.00    -0.249 OA
BRANCH  25  28
ATOM     27  C   UNL     1       5.504   8.706   2.535  0.00  0.00    +0.280 C 
ATOM     28  O   UNL     1       4.543   7.881   1.825  0.00  0.00    -0.467 OA
ENDBRANCH  25  28
ENDBRANCH   1  25
BRANCH   4  29
ATOM     29  C   UNL     1       0.109   3.614   2.265  0.00  0.00    +0.330 C 
ATOM     30  O   UNL     1      -0.315   2.493   2.109  0.00  0.00    -0.249 OA
BRANCH  29  31
ATOM     31  O   UNL     1      -0.464   4.428   3.165  0.00  0.00    -0.467 OA
ATOM     32  C   UNL     1      -1.589   3.897   3.913  0.00  0.00    +0.280 C 
ENDBRANCH  29  31
ENDBRANCH   4  29
TORSDOF 6
