REMARK  Name = ZINC62876360
REMARK  6 active torsions:
REMARK  status: ('A' for Active; 'I' for Inactive)
REMARK    1  A    between atoms: C_1  and  C_2
REMARK    2  A    between atoms: C_2  and  C_3
REMARK    3  A    between atoms: C_3  and  C_21
REMARK    4  A    between atoms: N_11  and  C_12
REMARK    5  A    between atoms: C_17  and  O_19
REMARK    6  A    between atoms: O_19  and  C_20
REMARK                            x       y       z     vdW  Elec       q    Type
REMARK                         _______ _______ _______ _____ _____    ______ ____
ROOT
ATOM      1  C   UNL     1      -1.429  -0.532   0.013  0.00  0.00    +0.087 C 
ATOM      2  C   UNL     1      -1.409  -2.063   0.002  0.00  0.00    +0.021 C 
ATOM      3  C   UNL     1      -0.665  -2.555  -1.242  0.00  0.00    +0.020 C 
ATOM      4  C   UNL     1      -1.399  -2.071  -2.496  0.00  0.00    +0.109 C 
ATOM      5  N   UNL     1      -1.551  -0.612  -2.422  0.00  0.00    -0.285 N 
ATOM      6  C   UNL     1      -2.172  -0.026  -1.227  0.00  0.00    +0.127 C 
ATOM      7  C   UNL     1      -1.128   0.175  -3.432  0.00  0.00    +0.303 C 
ATOM      8  O   UNL     1      -1.342   1.371  -3.401  0.00  0.00    -0.253 OA
ATOM      9  N   UNL     1      -0.468  -0.365  -4.476  0.00  0.00    -0.294 N 
ATOM     10  H   UNL     1      -0.362  -1.327  -4.537  0.00  0.00    +0.151 HD
ENDROOT
BRANCH   9  11
ATOM     11  C   UNL     1       0.088   0.501  -5.518  0.00  0.00    +0.103 C 
ATOM     12  C   UNL     1      -0.978   0.783  -6.596  0.00  0.00    +0.025 C 
ATOM     13  C   UNL     1      -0.181   0.796  -7.924  0.00  0.00    +0.004 C 
ATOM     14  C   UNL     1       0.855  -0.335  -7.712  0.00  0.00    +0.033 C 
ATOM     15  C   UNL     1       1.255  -0.209  -6.226  0.00  0.00    +0.138 C 
BRANCH  15  16
ATOM     16  O   UNL     1       1.454  -1.507  -5.661  0.00  0.00    -0.378 OA
ATOM     17  C   UNL     1       2.807  -1.963  -5.715  0.00  0.00    +0.194 C 
ENDBRANCH  15  16
ENDBRANCH   9  11
BRANCH   1  18
ATOM     18  C   UNL     1      -2.134  -0.048   1.254  0.00  0.00    +0.364 C 
ATOM     19  O   UNL     1      -2.260   1.148   1.456  0.00  0.00    -0.246 OA
ATOM     20  O   UNL     1      -2.577  -0.852   2.057  0.00  0.00    -0.246 OA
ENDBRANCH   1  18
BRANCH   1  22
ATOM     21  C   UNL     1      -0.015   1.527   0.009  0.00  0.00    +0.005 C 
ATOM     22  C   UNL     1       0.006  -0.003   0.001  0.00  0.00    +0.016 C 
ENDBRANCH   1  22
TORSDOF 4
