REMARK  Name = ZINC35636978
REMARK  14 active torsions:
REMARK  status: ('A' for Active; 'I' for Inactive)
REMARK    1  A    between atoms: C_1  and  C_2
REMARK    2  A    between atoms: C_2  and  C_3
REMARK    3  A    between atoms: C_3  and  N_4
REMARK    4  A    between atoms: N_7  and  C_8
REMARK    5  A    between atoms: N_7  and  C_26
REMARK    6  A    between atoms: C_8  and  C_9
REMARK    7  A    between atoms: C_10  and  C_23
REMARK    8  A    between atoms: N_12  and  C_17
REMARK    9  A    between atoms: C_13  and  N_14
REMARK   10  A    between atoms: N_14  and  C_15
REMARK   11  A    between atoms: N_14  and  C_16
REMARK   12  A    between atoms: C_23  and  C_24
REMARK   13  A    between atoms: C_23  and  C_25
REMARK   14  A    between atoms: C_26  and  C_27
REMARK                            x       y       z     vdW  Elec       q    Type
REMARK                         _______ _______ _______ _____ _____    ______ ____
ROOT
ATOM      1  C   UNL     1       3.280  -4.076  -2.273  0.00  0.00    +0.031 A 
ATOM      2  C   UNL     1       4.183  -3.269  -2.970  0.00  0.00    +0.044 A 
ATOM      3  N   UNL     1       5.391  -3.736  -2.777  0.00  0.00    -0.295 N 
ATOM      4  N   UNL     1       5.303  -4.862  -1.948  0.00  0.00    -0.241 N 
ATOM      5  C   UNL     1       3.991  -5.052  -1.643  0.00  0.00    +0.127 A 
ATOM      6  H   UNL     1       6.207  -3.365  -3.146  0.00  0.00    +0.187 HD
ENDROOT
BRANCH   4   7
ATOM      7  C   UNL     1       6.376  -5.648  -1.507  0.00  0.00    +0.065 A 
ATOM      8  C   UNL     1       6.300  -7.032  -1.579  0.00  0.00    +0.028 A 
ATOM      9  C   UNL     1       7.359  -7.804  -1.144  0.00  0.00    +0.002 A 
ATOM     10  C   UNL     1       8.495  -7.200  -0.637  0.00  0.00    +0.000 A 
ATOM     11  C   UNL     1       8.574  -5.821  -0.565  0.00  0.00    +0.002 A 
ATOM     12  C   UNL     1       7.521  -5.043  -1.004  0.00  0.00    +0.028 A 
ENDBRANCH   4   7
BRANCH   5  13
ATOM     13  N   UNL     1       3.470  -6.061  -0.838  0.00  0.00    -0.321 N 
ATOM     14  C   UNL     1       2.891  -7.260  -1.448  0.00  0.00    +0.130 C 
ATOM     15  C   UNL     1       3.503  -5.923   0.621  0.00  0.00    +0.130 C 
ENDBRANCH   5  13
BRANCH   2  16
ATOM     16  C   UNL     1       3.827  -2.065  -3.803  0.00  0.00    +0.031 C 
ATOM     17  C   UNL     1       4.526  -0.827  -3.235  0.00  0.00    +0.014 C 
ATOM     18  C   UNL     1       4.282  -2.290  -5.246  0.00  0.00    +0.014 C 
ENDBRANCH   2  16
BRANCH   1  19
ATOM     19  C   UNL     1       1.784  -3.896  -2.223  0.00  0.00    +0.149 C 
BRANCH  19  23
ATOM     20  N   UNL     1       1.128  -1.280   0.277  0.00  0.00    -0.299 N 
ATOM     21  C   UNL     1       1.468  -1.889  -0.876  0.00  0.00    +0.303 C 
ATOM     22  O   UNL     1       1.824  -1.227  -1.832  0.00  0.00    -0.253 OA
ATOM     23  N   UNL     1       1.414  -3.233  -0.970  0.00  0.00    -0.279 N 
ATOM     24  H   UNL     1       0.845  -1.808   1.039  0.00  0.00    +0.150 HD
BRANCH  20  25
ATOM     25  C   UNL     1       1.187   0.181   0.378  0.00  0.00    +0.105 C 
BRANCH  25  27
ATOM     26  C   UNL     1       0.815   2.138   1.886  0.00  0.00    +0.005 C 
ATOM     27  C   UNL     1       0.753   0.612   1.780  0.00  0.00    +0.015 C 
ENDBRANCH  25  27
ENDBRANCH  20  25
BRANCH  23  28
ATOM     28  C   UNL     1       0.986  -4.030   0.182  0.00  0.00    +0.141 C 
BRANCH  28  29
ATOM     29  C   UNL     1      -0.532  -3.923   0.341  0.00  0.00    +0.136 C 
ATOM     30  C   UNL     1      -0.978  -4.661   1.621  0.00  0.00    +0.035 C 
ATOM     31  C   UNL     1      -2.302  -5.336   1.168  0.00  0.00    +0.031 C 
ATOM     32  C   UNL     1      -1.977  -5.658  -0.312  0.00  0.00    +0.160 C 
ATOM     33  O   UNL     1      -1.182  -4.550  -0.771  0.00  0.00    -0.375 OA
ENDBRANCH  28  29
ENDBRANCH  23  28
ENDBRANCH  19  23
ENDBRANCH   1  19
TORSDOF 9
