REMARK  Name = ZINC01341889
REMARK  10 active torsions:
REMARK  status: ('A' for Active; 'I' for Inactive)
REMARK    1  A    between atoms: C_1  and  C_2
REMARK    2  A    between atoms: C_7  and  C_8
REMARK    3  A    between atoms: C_8  and  C_10
REMARK    4  A    between atoms: C_8  and  N_20
REMARK    5  A    between atoms: N_12  and  C_13
REMARK    6  A    between atoms: C_13  and  C_14
REMARK    7  A    between atoms: N_20  and  C_21
REMARK    8  A    between atoms: C_21  and  C_22
REMARK    9  A    between atoms: C_31  and  C_33
REMARK   10  A    between atoms: C_33  and  N_34
REMARK                            x       y       z     vdW  Elec       q    Type
REMARK                         _______ _______ _______ _____ _____    ______ ____
ROOT
ATOM      1  N   UNL     1       0.397  -1.367   3.585  0.00  0.00    -0.280 N 
ATOM      2  C   UNL     1       1.601  -1.410   4.188  0.00  0.00    +0.238 C 
ATOM      3  O   UNL     1       2.426  -0.552   3.956  0.00  0.00    -0.274 OA
ENDROOT
BRANCH   1   4
ATOM      4  C   UNL     1       0.124  -0.352   2.564  0.00  0.00    +0.193 C 
BRANCH   4  11
ATOM      5  C   UNL     1      -1.683   0.871   4.458  0.00  0.00    +0.044 C 
ATOM      6  C   UNL     1      -0.437   1.600   4.028  0.00  0.00    -0.045 A 
ATOM      7  C   UNL     1      -0.155   2.851   4.543  0.00  0.00    +0.004 A 
ATOM      8  C   UNL     1       0.989   3.520   4.148  0.00  0.00    +0.000 A 
ATOM      9  C   UNL     1       1.851   2.937   3.238  0.00  0.00    +0.000 A 
ATOM     10  C   UNL     1       1.569   1.685   2.723  0.00  0.00    +0.006 A 
ATOM     11  C   UNL     1       0.428   1.015   3.122  0.00  0.00    -0.015 A 
ENDBRANCH   4  11
BRANCH   4  12
ATOM     12  C   UNL     1       0.991  -0.607   1.358  0.00  0.00    +0.238 C 
ATOM     13  O   UNL     1       1.923  -1.379   1.434  0.00  0.00    -0.273 OA
ATOM     14  N   UNL     1       0.730   0.023   0.196  0.00  0.00    -0.311 N 
ATOM     15  H   UNL     1       0.035   0.699   0.156  0.00  0.00    +0.149 HD
BRANCH  14  16
ATOM     16  C   UNL     1       1.497  -0.311  -1.007  0.00  0.00    +0.135 C 
BRANCH  16  17
ATOM     17  C   UNL     1       1.006   0.542  -2.178  0.00  0.00    +0.135 C 
ATOM     18  C   UNL     1       1.724   0.112  -3.476  0.00  0.00    +0.035 C 
ATOM     19  C   UNL     1       1.972   1.473  -4.181  0.00  0.00    +0.031 C 
ATOM     20  C   UNL     1       2.218   2.396  -2.961  0.00  0.00    +0.160 C 
ATOM     21  O   UNL     1       1.322   1.919  -1.942  0.00  0.00    -0.375 OA
ENDBRANCH  16  17
ENDBRANCH  14  16
ENDBRANCH   4  12
ENDBRANCH   1   4
BRANCH   1  22
ATOM     22  C   UNL     1      -0.640  -2.335   3.951  0.00  0.00    +0.144 C 
BRANCH  22  23
ATOM     23  C   UNL     1      -0.604  -3.497   2.991  0.00  0.00    -0.026 A 
ATOM     24  C   UNL     1      -1.276  -3.416   1.786  0.00  0.00    +0.009 A 
ATOM     25  C   UNL     1      -1.246  -4.479   0.902  0.00  0.00    +0.050 A 
ATOM     26  C   UNL     1      -0.541  -5.628   1.223  0.00  0.00    +0.166 A 
ATOM     27  C   UNL     1       0.135  -5.709   2.438  0.00  0.00    +0.167 A 
ATOM     28  C   UNL     1       0.105  -4.638   3.316  0.00  0.00    +0.054 A 
ATOM     29  O   UNL     1       0.745  -6.927   2.517  0.00  0.00    -0.453 OA
ATOM     30  C   UNL     1       0.100  -7.746   1.523  0.00  0.00    +0.466 C 
ATOM     31  O   UNL     1      -0.356  -6.796   0.542  0.00  0.00    -0.453 OA
ENDBRANCH  22  23
ENDBRANCH   1  22
BRANCH   2  32
ATOM     32  C   UNL     1       1.923  -2.525   5.149  0.00  0.00    +0.241 C 
BRANCH  32  33
ATOM     33  N   UNL     1       3.231  -2.278   5.763  0.00  0.00    -0.235 N 
ATOM     34  C   UNL     1       4.453  -2.696   5.291  0.00  0.00    +0.090 A 
ATOM     35  C   UNL     1       4.862  -3.426   4.181  0.00  0.00    +0.029 A 
ATOM     36  C   UNL     1       6.190  -3.682   3.988  0.00  0.00    +0.002 A 
ATOM     37  C   UNL     1       7.138  -3.219   4.892  0.00  0.00    +0.002 A 
ATOM     38  C   UNL     1       6.762  -2.501   5.989  0.00  0.00    +0.032 A 
ATOM     39  C   UNL     1       5.406  -2.224   6.209  0.00  0.00    +0.113 A 
ATOM     40  N   UNL     1       4.747  -1.556   7.177  0.00  0.00    -0.129 NA
ATOM     41  N   UNL     1       3.482  -1.565   6.944  0.00  0.00    -0.064 NA
ENDBRANCH  32  33
ENDBRANCH   2  32
TORSDOF 9
