REMARK  Name = ZINC38990431
REMARK  7 active torsions:
REMARK  status: ('A' for Active; 'I' for Inactive)
REMARK    1  A    between atoms: C_4  and  C_7
REMARK    2  A    between atoms: C_9  and  C_13
REMARK    3  A    between atoms: C_17  and  S_21
REMARK    4  A    between atoms: N_19  and  N_20
REMARK    5  A    between atoms: S_21  and  C_22
REMARK    6  A    between atoms: C_22  and  C_23
REMARK    7  A    between atoms: N_25  and  C_26
REMARK                            x       y       z     vdW  Elec       q    Type
REMARK                         _______ _______ _______ _____ _____    ______ ____
ROOT
ATOM      1  C   UNL     1       5.782  -3.012   1.181  0.00  0.00    +0.185 C 
ATOM      2  N   UNL     1       5.180  -4.371   1.200  0.00  0.00    -0.234 NA
ATOM      3  N   UNL     1       6.106  -5.133   2.051  0.00  0.00    -0.228 NA
ATOM      4  C   UNL     1       7.447  -4.615   1.695  0.00  0.00    +0.214 C 
ATOM      5  N   UNL     1       7.242  -3.258   1.143  0.00  0.00    -0.197 NA
ATOM      6  H   UNL     1       5.139  -4.761   0.270  0.00  0.00    +0.143 HD
ATOM      7  H   UNL     1       5.908  -4.981   3.029  0.00  0.00    +0.143 HD
ENDROOT
BRANCH   1  10
ATOM      8  C   UNL     1       3.699  -0.689  -0.037  0.00  0.00    +0.091 C 
ATOM      9  C   UNL     1       3.832  -2.029  -0.051  0.00  0.00    +0.034 C 
ATOM     10  C   UNL     1       5.335  -2.245  -0.065  0.00  0.00    +0.187 C 
ATOM     11  N   UNL     1       5.871  -0.874  -0.056  0.00  0.00    -0.176 NA
ATOM     12  N   UNL     1       4.919  -0.090  -0.047  0.00  0.00    -0.154 NA
BRANCH   8  16
ATOM     13  C   UNL     1      -0.017   1.379   0.010  0.00  0.00    +0.000 A 
ATOM     14  C   UNL     1       1.169   2.092   0.002  0.00  0.00    +0.001 A 
ATOM     15  C   UNL     1       2.377   1.426  -0.013  0.00  0.00    +0.010 A 
ATOM     16  C   UNL     1       2.402   0.033  -0.021  0.00  0.00    +0.002 A 
ATOM     17  C   UNL     1       1.205  -0.680  -0.013  0.00  0.00    +0.010 A 
ATOM     18  C   UNL     1       0.002  -0.004   0.002  0.00  0.00    +0.001 A 
ENDBRANCH   8  16
ENDBRANCH   1  10
BRANCH   5  19
ATOM     19  N   UNL     1       7.960  -2.262   1.921  0.00  0.00    -0.264 NA
ATOM     20  H   UNL     1       8.954  -2.429   1.895  0.00  0.00    +0.137 HD
ATOM     21  H   UNL     1       7.742  -1.329   1.603  0.00  0.00    +0.137 HD
ENDBRANCH   5  19
BRANCH   4  22
ATOM     22  S   UNL     1       8.494  -4.531   3.174  0.00  0.00    -0.115 S 
BRANCH  22  23
ATOM     23  C   UNL     1       7.582  -3.435   4.295  0.00  0.00    +0.167 C 
BRANCH  23  24
ATOM     24  C   UNL     1       8.353  -3.278   5.581  0.00  0.00    +0.223 C 
ATOM     25  O   UNL     1       9.413  -3.849   5.726  0.00  0.00    -0.275 OA
ATOM     26  N   UNL     1       7.864  -2.503   6.569  0.00  0.00    -0.312 N 
ATOM     27  H   UNL     1       7.016  -2.046   6.453  0.00  0.00    +0.149 HD
BRANCH  26  28
ATOM     28  C   UNL     1       8.613  -2.350   7.819  0.00  0.00    +0.073 C 
ATOM     29  C   UNL     1       8.277  -3.508   8.760  0.00  0.00    +0.022 C 
ATOM     30  C   UNL     1       9.059  -3.348  10.065  0.00  0.00    +0.002 C 
ATOM     31  C   UNL     1       8.678  -2.023  10.729  0.00  0.00    +0.000 C 
ATOM     32  C   UNL     1       9.015  -0.865   9.788  0.00  0.00    +0.002 C 
ATOM     33  C   UNL     1       8.232  -1.025   8.483  0.00  0.00    +0.022 C 
ENDBRANCH  26  28
ENDBRANCH  23  24
ENDBRANCH  22  23
ENDBRANCH   4  22
TORSDOF 7
