REMARK  Name = ZINC27836559
REMARK  3 active torsions:
REMARK  status: ('A' for Active; 'I' for Inactive)
REMARK    1  A    between atoms: C_1  and  C_2
REMARK    2  A    between atoms: N_9  and  C_10
REMARK    3  A    between atoms: N_20  and  C_21
REMARK                            x       y       z     vdW  Elec       q    Type
REMARK                         _______ _______ _______ _____ _____    ______ ____
ROOT
ATOM      1  C   UNL     1       8.282  -1.419  -0.218  0.00  0.00    +0.007 C 
ATOM      2  C   UNL     1       6.865  -0.858  -0.078  0.00  0.00    -0.014 C 
ATOM      3  C   UNL     1       6.897   0.660  -0.268  0.00  0.00    +0.006 C 
ATOM      4  C   UNL     1       5.481   1.221  -0.117  0.00  0.00    +0.034 C 
ATOM      5  C   UNL     1       4.566   0.583  -1.155  0.00  0.00    +0.097 C 
ATOM      6  C   UNL     1       4.541  -0.933  -0.993  0.00  0.00    +0.034 C 
ATOM      7  C   UNL     1       5.961  -1.487  -1.140  0.00  0.00    +0.006 C 
ATOM      8  C   UNL     1       3.167   1.147  -1.042  0.00  0.00    +0.125 C 
ATOM      9  N   UNL     1       2.368   1.079  -0.018  0.00  0.00    -0.235 NA
ATOM     10  N   UNL     1       2.924   1.752  -2.253  0.00  0.00    -0.283 N 
ATOM     11  C   UNL     1       3.975   1.625  -3.074  0.00  0.00    +0.143 C 
ATOM     12  S   UNL     1       4.020   2.259  -4.664  0.00  0.00    -0.018 S 
ATOM     13  N   UNL     1       4.991   0.945  -2.513  0.00  0.00    -0.269 N 
ATOM     14  H   UNL     1       1.962   2.252  -2.435  0.00  0.00    +0.155 HD
ENDROOT
BRANCH   9  15
ATOM     15  C   UNL     1       1.124   1.653  -0.079  0.00  0.00    +0.066 A 
ATOM     16  C   UNL     1       0.007   0.958   0.387  0.00  0.00    +0.029 A 
ATOM     17  C   UNL     1      -1.242   1.539   0.318  0.00  0.00    +0.022 A 
ATOM     18  C   UNL     1      -1.388   2.813  -0.204  0.00  0.00    +0.041 A 
ATOM     19  C   UNL     1      -0.284   3.508  -0.668  0.00  0.00    +0.022 A 
ATOM     20  C   UNL     1       0.970   2.935  -0.609  0.00  0.00    +0.029 A 
ATOM     21 CL   UNL     1      -2.962   3.540  -0.283  0.00  0.00    -0.084 Cl
ENDBRANCH   9  15
BRANCH  13  22
ATOM     22  C   UNL     1       6.221   0.645  -3.107  0.00  0.00    +0.036 A 
ATOM     23  C   UNL     1       7.184  -0.059  -2.397  0.00  0.00    +0.023 A 
ATOM     24  C   UNL     1       8.396  -0.357  -2.988  0.00  0.00    +0.002 A 
ATOM     25  C   UNL     1       8.655   0.054  -4.283  0.00  0.00    +0.000 A 
ATOM     26  C   UNL     1       7.700   0.760  -4.991  0.00  0.00    +0.002 A 
ATOM     27  C   UNL     1       6.484   1.057  -4.407  0.00  0.00    +0.023 A 
ENDBRANCH  13  22
TORSDOF 2
