REMARK  Name = ZINC04161745
REMARK  11 active torsions:
REMARK  status: ('A' for Active; 'I' for Inactive)
REMARK    1  A    between atoms: C_1  and  C_2
REMARK    2  A    between atoms: C_2  and  C_3
REMARK    3  A    between atoms: C_10  and  C_15
REMARK    4  A    between atoms: C_15  and  C_17
REMARK    5  A    between atoms: C_15  and  N_65
REMARK    6  A    between atoms: N_21  and  C_22
REMARK    7  A    between atoms: C_22  and  C_23
REMARK    8  A    between atoms: C_22  and  C_24
REMARK    9  A    between atoms: C_22  and  C_25
REMARK   10  A    between atoms: C_25  and  C_26
REMARK   11  A    between atoms: C_30  and  C_33
REMARK                            x       y       z     vdW  Elec       q    Type
REMARK                         _______ _______ _______ _____ _____    ______ ____
ROOT
ATOM      1  C   UNL     1       0.117   0.970   2.670  0.00  0.00    +0.039 C 
ENDROOT
BRANCH   1   9
ATOM      2  C   UNL     1       1.735  -4.662   4.658  0.00  0.00    -0.047 A 
ATOM      3  C   UNL     1       0.458  -5.207   4.638  0.00  0.00    +0.005 A 
ATOM      4  C   UNL     1      -0.624  -4.450   4.242  0.00  0.00    +0.026 A 
ATOM      5  C   UNL     1      -0.437  -3.126   3.859  0.00  0.00    +0.049 A 
ATOM      6  C   UNL     1       0.859  -2.577   3.880  0.00  0.00    -0.001 A 
ATOM      7  C   UNL     1       1.942  -3.364   4.285  0.00  0.00    +0.013 A 
ATOM      8  C   UNL     1       1.046  -1.183   3.475  0.00  0.00    +0.017 A 
ATOM      9  C   UNL     1      -0.041  -0.468   3.093  0.00  0.00    +0.011 A 
ATOM     10  C   UNL     1      -1.320  -1.064   3.095  0.00  0.00    +0.251 A 
ATOM     11  O   UNL     1      -2.285  -0.402   2.752  0.00  0.00    -0.268 OA
ATOM     12  N   UNL     1      -1.501  -2.345   3.460  0.00  0.00    -0.322 N 
ATOM     13  H   UNL     1      -2.420  -2.738   3.442  0.00  0.00    +0.169 HD
BRANCH   2  15
ATOM     14  C   UNL     1       3.096  -5.373   6.605  0.00  0.00    +0.009 C 
ATOM     15  C   UNL     1       2.902  -5.510   5.093  0.00  0.00    +0.032 C 
ENDBRANCH   2  15
ENDBRANCH   1   9
BRANCH   1  22
ATOM     16  C   UNL     1       0.215   0.309   0.343  0.00  0.00    -0.077 C 
ATOM     17  C   UNL     1      -0.506   0.415  -1.002  0.00  0.00    -0.018 C 
ATOM     18  C   UNL     1      -0.505   1.876  -1.462  0.00  0.00    -0.001 C 
ATOM     19  C   UNL     1      -1.176   2.741  -0.392  0.00  0.00    -0.031 C 
ATOM     20  C   UNL     1      -0.435   2.567   0.936  0.00  0.00    -0.074 C 
ATOM     21  C   UNL     1      -1.126   4.210  -0.816  0.00  0.00    +0.005 C 
ATOM     22  N   UNL     1      -0.493   1.145   1.336  0.00  0.00    +0.389 N 
ATOM     23  H   UNL     1      -1.476   0.851   1.377  0.00  0.00    -0.080 HD
ENDBRANCH   1  22
BRANCH   1  24
ATOM     24  C   UNL     1      -0.594   1.864   3.654  0.00  0.00    +0.143 A 
ATOM     25  N   UNL     1      -1.888   1.945   3.844  0.00  0.00    -0.115 NA
ATOM     26  N   UNL     1      -2.100   2.818   4.768  0.00  0.00    -0.023 NA
ATOM     27  N   UNL     1      -0.975   3.300   5.167  0.00  0.00    -0.043 NA
ATOM     28  N   UNL     1      -0.023   2.737   4.504  0.00  0.00    -0.225 N 
BRANCH  28  29
ATOM     29  C   UNL     1       1.411   2.999   4.648  0.00  0.00    +0.061 C 
ATOM     30  C   UNL     1       2.135   1.698   5.001  0.00  0.00    +0.036 C 
ATOM     31  C   UNL     1       1.964   3.550   3.332  0.00  0.00    +0.036 C 
BRANCH  29  32
ATOM     32  C   UNL     1       1.633   4.024   5.762  0.00  0.00    +0.026 C 
ATOM     33  C   UNL     1       3.130   4.298   5.913  0.00  0.00    +0.006 C 
ENDBRANCH  29  32
ENDBRANCH  28  29
ENDBRANCH   1  24
TORSDOF 6
