REMARK  Name = ZINC06641573
REMARK  7 active torsions:
REMARK  status: ('A' for Active; 'I' for Inactive)
REMARK    1  A    between atoms: C_1  and  O_2
REMARK    2  A    between atoms: O_2  and  C_3
REMARK    3  A    between atoms: C_6  and  C_9
REMARK    4  A    between atoms: C_23  and  C_24
REMARK    5  A    between atoms: C_24  and  O_26
REMARK    6  A    between atoms: O_26  and  C_27
REMARK    7  A    between atoms: C_27  and  C_28
REMARK                            x       y       z     vdW  Elec       q    Type
REMARK                         _______ _______ _______ _____ _____    ______ ____
ROOT
ATOM      1  C   UNL     1       3.691  -0.679  -0.038  0.00  0.00    +0.013 C 
ATOM      2  C   UNL     1       4.841   0.008  -0.147  0.00  0.00    -0.021 C 
ATOM      3  C   UNL     1       4.852   1.521  -0.147  0.00  0.00    +0.037 C 
ATOM      4  C   UNL     1       5.821   1.980  -1.240  0.00  0.00    +0.009 C 
ATOM      5  C   UNL     1       7.234   1.524  -0.889  0.00  0.00    +0.038 C 
ATOM      6  C   UNL     1       7.284   0.041  -0.642  0.00  0.00    -0.007 A 
ATOM      7  C   UNL     1       6.140  -0.690  -0.277  0.00  0.00    +0.072 A 
ATOM      8  N   UNL     1       6.186  -1.992  -0.045  0.00  0.00    -0.247 NA
ATOM      9  C   UNL     1       7.310  -2.700  -0.144  0.00  0.00    +0.072 A 
ATOM     10  C   UNL     1       7.324  -4.083   0.114  0.00  0.00    +0.028 A 
ATOM     11  C   UNL     1       8.488  -4.779   0.000  0.00  0.00    +0.002 A 
ATOM     12  C   UNL     1       9.673  -4.144  -0.367  0.00  0.00    +0.001 A 
ATOM     13  C   UNL     1       9.697  -2.805  -0.622  0.00  0.00    +0.011 A 
ATOM     14  C   UNL     1       8.519  -2.059  -0.515  0.00  0.00    +0.015 A 
ATOM     15  C   UNL     1       8.498  -0.619  -0.775  0.00  0.00    +0.073 A 
ENDROOT
BRANCH   1  19
ATOM     16  C   UNL     1       0.073   1.365   0.821  0.00  0.00    +0.120 A 
ATOM     17  C   UNL     1       1.273   1.832   1.343  0.00  0.00    +0.046 A 
ATOM     18  C   UNL     1       2.450   1.172   1.067  0.00  0.00    +0.011 A 
ATOM     19  C   UNL     1       2.435   0.030   0.260  0.00  0.00    -0.024 A 
ATOM     20  C   UNL     1       1.225  -0.436  -0.263  0.00  0.00    +0.011 A 
ATOM     21  C   UNL     1       0.053   0.231   0.019  0.00  0.00    +0.046 A 
BRANCH  16  23
ATOM     22  C   UNL     1      -0.993   3.182   1.922  0.00  0.00    +0.277 C 
ATOM     23  O   UNL     1      -1.085   2.023   1.091  0.00  0.00    -0.495 OA
ENDBRANCH  16  23
ENDBRANCH   1  19
BRANCH  15  24
ATOM     24  C   UNL     1       9.726   0.106  -1.164  0.00  0.00    +0.341 C 
ATOM     25  O   UNL     1      10.019   0.218  -2.338  0.00  0.00    -0.245 OA
BRANCH  24  26
ATOM     26  O   UNL     1      10.520   0.643  -0.217  0.00  0.00    -0.452 OA
BRANCH  26  27
ATOM     27  C   UNL     1      11.709   1.341  -0.672  0.00  0.00    +0.327 C 
BRANCH  27  28
ATOM     28  C   UNL     1      12.467   1.871   0.518  0.00  0.00    +0.248 C 
ATOM     29  O   UNL     1      12.046   1.678   1.639  0.00  0.00    -0.272 OA
ATOM     30  N   UNL     1      13.612   2.558   0.336  0.00  0.00    -0.327 N 
ATOM     31  H   UNL     1      13.948   2.712  -0.561  0.00  0.00    +0.145 HD
ATOM     32  H   UNL     1      14.100   2.898   1.102  0.00  0.00    +0.145 HD
ENDBRANCH  27  28
ENDBRANCH  26  27
ENDBRANCH  24  26
ENDBRANCH  15  24
TORSDOF 6
