REMARK  Name = ZINC04171438
REMARK  8 active torsions:
REMARK  status: ('A' for Active; 'I' for Inactive)
REMARK    1  A    between atoms: C_1  and  C_2
REMARK    2  A    between atoms: C_7  and  N_8
REMARK    3  A    between atoms: C_9  and  C_11
REMARK    4  A    between atoms: C_12  and  C_28
REMARK    5  A    between atoms: C_17  and  C_19
REMARK    6  A    between atoms: C_22  and  C_25
REMARK    7  A    between atoms: C_25  and  C_26
REMARK    8  A    between atoms: C_25  and  C_27
REMARK                            x       y       z     vdW  Elec       q    Type
REMARK                         _______ _______ _______ _____ _____    ______ ____
ROOT
ATOM      1  C   UNL     1      -1.558   3.322   0.095  0.00  0.00    +0.056 C 
ATOM      2  C   UNL     1      -0.387   3.836  -0.336  0.00  0.00    +0.019 C 
ATOM      3  N   UNL     1       0.770   3.113  -0.261  0.00  0.00    -0.273 N 
ATOM      4  C   UNL     1       0.839   1.871   0.234  0.00  0.00    +0.304 C 
ATOM      5  O   UNL     1       1.915   1.307   0.260  0.00  0.00    -0.252 OA
ATOM      6  N   UNL     1      -0.247   1.225   0.704  0.00  0.00    -0.288 N 
ATOM      7  C   UNL     1      -1.547   1.917   0.661  0.00  0.00    +0.142 C 
ATOM      8  C   UNL     1      -0.355   5.228  -0.911  0.00  0.00    +0.061 C 
ATOM      9  H   UNL     1       1.588   3.523  -0.583  0.00  0.00    +0.156 HD
ATOM     10  H   UNL     1      -0.175   0.325   1.058  0.00  0.00    +0.151 HD
ENDROOT
BRANCH   7  11
ATOM     11  C   UNL     1      -2.084   1.983   2.067  0.00  0.00    -0.023 A 
ATOM     12  C   UNL     1      -1.253   2.351   3.108  0.00  0.00    +0.006 A 
ATOM     13  C   UNL     1      -1.747   2.416   4.398  0.00  0.00    +0.004 A 
ATOM     14  C   UNL     1      -3.070   2.102   4.647  0.00  0.00    -0.045 A 
ATOM     15  C   UNL     1      -3.900   1.729   3.607  0.00  0.00    +0.004 A 
ATOM     16  C   UNL     1      -3.407   1.669   2.317  0.00  0.00    +0.006 A 
BRANCH  14  17
ATOM     17  C   UNL     1      -3.607   2.167   6.054  0.00  0.00    +0.013 C 
ATOM     18  C   UNL     1      -2.824   1.201   6.944  0.00  0.00    +0.012 C 
ATOM     19  C   UNL     1      -3.458   3.592   6.592  0.00  0.00    +0.012 C 
ENDBRANCH  14  17
ENDBRANCH   7  11
BRANCH   1  21
ATOM     20  N   UNL     1      -3.006   5.043   0.917  0.00  0.00    -0.281 N 
ATOM     21  C   UNL     1      -2.759   4.071   0.018  0.00  0.00    +0.248 C 
ATOM     22  O   UNL     1      -3.567   3.835  -0.862  0.00  0.00    -0.270 OA
ATOM     23  H   UNL     1      -2.328   5.288   1.566  0.00  0.00    +0.155 HD
BRANCH  20  30
ATOM     24  C   UNL     1      -4.057   5.935   3.406  0.00  0.00    +0.045 C 
ATOM     25  C   UNL     1      -4.790   6.152   2.107  0.00  0.00    -0.029 A 
ATOM     26  C   UNL     1      -6.009   6.802   2.102  0.00  0.00    +0.005 A 
ATOM     27  C   UNL     1      -6.682   7.002   0.910  0.00  0.00    +0.000 A 
ATOM     28  C   UNL     1      -6.137   6.553  -0.279  0.00  0.00    +0.002 A 
ATOM     29  C   UNL     1      -4.916   5.908  -0.281  0.00  0.00    +0.023 A 
ATOM     30  C   UNL     1      -4.240   5.701   0.915  0.00  0.00    +0.037 A 
ENDBRANCH  20  30
ENDBRANCH   1  21
TORSDOF 4
