REMARK  Name = ZINC62349636
REMARK  7 active torsions:
REMARK  status: ('A' for Active; 'I' for Inactive)
REMARK    1  A    between atoms: C_1  and  C_2
REMARK    2  A    between atoms: C_5  and  C_11
REMARK    3  A    between atoms: C_7  and  N_8
REMARK    4  A    between atoms: C_11  and  C_13
REMARK    5  A    between atoms: C_13  and  N_14
REMARK    6  A    between atoms: C_16  and  C_23
REMARK    7  A    between atoms: C_19  and  C_22
REMARK                            x       y       z     vdW  Elec       q    Type
REMARK                         _______ _______ _______ _____ _____    ______ ____
ROOT
ATOM      1  C   UNL     1       0.657  -4.120  -0.157  0.00  0.00    +0.124 C 
ATOM      2 CL   UNL     1       1.751  -4.565  -1.520  0.00  0.00    -0.115 Cl
ENDROOT
BRANCH   1   7
ATOM      3  C   UNL     1      -0.675   1.492  -0.507  0.00  0.00    +0.046 C 
ATOM      4  C   UNL     1      -0.327   0.029  -0.415  0.00  0.00    -0.020 A 
ATOM      5  C   UNL     1      -0.560  -0.806  -1.493  0.00  0.00    +0.006 A 
ATOM      6  C   UNL     1      -0.241  -2.148  -1.409  0.00  0.00    +0.005 A 
ATOM      7  C   UNL     1       0.311  -2.656  -0.248  0.00  0.00    -0.026 A 
ATOM      8  C   UNL     1       0.544  -1.822   0.829  0.00  0.00    +0.038 A 
ATOM      9  C   UNL     1       0.230  -0.479   0.743  0.00  0.00    +0.129 A 
BRANCH   9  10
ATOM     10  N   UNL     1       0.484   0.416   1.895  0.00  0.00    +0.057 N 
ATOM     11  O   UNL     1       0.868   1.547   1.708  0.00  0.00    -0.126 OA
ATOM     12  O   UNL     1       0.310   0.015   3.022  0.00  0.00    -0.126 OA
ENDBRANCH   9  10
ENDBRANCH   1   7
BRANCH   1  13
ATOM     13  C   UNL     1      -0.623  -4.954  -0.238  0.00  0.00    +0.108 C 
BRANCH  13  14
ATOM     14  N   UNL     1      -0.295  -6.374  -0.059  0.00  0.00    -0.296 NA
ATOM     15  C   UNL     1      -1.370  -7.232  -0.577  0.00  0.00    +0.115 C 
ATOM     16  C   UNL     1      -0.962  -8.700  -0.425  0.00  0.00    +0.130 C 
ATOM     17  O   UNL     1      -0.668  -8.969   0.948  0.00  0.00    -0.371 OA
ATOM     18  C   UNL     1       0.375  -8.151   1.484  0.00  0.00    +0.130 C 
ATOM     19  C   UNL     1      -0.019  -6.678   1.353  0.00  0.00    +0.115 C 
ATOM     20  C   UNL     1       0.586  -8.494   2.961  0.00  0.00    +0.039 C 
ATOM     21  C   UNL     1       0.279  -8.976  -1.277  0.00  0.00    +0.039 C 
ENDBRANCH  13  14
ENDBRANCH   1  13
TORSDOF 4
