REMARK  Name = ZINC67124976
REMARK  6 active torsions:
REMARK  status: ('A' for Active; 'I' for Inactive)
REMARK    1  A    between atoms: C_1  and  C_2
REMARK    2  A    between atoms: C_2  and  C_3
REMARK    3  A    between atoms: C_2  and  C_4
REMARK    4  A    between atoms: C_2  and  O_5
REMARK    5  A    between atoms: O_5  and  C_6
REMARK    6  A    between atoms: C_13  and  C_15
REMARK                            x       y       z     vdW  Elec       q    Type
REMARK                         _______ _______ _______ _____ _____    ______ ____
ROOT
ATOM      1  C   UNL     1       1.938  -0.052  -1.376  0.00  0.00    +0.404 C 
ATOM      2  O   UNL     1       2.462   0.669  -0.549  0.00  0.00    -0.226 OA
ATOM      3  N   UNL     1       2.641  -0.468  -2.448  0.00  0.00    -0.256 N 
ATOM      4  C   UNL     1       2.047  -1.401  -3.416  0.00  0.00    +0.112 C 
ATOM      5  C   UNL     1       2.985  -2.601  -3.582  0.00  0.00    +0.019 C 
ATOM      6  C   UNL     1       4.381  -2.104  -3.964  0.00  0.00    +0.004 C 
ATOM      7  C   UNL     1       4.930  -1.214  -2.846  0.00  0.00    +0.032 C 
ATOM      8  C   UNL     1       4.013   0.007  -2.674  0.00  0.00    +0.165 C 
ENDROOT
BRANCH   8   9
ATOM      9  C   UNL     1       4.468   0.820  -1.490  0.00  0.00    +0.236 C 
ATOM     10  O   UNL     1       4.617   0.288  -0.410  0.00  0.00    -0.274 OA
ATOM     11  N   UNL     1       4.709   2.139  -1.631  0.00  0.00    -0.300 N 
ATOM     12  C   UNL     1       4.402   2.768  -2.896  0.00  0.00    +0.108 C 
ATOM     13  C   UNL     1       5.633   2.681  -3.832  0.00  0.00    +0.019 C 
ATOM     14  C   UNL     1       6.697   3.580  -3.361  0.00  0.00    +0.002 C 
ATOM     15  C   UNL     1       7.248   3.235  -1.981  0.00  0.00    +0.002 C 
ATOM     16  C   UNL     1       6.376   3.866  -0.923  0.00  0.00    +0.019 C 
ATOM     17  C   UNL     1       5.270   2.882  -0.486  0.00  0.00    +0.108 C 
ENDBRANCH   8   9
BRANCH   1  18
ATOM     18  O   UNL     1       0.657  -0.434  -1.220  0.00  0.00    -0.445 OA
BRANCH  18  20
ATOM     19  C   UNL     1      -0.054   1.574  -0.080  0.00  0.00    +0.055 C 
ATOM     20  C   UNL     1      -0.027   0.044  -0.061  0.00  0.00    +0.107 C 
ATOM     21  C   UNL     1       0.701  -0.437   1.196  0.00  0.00    +0.055 C 
ATOM     22  C   UNL     1      -1.460  -0.491  -0.057  0.00  0.00    +0.055 C 
ENDBRANCH  18  20
ENDBRANCH   1  18
TORSDOF 3
