REMARK  Name = ZINC03841363
REMARK  9 active torsions:
REMARK  status: ('A' for Active; 'I' for Inactive)
REMARK    1  A    between atoms: C_1  and  O_2
REMARK    2  A    between atoms: O_2  and  C_3
REMARK    3  A    between atoms: C_6  and  S_9
REMARK    4  A    between atoms: S_9  and  N_12
REMARK    5  A    between atoms: N_12  and  C_13
REMARK    6  A    between atoms: C_28  and  C_29
REMARK    7  A    between atoms: C_28  and  N_66
REMARK    8  A    between atoms: C_29  and  C_30
REMARK    9  A    between atoms: C_30  and  C_31
REMARK                            x       y       z     vdW  Elec       q    Type
REMARK                         _______ _______ _______ _____ _____    ______ ____
ROOT
ATOM      1  C   UNL     1       2.344   6.067  -6.429  0.00  0.00    +0.112 A 
ATOM      2  C   UNL     1       1.107   5.499  -6.566  0.00  0.00    +0.031 A 
ATOM      3  C   UNL     1      -0.022   6.254  -6.229  0.00  0.00    +0.023 A 
ATOM      4  C   UNL     1       0.104   7.534  -5.792  0.00  0.00    +0.023 A 
ATOM      5  N   UNL     1       1.323   8.126  -5.729  0.00  0.00    -0.310 N 
ATOM      6  C   UNL     1       2.439   7.397  -5.977  0.00  0.00    +0.274 A 
ATOM      7  O   UNL     1       3.539   7.900  -5.806  0.00  0.00    -0.266 OA
ATOM      8  C   UNL     1       1.513   9.542  -5.418  0.00  0.00    +0.127 C 
ATOM      9  C   UNL     1       0.286  10.165  -4.774  0.00  0.00    -0.007 C 
ATOM     10  C   UNL     1      -0.962   9.764  -5.565  0.00  0.00    +0.011 C 
ATOM     11  C   UNL     1      -1.160   8.255  -5.382  0.00  0.00    +0.020 C 
ATOM     12  C   UNL     1      -1.380   7.983  -3.884  0.00  0.00    -0.069 C 
ATOM     13  C   UNL     1       0.150   9.771  -3.311  0.00  0.00    -0.074 C 
ATOM     14  N   UNL     1      -0.121   8.325  -3.183  0.00  0.00    +0.380 N 
ATOM     15  H   UNL     1       0.651   7.802  -3.611  0.00  0.00    -0.082 HD
ENDROOT
BRANCH   1  16
ATOM     16  N   UNL     1       3.499   5.336  -6.734  0.00  0.00    -0.211 N 
ATOM     17  H   UNL     1       4.373   5.742  -6.624  0.00  0.00    +0.174 HD
BRANCH  16  18
ATOM     18  S   UNL     1       3.373   3.779  -7.283  0.00  0.00    +0.073 S 
ATOM     19  O   UNL     1       2.367   3.782  -8.287  0.00  0.00    -0.150 OA
ATOM     20  O   UNL     1       4.697   3.327  -7.532  0.00  0.00    -0.150 OA
BRANCH  18  24
ATOM     21  C   UNL     1       1.775   1.280  -3.861  0.00  0.00    +0.120 A 
ATOM     22  C   UNL     1       0.910   1.757  -4.836  0.00  0.00    +0.047 A 
ATOM     23  C   UNL     1       1.400   2.519  -5.879  0.00  0.00    +0.032 A 
ATOM     24  C   UNL     1       2.751   2.806  -5.952  0.00  0.00    +0.109 A 
ATOM     25  C   UNL     1       3.615   2.326  -4.985  0.00  0.00    +0.032 A 
ATOM     26  C   UNL     1       3.130   1.569  -3.937  0.00  0.00    +0.047 A 
BRANCH  21  28
ATOM     27  C   UNL     1       2.243   0.071  -1.868  0.00  0.00    +0.277 C 
ATOM     28  O   UNL     1       1.295   0.529  -2.835  0.00  0.00    -0.495 OA
ENDBRANCH  21  28
ENDBRANCH  18  24
ENDBRANCH  16  18
ENDBRANCH   1  16
BRANCH  14  29
ATOM     29  C   UNL     1      -0.220   7.955  -1.757  0.00  0.00    -0.078 C 
BRANCH  29  30
ATOM     30  C   UNL     1      -0.274   6.429  -1.648  0.00  0.00    -0.014 C 
BRANCH  30  31
ATOM     31  C   UNL     1      -0.353   6.026  -0.174  0.00  0.00    +0.033 C 
BRANCH  31  32
ATOM     32  C   UNL     1      -0.406   4.524  -0.066  0.00  0.00    -0.047 A 
ATOM     33  C   UNL     1       0.765   3.797   0.037  0.00  0.00    +0.003 A 
ATOM     34  C   UNL     1       0.717   2.419   0.136  0.00  0.00    +0.000 A 
ATOM     35  C   UNL     1      -0.503   1.768   0.132  0.00  0.00    +0.000 A 
ATOM     36  C   UNL     1      -1.674   2.495   0.023  0.00  0.00    +0.000 A 
ATOM     37  C   UNL     1      -1.625   3.873  -0.070  0.00  0.00    +0.003 A 
ENDBRANCH  31  32
ENDBRANCH  30  31
ENDBRANCH  29  30
ENDBRANCH  14  29
TORSDOF 8
