REMARK  Name = ZINC00752684
REMARK  5 active torsions:
REMARK  status: ('A' for Active; 'I' for Inactive)
REMARK    1  A    between atoms: C_1  and  C_2
REMARK    2  A    between atoms: C_6  and  C_8
REMARK    3  A    between atoms: C_10  and  C_28
REMARK    4  A    between atoms: C_11  and  N_27
REMARK    5  A    between atoms: C_18  and  C_21
REMARK                            x       y       z     vdW  Elec       q    Type
REMARK                         _______ _______ _______ _____ _____    ______ ____
ROOT
ATOM      1  C   UNL     1      -0.070   5.347   0.031  0.00  0.00    +0.101 C 
ATOM      2  C   UNL     1      -0.792   5.843  -1.192  0.00  0.00    +0.098 C 
ATOM      3  C   UNL     1      -2.072   6.278  -1.103  0.00  0.00    +0.198 C 
ATOM      4  O   UNL     1      -2.731   6.277   0.067  0.00  0.00    -0.445 OA
ATOM      5  C   UNL     1      -2.042   6.269   1.223  0.00  0.00    +0.115 C 
ATOM      6  C   UNL     1      -0.773   5.831   1.276  0.00  0.00    +0.046 C 
ATOM      7  C   UNL     1      -0.055   5.809   2.490  0.00  0.00    +0.164 C 
ATOM      8  O   UNL     1       1.095   5.419   2.497  0.00  0.00    -0.292 OA
ATOM      9  C   UNL     1      -0.690   6.260   3.778  0.00  0.00    +0.088 C 
ATOM     10  C   UNL     1      -2.202   6.029   3.692  0.00  0.00    +0.034 C 
ATOM     11  C   UNL     1      -2.737   6.772   2.466  0.00  0.00    +0.083 C 
ENDROOT
BRANCH   1  17
ATOM     12  C   UNL     1       2.490   1.048  -0.016  0.00  0.00    +0.044 C 
ATOM     13  C   UNL     1       1.175   1.783   0.000  0.00  0.00    -0.050 A 
ATOM     14  C   UNL     1      -0.013   1.076   0.008  0.00  0.00    +0.003 A 
ATOM     15  C   UNL     1      -1.219   1.750   0.017  0.00  0.00    +0.001 A 
ATOM     16  C   UNL     1      -1.238   3.133   0.029  0.00  0.00    +0.004 A 
ATOM     17  C   UNL     1      -0.050   3.840   0.022  0.00  0.00    -0.034 A 
ATOM     18  C   UNL     1       1.157   3.165   0.008  0.00  0.00    +0.008 A 
ENDBRANCH   1  17
BRANCH  10  19
ATOM     19  C   UNL     1      -2.867   6.561   4.936  0.00  0.00    -0.043 A 
ATOM     20  C   UNL     1      -2.731   7.894   5.277  0.00  0.00    +0.004 A 
ATOM     21  C   UNL     1      -3.344   8.382   6.415  0.00  0.00    +0.000 A 
ATOM     22  C   UNL     1      -4.085   7.535   7.218  0.00  0.00    +0.000 A 
ATOM     23  C   UNL     1      -4.217   6.201   6.880  0.00  0.00    +0.000 A 
ATOM     24  C   UNL     1      -3.607   5.714   5.739  0.00  0.00    +0.004 A 
ENDBRANCH  10  19
BRANCH   3  25
ATOM     25  N   UNL     1      -2.708   6.730  -2.232  0.00  0.00    -0.328 N 
ATOM     26  H   UNL     1      -2.241   6.736  -3.082  0.00  0.00    +0.145 HD
ATOM     27  H   UNL     1      -3.624   7.044  -2.180  0.00  0.00    +0.145 HD
ENDBRANCH   3  25
BRANCH   2  28
ATOM     28  C   UNL     1      -0.122   5.855  -2.457  0.00  0.00    +0.101 C 
ATOM     29  N   UNL     1       0.410   5.865  -3.461  0.00  0.00    -0.191 NA
ENDBRANCH   2  28
TORSDOF 4
