REMARK  Name = ZINC09260590
REMARK  10 active torsions:
REMARK  status: ('A' for Active; 'I' for Inactive)
REMARK    1  A    between atoms: C_1  and  C_2
REMARK    2  A    between atoms: C_6  and  N_9
REMARK    3  A    between atoms: C_7  and  C_8
REMARK    4  A    between atoms: C_10  and  C_12
REMARK    5  A    between atoms: C_12  and  S_13
REMARK    6  A    between atoms: S_13  and  C_14
REMARK    7  A    between atoms: C_17  and  C_20
REMARK    8  A    between atoms: N_18  and  C_19
REMARK    9  A    between atoms: C_20  and  N_21
REMARK   10  A    between atoms: C_22  and  C_24
REMARK                            x       y       z     vdW  Elec       q    Type
REMARK                         _______ _______ _______ _____ _____    ______ ____
ROOT
ATOM      1  C   UNL     1       7.530  -5.454   4.059  0.00  0.00    +0.192 A 
ATOM      2  N   UNL     1       7.039  -5.016   5.195  0.00  0.00    -0.122 NA
ATOM      3  N   UNL     1       6.732  -3.772   5.087  0.00  0.00    -0.132 NA
ATOM      4  C   UNL     1       6.998  -3.349   3.884  0.00  0.00    +0.151 A 
ATOM      5  N   UNL     1       7.519  -4.404   3.187  0.00  0.00    -0.308 N 
ATOM      6  C   UNL     1       7.971  -4.406   1.793  0.00  0.00    +0.152 C 
ENDROOT
BRANCH   1   7
ATOM      7  S   UNL     1       8.096  -7.088   3.723  0.00  0.00    -0.077 S 
BRANCH   7   8
ATOM      8  C   UNL     1       7.792  -7.863   5.331  0.00  0.00    +0.173 C 
BRANCH   8  10
ATOM      9  N   UNL     1       8.078 -10.089   6.370  0.00  0.00    -0.285 N 
ATOM     10  C   UNL     1       8.213  -9.309   5.279  0.00  0.00    +0.227 C 
ATOM     11  O   UNL     1       8.674  -9.771   4.257  0.00  0.00    -0.275 OA
ATOM     12  H   UNL     1       7.785  -9.702   7.210  0.00  0.00    +0.155 HD
BRANCH   9  18
ATOM     13  C   UNL     1       9.402 -14.273   8.587  0.00  0.00    +0.044 C 
ATOM     14  C   UNL     1       9.004 -13.510   7.349  0.00  0.00    -0.046 A 
ATOM     15  C   UNL     1       8.916 -14.163   6.133  0.00  0.00    +0.004 A 
ATOM     16  C   UNL     1       8.551 -13.467   4.996  0.00  0.00    +0.002 A 
ATOM     17  C   UNL     1       8.273 -12.116   5.071  0.00  0.00    +0.023 A 
ATOM     18  C   UNL     1       8.360 -11.458   6.290  0.00  0.00    +0.037 A 
ATOM     19  C   UNL     1       8.732 -12.159   7.430  0.00  0.00    -0.026 A 
ATOM     20  C   UNL     1       8.834 -11.446   8.754  0.00  0.00    +0.046 C 
ENDBRANCH   9  18
ENDBRANCH   8  10
ENDBRANCH   7   8
ENDBRANCH   1   7
BRANCH   4  21
ATOM     21  C   UNL     1       6.777  -1.953   3.360  0.00  0.00    +0.181 C 
BRANCH  21  22
ATOM     22  N   UNL     1       5.436  -1.857   2.778  0.00  0.00    -0.304 N 
ATOM     23  C   UNL     1       5.016  -0.693   2.243  0.00  0.00    +0.245 C 
ATOM     24  O   UNL     1       5.750   0.277   2.244  0.00  0.00    -0.270 OA
ATOM     25  H   UNL     1       4.851  -2.630   2.777  0.00  0.00    +0.149 HD
BRANCH  23  26
ATOM     26  C   UNL     1       3.665  -0.595   1.657  0.00  0.00    +0.040 A 
ATOM     27  C   UNL     1       2.820  -1.708   1.656  0.00  0.00    +0.017 A 
ATOM     28  C   UNL     1       1.559  -1.615   1.109  0.00  0.00    +0.050 A 
ATOM     29  C   UNL     1       1.123  -0.417   0.558  0.00  0.00    +0.166 A 
ATOM     30  C   UNL     1       1.962   0.698   0.556  0.00  0.00    +0.167 A 
ATOM     31  C   UNL     1       3.227   0.611   1.103  0.00  0.00    +0.062 A 
ATOM     32  O   UNL     1       1.303   1.737  -0.036  0.00  0.00    -0.453 OA
ATOM     33  C   UNL     1      -0.088   1.365  -0.028  0.00  0.00    +0.466 C 
ATOM     34  O   UNL     1      -0.057  -0.074  -0.034  0.00  0.00    -0.453 OA
ENDBRANCH  23  26
ENDBRANCH  21  22
ENDBRANCH   4  21
TORSDOF 7
