REMARK  Name = ZINC66780386
REMARK  6 active torsions:
REMARK  status: ('A' for Active; 'I' for Inactive)
REMARK    1  A    between atoms: C_1  and  C_2
REMARK    2  A    between atoms: C_2  and  C_3
REMARK    3  A    between atoms: C_9  and  C_11
REMARK    4  A    between atoms: C_11  and  C_13
REMARK    5  A    between atoms: C_11  and  N_24
REMARK    6  A    between atoms: C_13  and  C_14
REMARK                            x       y       z     vdW  Elec       q    Type
REMARK                         _______ _______ _______ _____ _____    ______ ____
ROOT
ATOM      1  C   UNL     1      -7.335  -2.716   0.505  0.00  0.00    +0.165 C 
ENDROOT
BRANCH   1   8
ATOM      2  C   UNL     1      -1.412  -0.526   0.013  0.00  0.00    +0.103 A 
ATOM      3  N   UNL     1      -2.212  -0.818  -0.993  0.00  0.00    -0.145 NA
ATOM      4  N   UNL     1      -3.375  -1.249  -0.747  0.00  0.00    -0.126 NA
ATOM      5  C   UNL     1      -3.811  -1.414   0.486  0.00  0.00    +0.188 A 
ATOM      6  S   UNL     1      -2.474  -0.930   1.392  0.00  0.00    -0.035 S 
ATOM      7  N   UNL     1      -5.048  -1.872   0.925  0.00  0.00    -0.262 N 
ATOM      8  C   UNL     1      -5.994  -2.219   0.030  0.00  0.00    +0.239 C 
ATOM      9  O   UNL     1      -5.766  -2.132  -1.158  0.00  0.00    -0.273 OA
ATOM     10  H   UNL     1      -5.231  -1.942   1.875  0.00  0.00    +0.157 HD
BRANCH   2  12
ATOM     11  C   UNL     1      -0.019   1.526   0.010  0.00  0.00    +0.011 C 
ATOM     12  C   UNL     1       0.002  -0.004   0.002  0.00  0.00    +0.061 C 
ENDBRANCH   2  12
ENDBRANCH   1   8
BRANCH   1  13
ATOM     13  N   UNL     1      -7.991  -3.459  -0.574  0.00  0.00    -0.288 N 
ATOM     14  C   UNL     1      -8.266  -2.848  -1.743  0.00  0.00    +0.298 C 
ATOM     15  O   UNL     1      -7.970  -1.679  -1.902  0.00  0.00    -0.253 OA
ATOM     16  N   UNL     1      -8.870  -3.532  -2.735  0.00  0.00    -0.313 N 
ATOM     17  H   UNL     1      -8.227  -4.392  -0.447  0.00  0.00    +0.151 HD
ATOM     18  H   UNL     1      -9.106  -4.464  -2.608  0.00  0.00    +0.146 HD
ATOM     19  H   UNL     1      -9.068  -3.091  -3.577  0.00  0.00    +0.146 HD
ENDBRANCH   1  13
BRANCH   1  20
ATOM     20  C   UNL     1      -8.207  -1.525   0.907  0.00  0.00    +0.069 C 
BRANCH  20  21
ATOM     21  C   UNL     1      -9.501  -2.026   1.497  0.00  0.00    -0.020 A 
ATOM     22  C   UNL     1     -10.660  -2.205   0.844  0.00  0.00    +0.087 A 
ATOM     23  N   UNL     1     -11.614  -2.672   1.706  0.00  0.00    -0.360 N 
ATOM     24  H   UNL     1     -12.531  -2.876   1.465  0.00  0.00    +0.165 HD
ATOM     25  C   UNL     1     -11.079  -2.808   2.967  0.00  0.00    +0.047 A 
ATOM     26  C   UNL     1      -9.730  -2.415   2.890  0.00  0.00    +0.003 A 
ATOM     27  C   UNL     1      -8.927  -2.456   4.031  0.00  0.00    +0.010 A 
ATOM     28  C   UNL     1      -9.454  -2.880   5.218  0.00  0.00    +0.001 A 
ATOM     29  C   UNL     1     -10.783  -3.273   5.298  0.00  0.00    +0.002 A 
ATOM     30  C   UNL     1     -11.597  -3.232   4.187  0.00  0.00    +0.026 A 
ENDBRANCH  20  21
ENDBRANCH   1  20
TORSDOF 5
