REMARK  Name = ZINC22064175
REMARK  2 active torsions:
REMARK  status: ('A' for Active; 'I' for Inactive)
REMARK    1  A    between atoms: C_7  and  C_16
REMARK    2  A    between atoms: C_9  and  C_11
REMARK                            x       y       z     vdW  Elec       q    Type
REMARK                         _______ _______ _______ _____ _____    ______ ____
ROOT
ATOM      1  C   UNL     1       1.175   9.916  -0.857  0.00  0.00    +0.001 A 
ATOM      2  C   UNL     1      -0.173   9.567  -0.841  0.00  0.00    +0.002 A 
ATOM      3  C   UNL     1      -0.566   8.295  -0.557  0.00  0.00    +0.028 A 
ATOM      4  C   UNL     1       0.402   7.312  -0.275  0.00  0.00    +0.072 A 
ATOM      5  C   UNL     1       1.772   7.674  -0.293  0.00  0.00    +0.013 A 
ATOM      6  C   UNL     1       2.140   8.991  -0.588  0.00  0.00    +0.011 A 
ATOM      7  C   UNL     1       2.774   6.648   0.001  0.00  0.00    +0.048 A 
ATOM      8  C   UNL     1       2.314   5.372   0.289  0.00  0.00    +0.042 A 
ATOM      9  C   UNL     1       0.931   5.117   0.275  0.00  0.00    +0.079 A 
ATOM     10  N   UNL     1       0.046   6.058   0.006  0.00  0.00    -0.246 NA
ENDROOT
BRANCH   7  11
ATOM     11  C   UNL     1       4.219   6.961  -0.002  0.00  0.00    +0.252 C 
ATOM     12  O   UNL     1       4.715   7.534  -0.953  0.00  0.00    -0.270 OA
ATOM     13  N   UNL     1       4.986   6.612   1.049  0.00  0.00    -0.257 N 
ATOM     14  C   UNL     1       4.430   5.842   2.172  0.00  0.00    +0.210 C 
ATOM     15  C   UNL     1       4.955   6.410   3.466  0.00  0.00    +0.235 C 
ATOM     16  O   UNL     1       4.285   6.324   4.473  0.00  0.00    -0.274 OA
ATOM     17  N   UNL     1       6.159   7.011   3.517  0.00  0.00    -0.283 N 
ATOM     18  C   UNL     1       6.929   7.168   2.359  0.00  0.00    +0.055 A 
ATOM     19  C   UNL     1       6.342   6.967   1.105  0.00  0.00    +0.058 A 
ATOM     20  C   UNL     1       7.088   7.130  -0.045  0.00  0.00    +0.025 A 
ATOM     21  C   UNL     1       8.424   7.481   0.046  0.00  0.00    +0.002 A 
ATOM     22  C   UNL     1       9.010   7.673   1.284  0.00  0.00    +0.002 A 
ATOM     23  C   UNL     1       8.267   7.518   2.440  0.00  0.00    +0.025 A 
ATOM     24  H   UNL     1       6.547   7.386   4.476  0.00  0.00    +0.155 HD
ENDBRANCH   7  11
BRANCH   9  25
ATOM     25  C   UNL     1       0.455   3.754   0.576  0.00  0.00    +0.038 A 
ATOM     26  C   UNL     1      -0.831   3.280   0.625  0.00  0.00    +0.017 A 
ATOM     27  C   UNL     1      -1.035   1.953   0.925  0.00  0.00    +0.008 A 
ATOM     28  C   UNL     1       0.039   1.157   1.174  0.00  0.00    +0.046 A 
ATOM     29  S   UNL     1       1.401   2.293   0.971  0.00  0.00    -0.095 S 
ENDBRANCH   9  25
TORSDOF 2
