REMARK  Name = ZINC20059537
REMARK  8 active torsions:
REMARK  status: ('A' for Active; 'I' for Inactive)
REMARK    1  A    between atoms: C_4  and  S_7
REMARK    2  A    between atoms: S_7  and  N_10
REMARK    3  A    between atoms: N_10  and  C_11
REMARK    4  A    between atoms: N_10  and  C_26
REMARK    5  A    between atoms: C_11  and  C_12
REMARK    6  A    between atoms: N_14  and  N_15
REMARK    7  A    between atoms: C_16  and  C_17
REMARK    8  A    between atoms: C_20  and  N_23
REMARK                            x       y       z     vdW  Elec       q    Type
REMARK                         _______ _______ _______ _____ _____    ______ ____
ROOT
ATOM      1  N   UNL     1       1.007   3.536   0.021  0.00  0.00    -0.194 N 
ENDROOT
BRANCH   1   2
ATOM      2  C   UNL     1       0.767   4.195  -1.188  0.00  0.00    +0.053 A 
ATOM      3  C   UNL     1       1.096   5.538  -1.325  0.00  0.00    +0.026 A 
ATOM      4  C   UNL     1       0.864   6.186  -2.523  0.00  0.00    +0.023 A 
ATOM      5  C   UNL     1       0.294   5.502  -3.582  0.00  0.00    +0.059 A 
ATOM      6  C   UNL     1      -0.040   4.165  -3.446  0.00  0.00    +0.061 A 
ATOM      7  C   UNL     1       0.196   3.510  -2.252  0.00  0.00    +0.046 A 
ATOM      8 CL   UNL     1      -0.755   3.310  -4.777  0.00  0.00    -0.082 Cl
ATOM      9 CL   UNL     1      -0.002   6.321  -5.084  0.00  0.00    -0.082 Cl
ENDBRANCH   1   2
BRANCH   1  10
ATOM     10  S   UNL     1       0.331   4.105   1.422  0.00  0.00    +0.075 S 
ATOM     11  O   UNL     1      -0.734   4.965   1.039  0.00  0.00    -0.150 OA
ATOM     12  O   UNL     1       0.135   2.978   2.265  0.00  0.00    -0.150 OA
BRANCH  10  16
ATOM     13  C   UNL     1       3.433   6.709   3.444  0.00  0.00    +0.000 A 
ATOM     14  C   UNL     1       2.466   7.283   2.640  0.00  0.00    +0.002 A 
ATOM     15  C   UNL     1       1.519   6.488   2.022  0.00  0.00    +0.029 A 
ATOM     16  C   UNL     1       1.539   5.118   2.209  0.00  0.00    +0.109 A 
ATOM     17  C   UNL     1       2.502   4.545   3.017  0.00  0.00    +0.029 A 
ATOM     18  C   UNL     1       3.452   5.339   3.631  0.00  0.00    +0.002 A 
ENDBRANCH  10  16
ENDBRANCH   1  10
BRANCH   1  19
ATOM     19  C   UNL     1       1.856   2.343   0.049  0.00  0.00    +0.228 C 
BRANCH  19  20
ATOM     20  C   UNL     1       1.026   1.129  -0.282  0.00  0.00    +0.251 C 
ATOM     21  O   UNL     1      -0.156   1.249  -0.523  0.00  0.00    -0.272 OA
ATOM     22  N   UNL     1       1.600  -0.090  -0.316  0.00  0.00    -0.206 N 
ATOM     23  H   UNL     1       2.674  -0.199  -0.102  0.00  0.00    +0.177 HD
BRANCH  22  24
ATOM     24  N   UNL     1       0.829  -1.219  -0.623  0.00  0.00    -0.188 NA
ATOM     25  C   UNL     1       1.381  -2.393  -0.656  0.00  0.00    +0.138 C 
BRANCH  25  26
ATOM     26  C   UNL     1       0.570  -3.581  -0.980  0.00  0.00    -0.005 A 
ATOM     27  C   UNL     1      -0.795  -3.447  -1.246  0.00  0.00    +0.012 A 
ATOM     28  C   UNL     1      -1.547  -4.562  -1.554  0.00  0.00    +0.033 A 
ATOM     29  C   UNL     1      -0.954  -5.812  -1.588  0.00  0.00    +0.126 A 
ATOM     30  C   UNL     1       0.396  -5.953  -1.319  0.00  0.00    +0.033 A 
ATOM     31  C   UNL     1       1.161  -4.846  -1.015  0.00  0.00    +0.012 A 
BRANCH  29  32
ATOM     32  N   UNL     1      -1.769  -7.005  -1.913  0.00  0.00    +0.056 N 
ATOM     33  O   UNL     1      -1.251  -8.106  -1.943  0.00  0.00    -0.126 OA
ATOM     34  O   UNL     1      -2.958  -6.884  -2.150  0.00  0.00    -0.126 OA
ENDBRANCH  29  32
ENDBRANCH  25  26
ENDBRANCH  22  24
ENDBRANCH  19  20
ENDBRANCH   1  19
TORSDOF 8
