REMARK  Name = ZINC09576057
REMARK  18 active torsions:
REMARK  status: ('A' for Active; 'I' for Inactive)
REMARK    1  A    between atoms: C_1  and  C_2
REMARK    2  A    between atoms: C_2  and  C_3
REMARK    3  A    between atoms: C_2  and  C_4
REMARK    4  A    between atoms: C_4  and  N_69
REMARK    5  A    between atoms: C_5  and  C_6
REMARK    6  A    between atoms: C_5  and  N_69
REMARK    7  A    between atoms: C_7  and  O_29
REMARK    8  A    between atoms: C_14  and  C_15
REMARK    9  A    between atoms: C_17  and  O_25
REMARK   10  A    between atoms: C_18  and  O_23
REMARK   11  A    between atoms: C_20  and  O_21
REMARK   12  A    between atoms: O_21  and  C_22
REMARK   13  A    between atoms: O_23  and  C_24
REMARK   14  A    between atoms: O_25  and  C_26
REMARK   15  A    between atoms: C_30  and  C_31
REMARK   16  A    between atoms: C_30  and  N_69
REMARK   17  A    between atoms: C_31  and  C_32
REMARK   18  A    between atoms: C_31  and  C_33
REMARK                            x       y       z     vdW  Elec       q    Type
REMARK                         _______ _______ _______ _____ _____    ______ ____
ROOT
ATOM      1  C   UNL     1      -7.070   1.896   7.681  0.00  0.00    +0.020 A 
ATOM      2  C   UNL     1      -8.043   2.407   8.525  0.00  0.00    +0.122 A 
ATOM      3  C   UNL     1      -9.265   1.758   8.673  0.00  0.00    +0.046 A 
ATOM      4  C   UNL     1      -9.518   0.606   7.983  0.00  0.00    +0.019 A 
ATOM      5  C   UNL     1      -8.548   0.079   7.129  0.00  0.00    +0.068 A 
ATOM      6  C   UNL     1      -7.311   0.725   6.973  0.00  0.00    +0.144 A 
ATOM      7  O   UNL     1      -6.542   0.031   6.107  0.00  0.00    -0.451 OA
ATOM      8  C   UNL     1      -7.179  -1.069   5.638  0.00  0.00    +0.176 C 
ATOM      9  C   UNL     1      -6.678  -1.971   4.753  0.00  0.00    +0.062 C 
ATOM     10  C   UNL     1      -8.505  -1.114   6.264  0.00  0.00    +0.231 C 
ATOM     11  O   UNL     1      -9.377  -1.951   6.105  0.00  0.00    -0.283 OA
ENDROOT
BRANCH   9  12
ATOM     12  C   UNL     1      -5.276  -1.885   4.334  0.00  0.00    +0.024 A 
ATOM     13  C   UNL     1      -4.298  -1.442   5.235  0.00  0.00    +0.061 A 
ATOM     14  C   UNL     1      -2.980  -1.368   4.837  0.00  0.00    +0.162 A 
ATOM     15  C   UNL     1      -2.620  -1.724   3.535  0.00  0.00    +0.165 A 
ATOM     16  C   UNL     1      -3.581  -2.164   2.639  0.00  0.00    +0.095 A 
ATOM     17  C   UNL     1      -4.907  -2.248   3.027  0.00  0.00    +0.131 A 
BRANCH  17  18
ATOM     18  O   UNL     1      -5.848  -2.678   2.148  0.00  0.00    -0.494 OA
ATOM     19  C   UNL     1      -5.399  -3.028   0.837  0.00  0.00    +0.277 C 
ENDBRANCH  17  18
BRANCH  15  20
ATOM     20  O   UNL     1      -1.320  -1.644   3.148  0.00  0.00    -0.491 OA
ATOM     21  C   UNL     1      -1.019  -2.028   1.805  0.00  0.00    +0.277 C 
ENDBRANCH  15  20
BRANCH  14  22
ATOM     22  O   UNL     1      -2.029  -0.943   5.712  0.00  0.00    -0.491 OA
ATOM     23  C   UNL     1      -2.451  -0.684   7.053  0.00  0.00    +0.277 C 
ENDBRANCH  14  22
ENDBRANCH   9  12
BRANCH   2  24
ATOM     24  O   UNL     1      -7.801   3.551   9.215  0.00  0.00    -0.506 OA
ATOM     25  H   UNL     1      -8.063   4.356   8.746  0.00  0.00    +0.292 HD
ENDBRANCH   2  24
BRANCH   1  26
ATOM     26  C   UNL     1      -5.751   2.610   7.532  0.00  0.00    -0.036 C 
BRANCH  26  27
ATOM     27  N   UNL     1      -5.986   3.903   6.856  0.00  0.00    +0.383 N 
ATOM     28  H   UNL     1      -6.803   4.358   7.280  0.00  0.00    -0.081 HD
BRANCH  27  29
ATOM     29  C   UNL     1      -4.809   4.781   7.022  0.00  0.00    -0.075 C 
BRANCH  29  31
ATOM     30  C   UNL     1      -6.232   6.484   8.170  0.00  0.00    +0.005 C 
ATOM     31  C   UNL     1      -5.279   6.237   6.999  0.00  0.00    -0.034 C 
ATOM     32  C   UNL     1      -4.069   7.166   7.120  0.00  0.00    +0.005 C 
ENDBRANCH  29  31
ENDBRANCH  27  29
BRANCH  27  33
ATOM     33  C   UNL     1      -6.252   3.682   5.419  0.00  0.00    -0.075 C 
BRANCH  33  34
ATOM     34  C   UNL     1      -5.263   2.666   4.842  0.00  0.00    -0.034 C 
ATOM     35  C   UNL     1      -5.436   2.592   3.324  0.00  0.00    +0.005 C 
ATOM     36  C   UNL     1      -3.834   3.100   5.173  0.00  0.00    +0.005 C 
ENDBRANCH  33  34
ENDBRANCH  27  33
ENDBRANCH  26  27
ENDBRANCH   1  26
TORSDOF 11
