REMARK  Name = ZINC12642482
REMARK  8 active torsions:
REMARK  status: ('A' for Active; 'I' for Inactive)
REMARK    1  A    between atoms: C_4  and  C_7
REMARK    2  A    between atoms: C_7  and  N_60
REMARK    3  A    between atoms: C_8  and  C_9
REMARK    4  A    between atoms: C_8  and  N_60
REMARK    5  A    between atoms: C_15  and  C_17
REMARK    6  A    between atoms: C_15  and  C_24
REMARK    7  A    between atoms: C_15  and  N_60
REMARK    8  A    between atoms: N_28  and  C_29
REMARK                            x       y       z     vdW  Elec       q    Type
REMARK                         _______ _______ _______ _____ _____    ______ ____
ROOT
ATOM      1  C   UNL     1       5.287  -1.097  -0.941  0.00  0.00    +0.034 C 
ENDROOT
BRANCH   1   2
ATOM      2  C   UNL     1       5.133  -2.352  -0.121  0.00  0.00    -0.053 A 
ATOM      3  C   UNL     1       4.034  -2.508   0.703  0.00  0.00    +0.005 A 
ATOM      4  C   UNL     1       3.889  -3.661   1.451  0.00  0.00    +0.038 A 
ATOM      5  C   UNL     1       4.850  -4.656   1.383  0.00  0.00    +0.123 A 
ATOM      6  C   UNL     1       5.952  -4.496   0.561  0.00  0.00    +0.038 A 
ATOM      7  C   UNL     1       6.093  -3.345  -0.191  0.00  0.00    +0.005 A 
ATOM      8  F   UNL     1       4.712  -5.781   2.118  0.00  0.00    -0.205 F 
ENDBRANCH   1   2
BRANCH   1   9
ATOM      9  C   UNL     1       5.842   0.004  -0.074  0.00  0.00    +0.143 A 
ATOM     10  N   UNL     1       5.222   0.619   0.903  0.00  0.00    -0.115 NA
ATOM     11  N   UNL     1       6.029   1.492   1.400  0.00  0.00    -0.023 NA
ATOM     12  N   UNL     1       7.145   1.455   0.760  0.00  0.00    -0.044 NA
ATOM     13  N   UNL     1       7.070   0.550  -0.156  0.00  0.00    -0.227 N 
BRANCH  13  14
ATOM     14  C   UNL     1       8.122   0.185  -1.108  0.00  0.00    +0.111 C 
ATOM     15  C   UNL     1       9.392  -0.253  -0.349  0.00  0.00    +0.027 C 
ATOM     16  C   UNL     1      10.557   0.303  -1.206  0.00  0.00    +0.002 C 
ATOM     17  C   UNL     1      10.010   1.673  -1.680  0.00  0.00    +0.002 C 
ATOM     18  C   UNL     1       8.515   1.409  -1.954  0.00  0.00    +0.027 C 
ENDBRANCH  13  14
ENDBRANCH   1   9
BRANCH   1  19
ATOM     19  N   UNL     1       3.958  -0.695  -1.446  0.00  0.00    +0.394 N 
ATOM     20  H   UNL     1       3.263  -0.831  -0.703  0.00  0.00    -0.079 HD
BRANCH  19  21
ATOM     21  C   UNL     1       3.586  -1.530  -2.609  0.00  0.00    -0.041 C 
BRANCH  21  25
ATOM     22  C   UNL     1       2.189  -5.308  -1.187  0.00  0.00    +0.000 A 
ATOM     23  C   UNL     1       3.499  -5.169  -1.606  0.00  0.00    +0.000 A 
ATOM     24  C   UNL     1       3.951  -3.946  -2.066  0.00  0.00    +0.002 A 
ATOM     25  C   UNL     1       3.093  -2.863  -2.107  0.00  0.00    -0.064 A 
ATOM     26  C   UNL     1       1.783  -3.002  -1.689  0.00  0.00    +0.002 A 
ATOM     27  C   UNL     1       1.331  -4.225  -1.228  0.00  0.00    +0.000 A 
ENDBRANCH  21  25
ENDBRANCH  19  21
BRANCH  19  28
ATOM     28  C   UNL     1       3.974   0.731  -1.833  0.00  0.00    -0.040 C 
BRANCH  28  29
ATOM     29  C   UNL     1       2.553   1.207  -1.986  0.00  0.00    -0.046 A 
ATOM     30  C   UNL     1       1.922   1.152  -3.220  0.00  0.00    +0.005 A 
ATOM     31  C   UNL     1       0.612   1.597  -3.312  0.00  0.00    +0.020 A 
ATOM     32  C   UNL     1      -0.014   2.087  -2.181  0.00  0.00    +0.111 A 
ATOM     33  N   UNL     1       0.618   2.129  -1.025  0.00  0.00    -0.263 NA
ATOM     34  C   UNL     1       1.863   1.710  -0.899  0.00  0.00    +0.112 A 
ENDBRANCH  28  29
ENDBRANCH  19  28
ENDBRANCH   1  19
TORSDOF 8
