REMARK  Name = ZINC35306503
REMARK  6 active torsions:
REMARK  status: ('A' for Active; 'I' for Inactive)
REMARK    1  A    between atoms: C_1  and  C_2
REMARK    2  A    between atoms: C_5  and  C_20
REMARK    3  A    between atoms: C_6  and  S_8
REMARK    4  A    between atoms: S_8  and  N_11
REMARK    5  A    between atoms: N_11  and  C_12
REMARK    6  A    between atoms: C_16  and  C_17
REMARK                            x       y       z     vdW  Elec       q    Type
REMARK                         _______ _______ _______ _____ _____    ______ ____
ROOT
ATOM      1  S   UNL     1       0.463  -2.837   2.462  0.00  0.00    +0.073 S 
ATOM      2  O   UNL     1       0.355  -1.893   3.518  0.00  0.00    -0.150 OA
ATOM      3  O   UNL     1      -0.385  -3.974   2.367  0.00  0.00    -0.150 OA
ENDROOT
BRANCH   1   9
ATOM      4  C   UNL     1      -0.431   1.605  -0.144  0.00  0.00    +0.044 C 
ATOM      5  C   UNL     1      -0.147   0.126  -0.183  0.00  0.00    -0.049 A 
ATOM      6  C   UNL     1      -0.038  -0.526  -1.398  0.00  0.00    +0.004 A 
ATOM      7  C   UNL     1       0.223  -1.883  -1.434  0.00  0.00    +0.005 A 
ATOM      8  C   UNL     1       0.376  -2.588  -0.255  0.00  0.00    -0.024 A 
ATOM      9  C   UNL     1       0.268  -1.937   0.959  0.00  0.00    +0.112 A 
ATOM     10  C   UNL     1       0.012  -0.579   0.995  0.00  0.00    +0.032 A 
ATOM     11  C   UNL     1       0.659  -4.068  -0.294  0.00  0.00    +0.046 C 
ENDBRANCH   1   9
BRANCH   1  12
ATOM     12  N   UNL     1       2.017  -3.407   2.493  0.00  0.00    -0.215 N 
ATOM     13  H   UNL     1       2.183  -4.363   2.519  0.00  0.00    +0.174 HD
BRANCH  12  14
ATOM     14  C   UNL     1       3.084  -2.517   2.483  0.00  0.00    +0.069 A 
ATOM     15  C   UNL     1       3.035  -1.298   3.129  0.00  0.00    +0.033 A 
ATOM     16  C   UNL     1       4.113  -0.481   3.077  0.00  0.00    +0.048 A 
ATOM     17  S   UNL     1       5.235  -1.325   2.154  0.00  0.00    -0.088 S 
ATOM     18  C   UNL     1       4.285  -2.796   1.822  0.00  0.00    +0.123 A 
BRANCH  18  19
ATOM     19  C   UNL     1       4.648  -3.939   1.085  0.00  0.00    +0.395 C 
ATOM     20  O   UNL     1       3.784  -4.945   0.947  0.00  0.00    -0.240 OA
ATOM     21  O   UNL     1       5.854  -4.015   0.524  0.00  0.00    -0.240 OA
ENDBRANCH  18  19
ENDBRANCH  12  14
ENDBRANCH   1  12
TORSDOF 4
