REMARK  Name = ZINC02457857
REMARK  10 active torsions:
REMARK  status: ('A' for Active; 'I' for Inactive)
REMARK    1  A    between atoms: C_1  and  C_2
REMARK    2  A    between atoms: C_2  and  C_3
REMARK    3  A    between atoms: C_3  and  C_5
REMARK    4  A    between atoms: C_3  and  N_6
REMARK    5  A    between atoms: C_7  and  C_9
REMARK    6  A    between atoms: C_9  and  O_30
REMARK    7  A    between atoms: N_19  and  C_20
REMARK    8  A    between atoms: C_23  and  O_26
REMARK    9  A    between atoms: O_26  and  C_27
REMARK   10  A    between atoms: C_27  and  C_28
REMARK                            x       y       z     vdW  Elec       q    Type
REMARK                         _______ _______ _______ _____ _____    ______ ____
ROOT
ATOM      1  C   UNL     1      -0.460   8.379   0.903  0.00  0.00    +0.247 C 
ATOM      2  C   UNL     1      -0.633   9.859   1.156  0.00  0.00    +0.034 A 
ATOM      3  C   UNL     1      -0.062  10.798   0.329  0.00  0.00    +0.025 A 
ATOM      4  C   UNL     1      -0.238  12.146   0.595  0.00  0.00    +0.018 A 
ATOM      5  C   UNL     1      -0.987  12.543   1.689  0.00  0.00    +0.017 A 
ATOM      6  C   UNL     1      -1.561  11.602   2.520  0.00  0.00    +0.025 A 
ATOM      7  C   UNL     1      -1.387  10.250   2.258  0.00  0.00    +0.043 A 
ATOM      8  N   UNL     1      -1.959   9.284   3.086  0.00  0.00    -0.269 N 
ATOM      9  C   UNL     1      -1.820   7.969   2.876  0.00  0.00    +0.314 C 
ATOM     10  O   UNL     1      -2.354   7.198   3.650  0.00  0.00    -0.252 OA
ATOM     11  N   UNL     1      -1.118   7.460   1.847  0.00  0.00    -0.214 N 
ATOM     12 BR   UNL     1       0.544  13.443  -0.537  0.00  0.00    -0.050 Br
ATOM     13  H   UNL     1      -2.480   9.578   3.849  0.00  0.00    +0.156 HD
ENDROOT
BRANCH  11  14
ATOM     14  C   UNL     1      -1.009   6.073   1.680  0.00  0.00    +0.042 A 
ATOM     15  C   UNL     1      -1.856   5.410   0.802  0.00  0.00    +0.027 A 
ATOM     16  C   UNL     1      -1.748   4.044   0.637  0.00  0.00    +0.047 A 
ATOM     17  C   UNL     1      -0.793   3.333   1.349  0.00  0.00    +0.121 A 
ATOM     18  C   UNL     1       0.051   3.993   2.230  0.00  0.00    +0.047 A 
ATOM     19  C   UNL     1      -0.053   5.361   2.391  0.00  0.00    +0.027 A 
BRANCH  17  20
ATOM     20  O   UNL     1      -0.687   1.987   1.186  0.00  0.00    -0.492 OA
BRANCH  20  21
ATOM     21  C   UNL     1       0.319   1.318   1.950  0.00  0.00    +0.225 C 
ATOM     22  C   UNL     1       0.286  -0.179   1.636  0.00  0.00    +0.048 C 
ENDBRANCH  20  21
ENDBRANCH  17  20
ENDBRANCH  11  14
BRANCH   1  24
ATOM     23  N   UNL     1       1.703   8.084   2.067  0.00  0.00    -0.309 N 
ATOM     24  C   UNL     1       1.016   8.072   0.908  0.00  0.00    +0.269 C 
ATOM     25  O   UNL     1       1.585   7.815  -0.132  0.00  0.00    -0.270 OA
ATOM     26  H   UNL     1       1.248   8.290   2.898  0.00  0.00    +0.149 HD
BRANCH  23  27
ATOM     27  C   UNL     1       3.137   7.786   2.071  0.00  0.00    +0.070 C 
ATOM     28  C   UNL     1       3.343   6.271   2.135  0.00  0.00    +0.028 C 
BRANCH  27  30
ATOM     29  C   UNL     1       3.694   9.962   3.165  0.00  0.00    +0.005 C 
ATOM     30  C   UNL     1       3.791   8.441   3.290  0.00  0.00    +0.018 C 
ENDBRANCH  27  30
ENDBRANCH  23  27
ENDBRANCH   1  24
BRANCH   1  31
ATOM     31  O   UNL     1      -0.960   8.098  -0.406  0.00  0.00    -0.360 OA
ATOM     32  H   UNL     1      -0.582   8.657  -1.099  0.00  0.00    +0.213 HD
ENDBRANCH   1  31
TORSDOF 7
