REMARK  Name = ZINC64636518
REMARK  13 active torsions:
REMARK  status: ('A' for Active; 'I' for Inactive)
REMARK    1  A    between atoms: C_1  and  C_2
REMARK    2  A    between atoms: C_2  and  C_3
REMARK    3  A    between atoms: C_2  and  C_4
REMARK    4  A    between atoms: C_4  and  C_5
REMARK    5  A    between atoms: C_10  and  N_30
REMARK    6  A    between atoms: C_12  and  C_16
REMARK    7  A    between atoms: N_14  and  C_15
REMARK    8  A    between atoms: N_18  and  C_19
REMARK    9  A    between atoms: C_19  and  C_20
REMARK   10  A    between atoms: N_30  and  S_31
REMARK   11  A    between atoms: S_31  and  N_34
REMARK   12  A    between atoms: N_34  and  C_35
REMARK   13  A    between atoms: N_34  and  C_36
REMARK                            x       y       z     vdW  Elec       q    Type
REMARK                         _______ _______ _______ _____ _____    ______ ____
ROOT
ATOM      1  C   UNL     1      -1.511  -0.558  -0.165  0.00  0.00    +0.158 C 
ATOM      2  N   UNL     1      -1.424   0.762  -0.801  0.00  0.00    -0.324 N 
ATOM      3  C   UNL     1      -2.722   1.121  -1.192  0.00  0.00    +0.052 A 
ATOM      4  C   UNL     1      -3.186   2.262  -1.831  0.00  0.00    +0.049 A 
ATOM      5  C   UNL     1      -4.537   2.405  -2.125  0.00  0.00    +0.052 A 
ATOM      6  C   UNL     1      -5.433   1.409  -1.782  0.00  0.00    +0.039 A 
ATOM      7  C   UNL     1      -4.979   0.255  -1.139  0.00  0.00    +0.061 A 
ATOM      8  C   UNL     1      -3.614   0.111  -0.842  0.00  0.00    +0.064 A 
ATOM      9  N   UNL     1      -2.928  -0.933  -0.215  0.00  0.00    -0.313 N 
ATOM     10  C   UNL     1      -3.515  -2.174   0.298  0.00  0.00    +0.131 C 
ATOM     11  H   UNL     1      -0.619   1.289  -0.927  0.00  0.00    +0.148 HD
ENDROOT
BRANCH   7  12
ATOM     12  C   UNL     1      -5.931  -0.810  -0.771  0.00  0.00    +0.246 C 
ATOM     13  O   UNL     1      -5.939  -1.254   0.361  0.00  0.00    -0.270 OA
ATOM     14  N   UNL     1      -6.792  -1.290  -1.690  0.00  0.00    -0.309 N 
ATOM     15  H   UNL     1      -6.738  -0.988  -2.610  0.00  0.00    +0.149 HD
BRANCH  14  16
ATOM     16  C   UNL     1      -7.810  -2.269  -1.298  0.00  0.00    +0.133 C 
BRANCH  16  17
ATOM     17  C   UNL     1      -8.568  -2.741  -2.541  0.00  0.00    +0.120 C 
ATOM     18  C   UNL     1      -9.471  -3.901  -2.190  0.00  0.00    +0.009 C 
ATOM     19  C   UNL     1      -9.050  -4.945  -2.941  0.00  0.00    -0.004 A 
ATOM     20  C   UNL     1      -9.508  -6.334  -3.059  0.00  0.00    +0.010 A 
ATOM     21  C   UNL     1      -8.872  -7.164  -3.916  0.00  0.00    +0.001 A 
ATOM     22  C   UNL     1      -7.787  -6.732  -4.692  0.00  0.00    +0.002 A 
ATOM     23  C   UNL     1      -7.309  -5.471  -4.639  0.00  0.00    +0.026 A 
ATOM     24  C   UNL     1      -7.903  -4.513  -3.772  0.00  0.00    +0.043 A 
ATOM     25  N   UNL     1      -7.626  -3.251  -3.544  0.00  0.00    -0.376 N 
ATOM     26  H   UNL     1      -6.918  -2.740  -3.967  0.00  0.00    +0.160 HD
ENDBRANCH  16  17
ENDBRANCH  14  16
ENDBRANCH   7  12
BRANCH   5  27
ATOM     27  N   UNL     1      -4.992   3.562  -2.769  0.00  0.00    -0.206 N 
ATOM     28  H   UNL     1      -4.817   3.692  -3.714  0.00  0.00    +0.175 HD
BRANCH  27  29
ATOM     29  S   UNL     1      -5.830   4.709  -1.917  0.00  0.00    +0.111 S 
ATOM     30  O   UNL     1      -6.075   5.783  -2.814  0.00  0.00    -0.138 OA
ATOM     31  O   UNL     1      -6.878   4.028  -1.241  0.00  0.00    -0.138 OA
BRANCH  29  32
ATOM     32  N   UNL     1      -4.812   5.291  -0.748  0.00  0.00    -0.170 NA
ATOM     33  C   UNL     1      -4.019   6.497  -1.001  0.00  0.00    +0.132 C 
ATOM     34  C   UNL     1      -4.705   4.600   0.540  0.00  0.00    +0.132 C 
ENDBRANCH  29  32
ENDBRANCH  27  29
ENDBRANCH   5  27
BRANCH   1  35
ATOM     35  C   UNL     1      -1.037  -0.476   1.288  0.00  0.00    +0.045 C 
BRANCH  35  37
ATOM     36  C   UNL     1       0.912   0.035   2.765  0.00  0.00    +0.007 C 
ATOM     37  C   UNL     1       0.466  -0.190   1.319  0.00  0.00    -0.014 C 
ATOM     38  C   UNL     1       1.224  -1.381   0.730  0.00  0.00    +0.007 C 
ENDBRANCH  35  37
ENDBRANCH   1  35
TORSDOF 8
