REMARK  Name = ZINC39672907
REMARK  8 active torsions:
REMARK  status: ('A' for Active; 'I' for Inactive)
REMARK    1  A    between atoms: C_1  and  C_2
REMARK    2  A    between atoms: C_2  and  C_3
REMARK    3  A    between atoms: C_3  and  C_5
REMARK    4  A    between atoms: C_3  and  C_11
REMARK    5  A    between atoms: C_15  and  C_24
REMARK    6  A    between atoms: N_26  and  C_27
REMARK    7  A    between atoms: C_27  and  C_28
REMARK    8  A    between atoms: C_28  and  N_34
REMARK                            x       y       z     vdW  Elec       q    Type
REMARK                         _______ _______ _______ _____ _____    ______ ____
ROOT
ATOM      1  C   UNL     1      -2.505  -0.174   3.890  0.00  0.00    +0.223 C 
ATOM      2  O   UNL     1      -3.233  -0.514   4.798  0.00  0.00    -0.275 OA
ATOM      3  N   UNL     1      -2.183   1.125   3.735  0.00  0.00    -0.300 N 
ATOM      4  C   UNL     1      -1.267   1.721   2.734  0.00  0.00    +0.121 C 
ATOM      5  C   UNL     1      -1.956   3.037   2.309  0.00  0.00    +0.100 C 
ATOM      6  C   UNL     1      -2.870   3.401   3.490  0.00  0.00    -0.004 C 
ATOM      7  C   UNL     1      -2.670   2.283   4.524  0.00  0.00    +0.115 C 
ATOM      8  C   UNL     1      -4.327   3.439   3.039  0.00  0.00    -0.010 C 
ATOM      9  C   UNL     1      -5.211   3.858   4.217  0.00  0.00    -0.082 C 
ATOM     10  N   UNL     1      -4.792   5.180   4.699  0.00  0.00    +0.379 N 
ATOM     11  C   UNL     1      -3.421   5.113   5.217  0.00  0.00    -0.082 C 
ATOM     12  C   UNL     1      -2.461   4.747   4.081  0.00  0.00    -0.010 C 
ATOM     13  H   UNL     1      -4.831   5.841   3.938  0.00  0.00    -0.086 HD
ATOM     14  H   UNL     1      -5.414   5.481   5.434  0.00  0.00    -0.086 HD
ENDROOT
BRANCH   5  15
ATOM     15  C   UNL     1      -2.769   2.823   1.059  0.00  0.00    +0.218 C 
ATOM     16  O   UNL     1      -3.586   1.927   1.012  0.00  0.00    -0.275 OA
ATOM     17  N   UNL     1      -2.590   3.627  -0.008  0.00  0.00    -0.313 N 
ATOM     18  H   UNL     1      -1.893   4.301   0.005  0.00  0.00    +0.149 HD
BRANCH  17  19
ATOM     19  C   UNL     1      -3.449   3.483  -1.186  0.00  0.00    +0.126 C 
BRANCH  19  20
ATOM     20  C   UNL     1      -2.917   4.368  -2.316  0.00  0.00    +0.038 C 
ATOM     21  C   UNL     1      -2.745   5.799  -1.804  0.00  0.00    +0.024 C 
ATOM     22  C   UNL     1      -4.096   6.337  -1.329  0.00  0.00    +0.002 C 
ATOM     23  C   UNL     1      -5.088   6.327  -2.494  0.00  0.00    +0.000 C 
ATOM     24  C   UNL     1      -5.260   4.895  -3.005  0.00  0.00    +0.002 C 
ATOM     25  C   UNL     1      -3.909   4.358  -3.481  0.00  0.00    +0.024 C 
BRANCH  20  26
ATOM     26  N   UNL     1      -1.620   3.852  -2.772  0.00  0.00    -0.291 NA
ATOM     27  C   UNL     1      -1.760   2.503  -3.341  0.00  0.00    +0.113 C 
ATOM     28  C   UNL     1      -0.399   2.029  -3.857  0.00  0.00    +0.175 C 
ATOM     29  O   UNL     1       0.552   2.071  -2.789  0.00  0.00    -0.377 OA
ATOM     30  C   UNL     1       0.714   3.370  -2.213  0.00  0.00    +0.175 C 
ATOM     31  C   UNL     1      -0.636   3.857  -1.680  0.00  0.00    +0.113 C 
ENDBRANCH  20  26
ENDBRANCH  19  20
ENDBRANCH  17  19
ENDBRANCH   5  15
BRANCH   1  32
ATOM     32  C   UNL     1      -1.959  -1.205   2.936  0.00  0.00    +0.105 C 
BRANCH  32  33
ATOM     33  C   UNL     1      -1.676  -2.482   3.684  0.00  0.00    -0.036 A 
ATOM     34  C   UNL     1      -2.701  -3.145   4.333  0.00  0.00    +0.004 A 
ATOM     35  C   UNL     1      -2.441  -4.316   5.019  0.00  0.00    +0.000 A 
ATOM     36  C   UNL     1      -1.157  -4.826   5.055  0.00  0.00    +0.000 A 
ATOM     37  C   UNL     1      -0.132  -4.164   4.405  0.00  0.00    +0.000 A 
ATOM     38  C   UNL     1      -0.392  -2.994   3.715  0.00  0.00    +0.004 A 
ENDBRANCH  32  33
BRANCH  32  40
ATOM     39  C   UNL     1      -2.683  -0.590   0.625  0.00  0.00    +0.005 C 
ATOM     40  C   UNL     1      -2.987  -1.475   1.835  0.00  0.00    +0.014 C 
ENDBRANCH  32  40
ENDBRANCH   1  32
TORSDOF 7
