REMARK  Name = ZINC09582678
REMARK  8 active torsions:
REMARK  status: ('A' for Active; 'I' for Inactive)
REMARK    1  A    between atoms: C_3  and  C_6
REMARK    2  A    between atoms: C_6  and  N_7
REMARK    3  A    between atoms: C_11  and  C_13
REMARK    4  A    between atoms: C_13  and  S_14
REMARK    5  A    between atoms: S_14  and  C_15
REMARK    6  A    between atoms: C_18  and  C_26
REMARK    7  A    between atoms: N_19  and  C_20
REMARK    8  A    between atoms: C_20  and  C_21
REMARK                            x       y       z     vdW  Elec       q    Type
REMARK                         _______ _______ _______ _____ _____    ______ ____
ROOT
ATOM      1  C   UNL     1       0.983   4.301  -2.209  0.00  0.00    +0.193 A 
ATOM      2  N   UNL     1       1.619   4.582  -3.324  0.00  0.00    -0.122 NA
ATOM      3  N   UNL     1       2.829   4.154  -3.261  0.00  0.00    -0.128 NA
ATOM      4  C   UNL     1       3.042   3.580  -2.100  0.00  0.00    +0.165 A 
ATOM      5  N   UNL     1       1.864   3.652  -1.393  0.00  0.00    -0.295 N 
ENDROOT
BRANCH   4   6
ATOM      6  C   UNL     1       4.307   2.970  -1.640  0.00  0.00    +0.019 A 
ATOM      7  C   UNL     1       4.308   2.095  -0.552  0.00  0.00    +0.013 A 
ATOM      8  C   UNL     1       5.492   1.525  -0.130  0.00  0.00    +0.021 A 
ATOM      9  C   UNL     1       6.678   1.826  -0.778  0.00  0.00    +0.041 A 
ATOM     10  C   UNL     1       6.684   2.696  -1.855  0.00  0.00    +0.021 A 
ATOM     11  C   UNL     1       5.506   3.269  -2.289  0.00  0.00    +0.013 A 
ATOM     12 CL   UNL     1       8.164   1.109  -0.238  0.00  0.00    -0.084 Cl
ENDBRANCH   4   6
BRANCH   1  13
ATOM     13  S   UNL     1      -0.695   4.692  -1.836  0.00  0.00    -0.077 S 
BRANCH  13  14
ATOM     14  C   UNL     1      -1.172   5.524  -3.371  0.00  0.00    +0.173 C 
BRANCH  14  19
ATOM     15  N   UNL     1      -5.052   7.638  -5.266  0.00  0.00    -0.292 N 
ATOM     16  C   UNL     1      -4.476   6.993  -4.231  0.00  0.00    +0.306 C 
ATOM     17  O   UNL     1      -5.118   6.763  -3.225  0.00  0.00    -0.252 OA
ATOM     18  N   UNL     1      -3.188   6.604  -4.314  0.00  0.00    -0.239 N 
ATOM     19  C   UNL     1      -2.612   5.959  -3.280  0.00  0.00    +0.231 C 
ATOM     20  O   UNL     1      -3.252   5.730  -2.276  0.00  0.00    -0.274 OA
ATOM     21  H   UNL     1      -4.540   7.821  -6.069  0.00  0.00    +0.151 HD
ATOM     22  H   UNL     1      -2.676   6.787  -5.117  0.00  0.00    +0.159 HD
BRANCH  15  23
ATOM     23  C   UNL     1      -6.452   8.061  -5.176  0.00  0.00    +0.180 C 
BRANCH  23  26
ATOM     24  C   UNL     1      -7.593   9.176  -8.499  0.00  0.00    +0.041 A 
ATOM     25  C   UNL     1      -7.373   8.159  -7.542  0.00  0.00    +0.046 A 
ATOM     26  C   UNL     1      -6.849   8.754  -6.454  0.00  0.00    +0.122 A 
ATOM     27  O   UNL     1      -6.747  10.070  -6.699  0.00  0.00    -0.466 OA
ATOM     28  C   UNL     1      -7.191  10.331  -7.939  0.00  0.00    +0.195 A 
ENDBRANCH  23  26
ENDBRANCH  15  23
ENDBRANCH  14  19
ENDBRANCH  13  14
ENDBRANCH   1  13
BRANCH   5  29
ATOM     29  C   UNL     1       1.610   3.143  -0.043  0.00  0.00    +0.200 C 
BRANCH  29  30
ATOM     30  C   UNL     1       0.954   1.789  -0.131  0.00  0.00    +0.125 A 
ATOM     31  C   UNL     1       1.591   0.615  -0.290  0.00  0.00    +0.046 A 
ATOM     32  C   UNL     1       0.598  -0.390  -0.322  0.00  0.00    +0.041 A 
ATOM     33  C   UNL     1      -0.588   0.230  -0.180  0.00  0.00    +0.195 A 
ATOM     34  O   UNL     1      -0.366   1.549  -0.065  0.00  0.00    -0.466 OA
ENDBRANCH  29  30
ENDBRANCH   5  29
TORSDOF 8
