REMARK  Name = ZINC02131637
REMARK  14 active torsions:
REMARK  status: ('A' for Active; 'I' for Inactive)
REMARK    1  A    between atoms: C_1  and  O_2
REMARK    2  A    between atoms: O_2  and  C_3
REMARK    3  A    between atoms: C_3  and  C_4
REMARK    4  A    between atoms: C_4  and  N_62
REMARK    5  A    between atoms: C_5  and  C_6
REMARK    6  A    between atoms: C_5  and  N_62
REMARK    7  A    between atoms: C_6  and  O_7
REMARK    8  A    between atoms: O_7  and  C_8
REMARK    9  A    between atoms: C_9  and  C_10
REMARK   10  A    between atoms: C_9  and  N_62
REMARK   11  A    between atoms: C_11  and  O_34
REMARK   12  A    between atoms: C_20  and  C_21
REMARK   13  A    between atoms: C_27  and  O_32
REMARK   14  A    between atoms: O_32  and  C_33
REMARK                            x       y       z     vdW  Elec       q    Type
REMARK                         _______ _______ _______ _____ _____    ______ ____
ROOT
ATOM      1  C   UNL     1       5.269   8.658   2.644  0.00  0.00    +0.020 A 
ATOM      2  C   UNL     1       4.636   9.129   3.783  0.00  0.00    +0.122 A 
ATOM      3  C   UNL     1       3.390   8.631   4.156  0.00  0.00    +0.046 A 
ATOM      4  C   UNL     1       2.776   7.671   3.402  0.00  0.00    +0.016 A 
ATOM      5  C   UNL     1       3.401   7.187   2.251  0.00  0.00    +0.026 A 
ATOM      6  C   UNL     1       4.659   7.684   1.869  0.00  0.00    +0.144 A 
ATOM      7  O   UNL     1       5.261   7.213   0.755  0.00  0.00    -0.422 OA
ATOM      8  C   UNL     1       4.694   6.271  -0.014  0.00  0.00    +0.338 A 
ATOM      9  O   UNL     1       5.284   5.884  -1.008  0.00  0.00    -0.245 OA
ATOM     10  C   UNL     1       3.444   5.715   0.295  0.00  0.00    +0.101 A 
ATOM     11  C   UNL     1       2.762   6.153   1.419  0.00  0.00    +0.006 A 
ENDROOT
BRANCH  11  12
ATOM     12  C   UNL     1       1.443   5.596   1.774  0.00  0.00    +0.068 A 
ATOM     13  C   UNL     1       1.312   4.265   2.123  0.00  0.00    +0.027 A 
ATOM     14  C   UNL     1       0.025   3.772   2.458  0.00  0.00    +0.022 A 
ATOM     15  C   UNL     1      -0.143   2.425   2.817  0.00  0.00    +0.012 A 
ATOM     16  C   UNL     1      -1.384   1.954   3.138  0.00  0.00    +0.004 A 
ATOM     17  C   UNL     1      -2.487   2.796   3.108  0.00  0.00    +0.049 A 
ATOM     18  C   UNL     1      -2.346   4.128   2.762  0.00  0.00    +0.163 A 
ATOM     19  C   UNL     1      -1.087   4.630   2.431  0.00  0.00    +0.180 A 
ATOM     20  O   UNL     1      -0.950   5.930   2.088  0.00  0.00    -0.418 OA
ATOM     21  C   UNL     1       0.246   6.446   1.763  0.00  0.00    +0.345 A 
ATOM     22  O   UNL     1       0.339   7.621   1.459  0.00  0.00    -0.245 OA
BRANCH  18  23
ATOM     23  O   UNL     1      -3.433   4.944   2.741  0.00  0.00    -0.491 OA
ATOM     24  C   UNL     1      -4.689   4.361   3.092  0.00  0.00    +0.277 C 
ENDBRANCH  18  23
ENDBRANCH  11  12
BRANCH   2  25
ATOM     25  O   UNL     1       5.235  10.082   4.542  0.00  0.00    -0.506 OA
ATOM     26  H   UNL     1       5.014  10.987   4.283  0.00  0.00    +0.292 HD
ENDBRANCH   2  25
BRANCH   1  27
ATOM     27  C   UNL     1       6.617   9.204   2.250  0.00  0.00    -0.035 C 
BRANCH  27  28
ATOM     28  N   UNL     1       6.421  10.477   1.526  0.00  0.00    +0.385 N 
ATOM     29  H   UNL     1       5.730  11.045   2.031  0.00  0.00    -0.081 HD
BRANCH  28  30
ATOM     30  C   UNL     1       7.696  11.221   1.457  0.00  0.00    -0.050 C 
BRANCH  30  31
ATOM     31  C   UNL     1       7.417  12.630   0.928  0.00  0.00    +0.141 C 
BRANCH  31  33
ATOM     32  C   UNL     1       6.207  14.638   1.427  0.00  0.00    +0.193 C 
ATOM     33  O   UNL     1       6.620  13.344   1.874  0.00  0.00    -0.385 OA
ENDBRANCH  31  33
ENDBRANCH  30  31
ENDBRANCH  28  30
BRANCH  28  34
ATOM     34  C   UNL     1       5.917  10.211   0.162  0.00  0.00    -0.050 C 
BRANCH  34  35
ATOM     35  C   UNL     1       7.001   9.548  -0.690  0.00  0.00    +0.141 C 
BRANCH  35  36
ATOM     36  O   UNL     1       7.250   8.229  -0.202  0.00  0.00    -0.385 OA
ATOM     37  C   UNL     1       8.330   7.561  -0.858  0.00  0.00    +0.193 C 
ENDBRANCH  35  36
ENDBRANCH  34  35
ENDBRANCH  28  34
ENDBRANCH  27  28
ENDBRANCH   1  27
TORSDOF 11
