REMARK  Name = ZINC19754381
REMARK  7 active torsions:
REMARK  status: ('A' for Active; 'I' for Inactive)
REMARK    1  A    between atoms: C_1  and  C_2
REMARK    2  A    between atoms: C_2  and  C_3
REMARK    3  A    between atoms: C_2  and  C_4
REMARK    4  A    between atoms: C_2  and  C_5
REMARK    5  A    between atoms: N_7  and  C_8
REMARK    6  A    between atoms: C_9  and  C_21
REMARK    7  A    between atoms: C_16  and  C_18
REMARK                            x       y       z     vdW  Elec       q    Type
REMARK                         _______ _______ _______ _____ _____    ______ ____
ROOT
ATOM      1  C   UNL     1      -3.285  -0.447  -1.925  0.00  0.00    +0.084 A 
ATOM      2  C   UNL     1      -2.440  -0.178  -0.857  0.00  0.00    +0.069 A 
ATOM      3  C   UNL     1      -1.238   0.592  -1.129  0.00  0.00    -0.009 A 
ATOM      4  C   UNL     1      -1.074   0.967  -2.417  0.00  0.00    -0.004 A 
ATOM      5  S   UNL     1      -2.487   0.315  -3.261  0.00  0.00    -0.077 S 
ATOM      6  C   UNL     1       0.060   1.761  -2.989  0.00  0.00    +0.043 C 
ATOM      7  C   UNL     1       1.207   1.770  -1.968  0.00  0.00    +0.006 C 
ATOM      8  C   UNL     1       0.639   2.125  -0.591  0.00  0.00    +0.020 C 
ATOM      9  C   UNL     1      -0.213   0.967  -0.066  0.00  0.00    +0.134 C 
ENDROOT
BRANCH   2  10
ATOM     10  C   UNL     1      -2.748  -0.654   0.495  0.00  0.00    +0.244 C 
ATOM     11  O   UNL     1      -3.484  -0.005   1.215  0.00  0.00    -0.270 OA
ATOM     12  N   UNL     1      -2.217  -1.810   0.940  0.00  0.00    -0.325 N 
ATOM     13  H   UNL     1      -2.449  -2.167   1.954  0.00  0.00    +0.145 HD
ATOM     14  H   UNL     1      -1.552  -2.397   0.289  0.00  0.00    +0.145 HD
ENDBRANCH   2  10
BRANCH   1  17
ATOM     15  C   UNL     1      -5.168  -1.313  -3.069  0.00  0.00    +0.223 C 
ATOM     16  O   UNL     1      -4.746  -0.839  -4.103  0.00  0.00    -0.275 OA
ATOM     17  N   UNL     1      -4.478  -1.153  -1.923  0.00  0.00    -0.279 N 
ATOM     18  H   UNL     1      -4.861  -1.583  -0.986  0.00  0.00    +0.155 HD
BRANCH  15  20
ATOM     19  C   UNL     1      -7.041  -2.114  -4.484  0.00  0.00    +0.020 C 
ATOM     20  C   UNL     1      -6.465  -2.081  -3.067  0.00  0.00    +0.039 C 
ATOM     21  C   UNL     1      -6.210  -3.511  -2.586  0.00  0.00    +0.020 C 
ATOM     22  C   UNL     1      -7.461  -1.398  -2.128  0.00  0.00    +0.020 C 
ENDBRANCH  15  20
ENDBRANCH   1  17
BRANCH   9  23
ATOM     23  C   UNL     1      -0.921   1.393   1.194  0.00  0.00    +0.363 C 
ATOM     24  O   UNL     1      -1.870   2.139   1.132  0.00  0.00    -0.246 OA
ATOM     25  O   UNL     1      -0.499   0.942   2.386  0.00  0.00    -0.246 OA
ENDBRANCH   9  23
TORSDOF 4
