REMARK  Name = ZINC11966236
REMARK  7 active torsions:
REMARK  status: ('A' for Active; 'I' for Inactive)
REMARK    1  A    between atoms: C_3  and  N_27
REMARK    2  A    between atoms: C_6  and  C_7
REMARK    3  A    between atoms: C_7  and  N_70
REMARK    4  A    between atoms: C_14  and  C_16
REMARK    5  A    between atoms: N_18  and  C_19
REMARK    6  A    between atoms: C_19  and  C_20
REMARK    7  A    between atoms: C_20  and  C_21
REMARK                            x       y       z     vdW  Elec       q    Type
REMARK                         _______ _______ _______ _____ _____    ______ ____
ROOT
ATOM      1  C   UNL     1       6.317  -4.100  -4.846  0.00  0.00    -0.078 C 
ATOM      2  C   UNL     1       7.544  -3.281  -4.432  0.00  0.00    -0.011 C 
ATOM      3  C   UNL     1       7.134  -1.809  -4.319  0.00  0.00    -0.021 C 
ATOM      4  C   UNL     1       6.403  -1.250  -5.544  0.00  0.00    -0.011 C 
ATOM      5  C   UNL     1       5.243  -2.190  -5.892  0.00  0.00    -0.078 C 
ATOM      6  C   UNL     1       8.060  -0.868  -3.551  0.00  0.00    +0.020 C 
ATOM      7  C   UNL     1       6.719  -1.289  -2.944  0.00  0.00    +0.082 C 
ATOM      8  N   UNL     1       5.781  -3.551  -6.111  0.00  0.00    +0.382 N 
ATOM      9  H   UNL     1       6.541  -3.500  -6.800  0.00  0.00    -0.081 HD
ENDROOT
BRANCH   7  10
ATOM     10  C   UNL     1       5.623  -0.255  -2.892  0.00  0.00    +0.217 C 
ATOM     11  O   UNL     1       5.903   0.925  -2.873  0.00  0.00    -0.275 OA
ATOM     12  N   UNL     1       4.333  -0.643  -2.868  0.00  0.00    -0.315 N 
ATOM     13  H   UNL     1       4.109  -1.586  -2.884  0.00  0.00    +0.149 HD
BRANCH  12  14
ATOM     14  C   UNL     1       3.267   0.362  -2.817  0.00  0.00    +0.108 C 
BRANCH  14  15
ATOM     15  C   UNL     1       1.907  -0.338  -2.799  0.00  0.00    +0.049 C 
BRANCH  15  16
ATOM     16  C   UNL     1       0.811   0.695  -2.747  0.00  0.00    -0.072 C 
ATOM     17  C   UNL     1       0.272   1.065  -3.864  0.00  0.00    -0.028 C 
ATOM     18  C   UNL     1      -0.815   2.093  -3.973  0.00  0.00    +0.027 C 
ATOM     19  C   UNL     1      -1.478   2.304  -2.609  0.00  0.00    +0.004 C 
ATOM     20  C   UNL     1      -0.375   2.533  -1.568  0.00  0.00    +0.005 C 
ATOM     21  C   UNL     1       0.413   1.232  -1.403  0.00  0.00    +0.030 C 
ENDBRANCH  15  16
ENDBRANCH  14  15
ENDBRANCH  12  14
ENDBRANCH   7  10
BRANCH   8  22
ATOM     22  C   UNL     1       4.719  -4.434  -6.633  0.00  0.00    -0.043 C 
BRANCH  22  28
ATOM     23  C   UNL     1       3.322  -3.057  -8.188  0.00  0.00    +0.003 A 
ATOM     24  C   UNL     1       2.980  -2.628  -9.455  0.00  0.00    +0.023 A 
ATOM     25  C   UNL     1       3.656  -3.127 -10.561  0.00  0.00    +0.030 A 
ATOM     26  C   UNL     1       4.679  -4.051 -10.388  0.00  0.00    +0.023 A 
ATOM     27  C   UNL     1       5.019  -4.471  -9.117  0.00  0.00    +0.003 A 
ATOM     28  C   UNL     1       4.344  -3.973  -8.018  0.00  0.00    -0.064 A 
BRANCH  25  29
ATOM     29  N   UNL     1       3.310  -2.699 -11.845  0.00  0.00    -0.330 N 
ATOM     30  C   UNL     1       4.439  -1.983 -12.491  0.00  0.00    +0.105 C 
ATOM     31  C   UNL     1       4.093  -2.062 -13.999  0.00  0.00    +0.020 C 
ATOM     32  C   UNL     1       3.479  -3.474 -14.140  0.00  0.00    +0.020 C 
ATOM     33  C   UNL     1       3.006  -3.850 -12.723  0.00  0.00    +0.105 C 
ENDBRANCH  25  29
ENDBRANCH  22  28
ENDBRANCH   8  22
TORSDOF 7
