REMARK  Name = ZINC63708284
REMARK  12 active torsions:
REMARK  status: ('A' for Active; 'I' for Inactive)
REMARK    1  A    between atoms: C_1  and  C_2
REMARK    2  A    between atoms: C_4  and  C_38
REMARK    3  A    between atoms: C_5  and  N_9
REMARK    4  A    between atoms: C_6  and  C_8
REMARK    5  A    between atoms: C_10  and  C_12
REMARK    6  A    between atoms: C_12  and  S_13
REMARK    7  A    between atoms: S_13  and  C_14
REMARK    8  A    between atoms: C_26  and  C_28
REMARK    9  A    between atoms: C_28  and  C_29
REMARK   10  A    between atoms: C_29  and  C_30
REMARK   11  A    between atoms: C_31  and  C_37
REMARK   12  A    between atoms: C_34  and  C_36
REMARK                            x       y       z     vdW  Elec       q    Type
REMARK                         _______ _______ _______ _____ _____    ______ ____
ROOT
ATOM      1  C   UNL     1      -0.747  -8.897   2.088  0.00  0.00    +0.248 C 
ATOM      2  N   UNL     1       0.347  -9.418   1.258  0.00  0.00    -0.356 N 
ATOM      3  C   UNL     1       0.071  -9.983   0.090  0.00  0.00    +0.048 A 
ATOM      4  C   UNL     1       1.107 -10.491  -0.724  0.00  0.00    +0.026 A 
ATOM      5  C   UNL     1       0.802 -11.067  -1.918  0.00  0.00    +0.002 A 
ATOM      6  C   UNL     1      -0.514 -11.171  -2.363  0.00  0.00    +0.001 A 
ATOM      7  C   UNL     1      -1.557 -10.701  -1.625  0.00  0.00    +0.013 A 
ATOM      8  C   UNL     1      -1.313 -10.094  -0.381  0.00  0.00    +0.038 A 
ATOM      9  C   UNL     1      -2.380  -9.602   0.397  0.00  0.00    +0.128 C 
ATOM     10  N   UNL     1      -2.123  -9.013   1.607  0.00  0.00    -0.204 N 
ATOM     11  N   UNL     1      -3.364  -8.632   2.131  0.00  0.00    -0.249 N 
ATOM     12  C   UNL     1      -4.295  -9.004   1.225  0.00  0.00    +0.090 C 
ATOM     13  N   UNL     1      -3.705  -9.576   0.208  0.00  0.00    -0.332 N 
ATOM     14  H   UNL     1      -3.525  -8.189   2.979  0.00  0.00    +0.171 HD
ATOM     15  H   UNL     1       1.265  -9.350   1.562  0.00  0.00    +0.162 HD
ATOM     16  H   UNL     1      -4.161  -9.929  -0.572  0.00  0.00    +0.168 HD
ENDROOT
BRANCH   1  17
ATOM     17  S   UNL     1      -0.418  -7.138   2.382  0.00  0.00    -0.106 S 
BRANCH  17  18
ATOM     18  C   UNL     1      -0.526  -6.390   0.733  0.00  0.00    +0.168 C 
BRANCH  18  20
ATOM     19  N   UNL     1      -0.299  -4.141  -0.272  0.00  0.00    -0.284 N 
ATOM     20  C   UNL     1      -0.270  -4.908   0.836  0.00  0.00    +0.227 C 
ATOM     21  O   UNL     1      -0.036  -4.407   1.915  0.00  0.00    -0.275 OA
ATOM     22  H   UNL     1      -0.421  -4.551  -1.143  0.00  0.00    +0.155 HD
BRANCH  19  27
ATOM     23  C   UNL     1       0.286   1.486   0.157  0.00  0.00    +0.044 C 
ATOM     24  C   UNL     1       0.130  -0.009   0.043  0.00  0.00    -0.050 A 
ATOM     25  C   UNL     1       1.121  -0.844   0.526  0.00  0.00    +0.008 A 
ATOM     26  C   UNL     1       0.982  -2.215   0.423  0.00  0.00    -0.029 A 
ATOM     27  C   UNL     1      -0.155  -2.753  -0.166  0.00  0.00    +0.039 A 
ATOM     28  C   UNL     1      -1.148  -1.911  -0.649  0.00  0.00    -0.029 A 
ATOM     29  C   UNL     1      -1.005  -0.542  -0.539  0.00  0.00    +0.008 A 
ATOM     30  C   UNL     1      -2.383  -2.491  -1.289  0.00  0.00    +0.045 C 
ATOM     31  C   UNL     1       2.062  -3.124   0.949  0.00  0.00    +0.045 C 
ENDBRANCH  19  27
ENDBRANCH  18  20
ENDBRANCH  17  18
ENDBRANCH   1  17
BRANCH  12  32
ATOM     32  C   UNL     1      -5.781  -8.796   1.366  0.00  0.00    +0.075 C 
BRANCH  32  33
ATOM     33  C   UNL     1      -6.165  -7.442   0.765  0.00  0.00    +0.042 C 
BRANCH  33  34
ATOM     34  C   UNL     1      -7.651  -7.233   0.905  0.00  0.00    -0.021 C 
ATOM     35  C   UNL     1      -8.302  -6.577   1.868  0.00  0.00    +0.061 C 
ATOM     36  N   UNL     1      -9.636  -6.605   1.651  0.00  0.00    -0.159 NA
ATOM     37  N   UNL     1      -9.977  -7.215   0.635  0.00  0.00    -0.180 NA
ATOM     38  C   UNL     1      -8.755  -7.715  -0.019  0.00  0.00    +0.153 C 
ATOM     39  C   UNL     1      -8.772  -9.244  -0.091  0.00  0.00    +0.039 C 
ATOM     40  C   UNL     1      -7.640  -5.897   3.039  0.00  0.00    +0.067 C 
ENDBRANCH  33  34
ENDBRANCH  32  33
ENDBRANCH  12  32
TORSDOF 7
