REMARK  Name = ZINC26548083
REMARK  6 active torsions:
REMARK  status: ('A' for Active; 'I' for Inactive)
REMARK    1  A    between atoms: C_1  and  C_2
REMARK    2  A    between atoms: C_2  and  C_3
REMARK    3  A    between atoms: C_3  and  C_4
REMARK    4  A    between atoms: C_4  and  C_5
REMARK    5  A    between atoms: C_7  and  C_11
REMARK    6  A    between atoms: N_15  and  N_16
REMARK                            x       y       z     vdW  Elec       q    Type
REMARK                         _______ _______ _______ _____ _____    ______ ____
ROOT
ATOM      1  C   UNL     1       1.068   1.886   0.002  0.00  0.00    +0.063 A 
ATOM      2  C   UNL     1      -0.013   1.076   0.014  0.00  0.00    +0.056 A 
ATOM      3  C   UNL     1      -1.163   1.891   0.028  0.00  0.00    +0.105 A 
ATOM      4  N   UNL     1      -0.769   3.148   0.023  0.00  0.00    -0.274 N 
ATOM      5  N   UNL     1       0.632   3.164   0.007  0.00  0.00    -0.178 NA
ATOM      6  H   UNL     1      -1.513   3.958   0.031  0.00  0.00    +0.189 HD
ENDROOT
BRANCH   3   7
ATOM      7  C   UNL     1      -2.565   1.418   0.038  0.00  0.00    +0.199 A 
ATOM      8  N   UNL     1      -2.967   0.169   0.030  0.00  0.00    -0.125 NA
ATOM      9  N   UNL     1      -4.251   0.121   0.046  0.00  0.00    -0.120 NA
ATOM     10  C   UNL     1      -4.748   1.337   0.056  0.00  0.00    +0.220 A 
ATOM     11  N   UNL     1      -3.693   2.205   0.051  0.00  0.00    -0.222 N 
ATOM     12  S   UNL     1      -6.456   1.768   0.071  0.00  0.00    -0.008 SA
BRANCH  11  13
ATOM     13  N   UNL     1      -3.747   3.570   0.057  0.00  0.00    -0.294 N 
ATOM     14  H   UNL     1      -4.721   4.082   0.068  0.00  0.00    +0.163 HD
ATOM     15  H   UNL     1      -2.817   4.157   0.052  0.00  0.00    +0.163 HD
ENDBRANCH  11  13
ENDBRANCH   3   7
BRANCH   1  16
ATOM     16  C   UNL     1       2.508   1.441  -0.015  0.00  0.00    +0.057 C 
BRANCH  16  17
ATOM     17  C   UNL     1       2.943   1.179  -1.458  0.00  0.00    +0.006 C 
BRANCH  17  19
ATOM     18  C   UNL     1       4.841   0.466  -2.918  0.00  0.00    +0.004 C 
ATOM     19  C   UNL     1       4.405   0.728  -1.475  0.00  0.00    -0.003 C 
ENDBRANCH  17  19
ENDBRANCH  16  17
ENDBRANCH   1  16
TORSDOF 5
