REMARK  Name = ZINC20352588
REMARK  8 active torsions:
REMARK  status: ('A' for Active; 'I' for Inactive)
REMARK    1  A    between atoms: C_1  and  C_2
REMARK    2  A    between atoms: C_7  and  N_8
REMARK    3  A    between atoms: N_8  and  C_9
REMARK    4  A    between atoms: C_9  and  C_11
REMARK    5  A    between atoms: C_9  and  C_12
REMARK    6  A    between atoms: N_14  and  N_15
REMARK    7  A    between atoms: C_16  and  C_17
REMARK    8  A    between atoms: C_20  and  O_23
REMARK                            x       y       z     vdW  Elec       q    Type
REMARK                         _______ _______ _______ _____ _____    ______ ____
ROOT
ATOM      1  C   UNL     1      -0.748   2.025  -1.210  0.00  0.00    +0.252 C 
ATOM      2  O   UNL     1      -0.175   2.735  -2.011  0.00  0.00    -0.272 OA
ATOM      3  N   UNL     1      -2.035   1.683  -1.413  0.00  0.00    -0.205 N 
ATOM      4  H   UNL     1      -2.554   1.040  -0.688  0.00  0.00    +0.177 HD
ENDROOT
BRANCH   1   5
ATOM      5  C   UNL     1      -0.019   1.526   0.010  0.00  0.00    +0.155 C 
ATOM      6  C   UNL     1       0.002  -0.004   0.002  0.00  0.00    +0.038 C 
BRANCH   5   7
ATOM      7  N   UNL     1       1.356   2.033   0.000  0.00  0.00    -0.333 N 
ATOM      8  H   UNL     1       1.834   2.306  -0.952  0.00  0.00    +0.147 HD
BRANCH   7  15
ATOM      9  C   UNL     1       4.020   3.025  -0.112  0.00  0.00    +0.045 C 
ATOM     10  C   UNL     1       3.362   2.650   1.191  0.00  0.00    -0.029 A 
ATOM     11  C   UNL     1       4.055   2.784   2.379  0.00  0.00    +0.019 A 
ATOM     12  C   UNL     1       3.452   2.439   3.575  0.00  0.00    +0.014 A 
ATOM     13  C   UNL     1       2.154   1.961   3.587  0.00  0.00    +0.016 A 
ATOM     14  C   UNL     1       1.454   1.830   2.403  0.00  0.00    +0.024 A 
ATOM     15  C   UNL     1       2.059   2.169   1.199  0.00  0.00    +0.031 A 
ATOM     16  I   UNL     1       4.507   2.644   5.374  0.00  0.00    -0.044 I 
ENDBRANCH   7  15
ENDBRANCH   5   7
ENDBRANCH   1   5
BRANCH   3  17
ATOM     17  N   UNL     1      -2.713   2.147  -2.548  0.00  0.00    -0.188 NA
ATOM     18  C   UNL     1      -3.953   1.818  -2.744  0.00  0.00    +0.138 C 
BRANCH  18  19
ATOM     19  C   UNL     1      -4.666   2.306  -3.938  0.00  0.00    -0.005 A 
ATOM     20  C   UNL     1      -4.010   3.128  -4.858  0.00  0.00    +0.013 A 
ATOM     21  C   UNL     1      -4.680   3.579  -5.975  0.00  0.00    +0.046 A 
ATOM     22  C   UNL     1      -6.007   3.225  -6.182  0.00  0.00    +0.117 A 
ATOM     23  C   UNL     1      -6.664   2.412  -5.268  0.00  0.00    +0.046 A 
ATOM     24  C   UNL     1      -6.001   1.953  -4.150  0.00  0.00    +0.013 A 
BRANCH  22  25
ATOM     25  O   UNL     1      -6.664   3.676  -7.282  0.00  0.00    -0.507 OA
ATOM     26  H   UNL     1      -7.715   3.397  -7.448  0.00  0.00    +0.292 HD
ENDBRANCH  22  25
ENDBRANCH  18  19
ENDBRANCH   3  17
TORSDOF 6
