REMARK  Name = ZINC51172225
REMARK  4 active torsions:
REMARK  status: ('A' for Active; 'I' for Inactive)
REMARK    1  A    between atoms: C_1  and  N_2
REMARK    2  A    between atoms: C_3  and  N_21
REMARK    3  A    between atoms: C_4  and  C_13
REMARK    4  A    between atoms: C_5  and  C_7
REMARK                            x       y       z     vdW  Elec       q    Type
REMARK                         _______ _______ _______ _____ _____    ______ ____
ROOT
ATOM      1  C   UNL     1      -0.018   1.461   0.010  0.00  0.00    +0.174 C 
ATOM      2  N   UNL     1       0.002  -0.004   0.002  0.00  0.00    -0.253 N 
ATOM      3  C   UNL     1       0.008  -0.792  -1.104  0.00  0.00    +0.123 A 
ATOM      4  C   UNL     1       0.028  -2.106  -0.676  0.00  0.00    +0.054 A 
ATOM      5  C   UNL     1       0.035  -2.085   0.743  0.00  0.00    +0.109 A 
ATOM      6  N   UNL     1       0.025  -0.828   1.133  0.00  0.00    -0.169 NA
ENDROOT
BRANCH   4   7
ATOM      7  C   UNL     1       0.041  -3.311  -1.538  0.00  0.00    +0.041 A 
ATOM      8  C   UNL     1      -1.161  -3.894  -1.945  0.00  0.00    +0.133 A 
ATOM      9  C   UNL     1      -1.141  -5.018  -2.749  0.00  0.00    +0.039 A 
ATOM     10  C   UNL     1       0.065  -5.565  -3.150  0.00  0.00    +0.004 A 
ATOM     11  C   UNL     1       1.258  -4.992  -2.749  0.00  0.00    +0.021 A 
ATOM     12  C   UNL     1       1.253  -3.864  -1.951  0.00  0.00    +0.052 A 
ATOM     13 CL   UNL     1       2.752  -3.142  -1.456  0.00  0.00    -0.083 Cl
ATOM     14  F   UNL     1      -2.339  -3.362  -1.554  0.00  0.00    -0.205 F 
ENDBRANCH   4   7
BRANCH   5  15
ATOM     15  C   UNL     1       0.055  -3.268   1.628  0.00  0.00    +0.041 A 
ATOM     16  C   UNL     1       0.668  -3.427   2.841  0.00  0.00    +0.019 A 
ATOM     17  C   UNL     1       0.548  -4.636   3.492  0.00  0.00    +0.028 A 
ATOM     18  C   UNL     1      -0.173  -5.630   2.911  0.00  0.00    +0.079 A 
ATOM     19  S   UNL     1      -0.720  -4.860   1.396  0.00  0.00    -0.075 S 
ATOM     20 CL   UNL     1      -0.489  -7.234   3.495  0.00  0.00    -0.076 Cl
ENDBRANCH   5  15
BRANCH   3  21
ATOM     21  N   UNL     1      -0.005  -0.357  -2.423  0.00  0.00    -0.343 N 
ATOM     22  H   UNL     1      -0.019   0.592  -2.620  0.00  0.00    +0.144 HD
ATOM     23  H   UNL     1       0.000  -1.003  -3.147  0.00  0.00    +0.144 HD
ENDBRANCH   3  21
TORSDOF 3
