REMARK  Name = ZINC36739695
REMARK  9 active torsions:
REMARK  status: ('A' for Active; 'I' for Inactive)
REMARK    1  A    between atoms: C_1  and  C_2
REMARK    2  A    between atoms: C_2  and  C_4
REMARK    3  A    between atoms: C_2  and  N_14
REMARK    4  A    between atoms: C_15  and  C_17
REMARK    5  A    between atoms: C_17  and  C_19
REMARK    6  A    between atoms: C_17  and  N_23
REMARK    7  A    between atoms: C_19  and  C_20
REMARK    8  A    between atoms: C_20  and  C_21
REMARK    9  A    between atoms: C_20  and  C_22
REMARK                            x       y       z     vdW  Elec       q    Type
REMARK                         _______ _______ _______ _____ _____    ______ ____
ROOT
ATOM      1  N   UNL     1       0.711  -0.489   1.189  0.00  0.00    -0.307 N 
ATOM      2  C   UNL     1       2.054  -0.600   1.174  0.00  0.00    +0.234 C 
ATOM      3  O   UNL     1       2.676  -0.297   0.177  0.00  0.00    -0.274 OA
ATOM      4  H   UNL     1       0.213  -0.731   1.986  0.00  0.00    +0.149 HD
ENDROOT
BRANCH   1   6
ATOM      5  C   UNL     1      -0.019   1.526   0.010  0.00  0.00    +0.033 C 
ATOM      6  C   UNL     1       0.002  -0.004   0.002  0.00  0.00    +0.100 C 
BRANCH   6   7
ATOM      7  C   UNL     1      -1.412  -0.526   0.013  0.00  0.00    -0.027 A 
ATOM      8  C   UNL     1      -2.119  -0.567   1.213  0.00  0.00    +0.006 A 
ATOM      9  C   UNL     1      -3.397  -1.032   1.257  0.00  0.00    +0.009 A 
ATOM     10  C   UNL     1      -4.016  -1.479   0.077  0.00  0.00    -0.018 A 
ATOM     11  C   UNL     1      -5.334  -1.966   0.084  0.00  0.00    +0.008 A 
ATOM     12  C   UNL     1      -5.901  -2.389  -1.079  0.00  0.00    +0.001 A 
ATOM     13  C   UNL     1      -5.194  -2.348  -2.279  0.00  0.00    +0.001 A 
ATOM     14  C   UNL     1      -3.916  -1.883  -2.324  0.00  0.00    +0.008 A 
ATOM     15  C   UNL     1      -3.297  -1.437  -1.143  0.00  0.00    -0.018 A 
ATOM     16  C   UNL     1      -1.980  -0.944  -1.151  0.00  0.00    +0.014 A 
ENDBRANCH   6   7
ENDBRANCH   1   6
BRANCH   2  17
ATOM     17  C   UNL     1       2.783  -1.099   2.395  0.00  0.00    +0.170 C 
BRANCH  17  18
ATOM     18  N   UNL     1       4.223  -1.127   2.126  0.00  0.00    -0.230 N 
ATOM     19  C   UNL     1       4.772  -1.860   1.138  0.00  0.00    +0.227 C 
ATOM     20  O   UNL     1       4.178  -2.413   0.237  0.00  0.00    -0.275 OA
ATOM     21  C   UNL     1       6.293  -1.865   1.367  0.00  0.00    +0.091 C 
ATOM     22  C   UNL     1       6.546  -3.056   2.293  0.00  0.00    +0.040 C 
ATOM     23  C   UNL     1       7.653  -2.826   3.263  0.00  0.00    -0.030 C 
ATOM     24  C   UNL     1       8.135  -1.668   3.571  0.00  0.00    -0.030 C 
ATOM     25  C   UNL     1       7.668  -0.391   2.947  0.00  0.00    +0.040 C 
ATOM     26  C   UNL     1       6.428  -0.528   2.114  0.00  0.00    +0.091 C 
ATOM     27  C   UNL     1       5.121  -0.416   2.844  0.00  0.00    +0.227 C 
ATOM     28  O   UNL     1       4.913   0.190   3.873  0.00  0.00    -0.275 OA
ENDBRANCH  17  18
BRANCH  17  29
ATOM     29  C   UNL     1       2.300  -2.510   2.736  0.00  0.00    +0.035 C 
BRANCH  29  30
ATOM     30  C   UNL     1       2.946  -2.968   4.044  0.00  0.00    -0.015 C 
ATOM     31  C   UNL     1       2.456  -2.084   5.192  0.00  0.00    +0.007 C 
ATOM     32  C   UNL     1       2.562  -4.423   4.321  0.00  0.00    +0.007 C 
ENDBRANCH  29  30
ENDBRANCH  17  29
ENDBRANCH   2  17
TORSDOF 6
