REMARK  Name = ZINC08607086
REMARK  9 active torsions:
REMARK  status: ('A' for Active; 'I' for Inactive)
REMARK    1  A    between atoms: C_1  and  C_2
REMARK    2  A    between atoms: C_2  and  O_3
REMARK    3  A    between atoms: O_3  and  C_4
REMARK    4  A    between atoms: C_4  and  C_6
REMARK    5  A    between atoms: C_6  and  C_7
REMARK    6  A    between atoms: C_13  and  C_15
REMARK    7  A    between atoms: C_15  and  S_16
REMARK    8  A    between atoms: S_16  and  C_17
REMARK    9  A    between atoms: C_19  and  C_24
REMARK                            x       y       z     vdW  Elec       q    Type
REMARK                         _______ _______ _______ _____ _____    ______ ____
ROOT
ATOM      1  C   UNL     1       1.496  -3.885   2.424  0.00  0.00    +0.061 A 
ATOM      2  C   UNL     1       2.639  -4.612   2.482  0.00  0.00    +0.072 A 
ATOM      3  S   UNL     1       1.987  -6.269   2.347  0.00  0.00    -0.060 S 
ATOM      4  C   UNL     1       0.357  -5.869   2.232  0.00  0.00    +0.165 A 
ATOM      5  N   UNL     1       0.365  -4.555   2.303  0.00  0.00    -0.229 NA
ATOM      6  N   UNL     1      -0.735  -6.720   2.100  0.00  0.00    -0.264 N 
ATOM      7  C   UNL     1      -0.547  -8.053   2.050  0.00  0.00    +0.229 C 
ATOM      8  O   UNL     1       0.574  -8.511   2.120  0.00  0.00    -0.275 OA
ATOM      9  H   UNL     1      -1.631  -6.353   2.044  0.00  0.00    +0.157 HD
ENDROOT
BRANCH   1  10
ATOM     10  C   UNL     1       1.516  -2.381   2.500  0.00  0.00    +0.176 C 
BRANCH  10  11
ATOM     11  C   UNL     1       0.801  -1.808   1.304  0.00  0.00    +0.313 C 
ATOM     12  O   UNL     1       0.324  -2.546   0.475  0.00  0.00    -0.250 OA
BRANCH  11  13
ATOM     13  O   UNL     1       0.693  -0.477   1.160  0.00  0.00    -0.465 OA
BRANCH  13  15
ATOM     14  C   UNL     1      -0.019   1.526   0.010  0.00  0.00    +0.048 C 
ATOM     15  C   UNL     1       0.002  -0.004   0.002  0.00  0.00    +0.229 C 
ENDBRANCH  13  15
ENDBRANCH  11  13
ENDBRANCH  10  11
ENDBRANCH   1  10
BRANCH   7  16
ATOM     16  C   UNL     1      -1.730  -8.976   1.907  0.00  0.00    +0.173 C 
BRANCH  16  17
ATOM     17  S   UNL     1      -1.155 -10.696   1.870  0.00  0.00    -0.078 S 
BRANCH  17  18
ATOM     18  C   UNL     1      -2.635 -11.637   1.701  0.00  0.00    +0.170 A 
ATOM     19  N   UNL     1      -3.795 -11.013   1.631  0.00  0.00    -0.228 NA
ATOM     20  C   UNL     1      -4.936 -11.686   1.502  0.00  0.00    +0.046 A 
ATOM     21  C   UNL     1      -4.923 -13.050   1.442  0.00  0.00    +0.093 A 
ATOM     22  C   UNL     1      -3.691 -13.723   1.516  0.00  0.00    +0.252 A 
ATOM     23  N   UNL     1      -2.561 -12.995   1.641  0.00  0.00    -0.302 N 
ATOM     24  O   UNL     1      -3.644 -14.941   1.466  0.00  0.00    -0.268 OA
ATOM     25  C   UNL     1      -6.243 -10.941   1.425  0.00  0.00    +0.066 C 
ATOM     26  H   UNL     1      -1.700 -13.439   1.690  0.00  0.00    +0.171 HD
ENDBRANCH  17  18
ENDBRANCH  16  17
ENDBRANCH   7  16
TORSDOF 7
