REMARK  Name = ZINC60242250
REMARK  7 active torsions:
REMARK  status: ('A' for Active; 'I' for Inactive)
REMARK    1  A    between atoms: C_1  and  C_2
REMARK    2  A    between atoms: N_11  and  C_15
REMARK    3  A    between atoms: C_15  and  C_16
REMARK    4  A    between atoms: N_18  and  C_19
REMARK    5  A    between atoms: C_22  and  N_25
REMARK    6  A    between atoms: C_27  and  C_34
REMARK    7  A    between atoms: C_30  and  C_33
REMARK                            x       y       z     vdW  Elec       q    Type
REMARK                         _______ _______ _______ _____ _____    ______ ____
ROOT
ATOM      1  C   UNL     1       1.143   0.523   5.534  0.00  0.00    +0.235 C 
ATOM      2  O   UNL     1       1.538  -0.601   5.305  0.00  0.00    -0.274 OA
ATOM      3  N   UNL     1       1.032   0.953   6.806  0.00  0.00    -0.284 N 
ATOM      4  H   UNL     1       0.779   1.871   6.988  0.00  0.00    +0.155 HD
ENDROOT
BRANCH   3   5
ATOM      5  C   UNL     1       1.282   0.072   7.867  0.00  0.00    +0.034 A 
ATOM      6  C   UNL     1       0.541   0.166   9.037  0.00  0.00    +0.025 A 
ATOM      7  C   UNL     1       0.787  -0.702  10.083  0.00  0.00    +0.025 A 
ATOM      8  C   UNL     1       1.777  -1.669   9.964  0.00  0.00    +0.030 A 
ATOM      9  C   UNL     1       2.518  -1.763   8.793  0.00  0.00    +0.025 A 
ATOM     10  C   UNL     1       2.268  -0.898   7.746  0.00  0.00    +0.025 A 
BRANCH   8  11
ATOM     11  N   UNL     1       2.026  -2.548  11.023  0.00  0.00    -0.325 N 
ATOM     12  C   UNL     1       3.150  -3.497  10.970  0.00  0.00    +0.136 C 
ATOM     13  C   UNL     1       2.618  -4.894  11.313  0.00  0.00    +0.133 C 
ATOM     14  O   UNL     1       1.895  -4.834  12.544  0.00  0.00    -0.371 OA
ATOM     15  C   UNL     1       0.740  -3.993  12.504  0.00  0.00    +0.133 C 
ATOM     16  C   UNL     1       1.178  -2.546  12.225  0.00  0.00    +0.136 C 
ATOM     17  C   UNL     1       0.014  -4.056  13.850  0.00  0.00    +0.039 C 
ATOM     18  C   UNL     1       3.791  -5.866  11.455  0.00  0.00    +0.039 C 
ENDBRANCH   8  11
ENDBRANCH   3   5
BRANCH   1  19
ATOM     19  C   UNL     1       0.777   1.439   4.395  0.00  0.00    +0.214 C 
BRANCH  19  29
ATOM     20  C   UNL     1      -0.032   1.536   0.013  0.00  0.00    +0.010 C 
ATOM     21  C   UNL     1      -0.035   0.006   0.006  0.00  0.00    +0.018 C 
ATOM     22  C   UNL     1       0.668  -0.500  -1.255  0.00  0.00    +0.006 C 
ATOM     23  C   UNL     1       0.682  -2.030  -1.251  0.00  0.00    +0.000 C 
ATOM     24  C   UNL     1       1.438  -2.532  -0.020  0.00  0.00    +0.003 C 
ATOM     25  C   UNL     1       0.737  -2.034   1.247  0.00  0.00    +0.035 C 
ATOM     26  C   UNL     1       0.697  -0.509   1.240  0.00  0.00    +0.115 C 
ATOM     27  C   UNL     1       0.040   0.007   2.499  0.00  0.00    +0.247 C 
ATOM     28  O   UNL     1      -1.096  -0.198   2.871  0.00  0.00    -0.273 OA
ATOM     29  N   UNL     1       0.983   0.743   3.122  0.00  0.00    -0.215 N 
ATOM     30  C   UNL     1       2.131   0.759   2.433  0.00  0.00    +0.310 C 
ATOM     31  O   UNL     1       3.127   1.355   2.793  0.00  0.00    -0.252 OA
ATOM     32  N   UNL     1       2.058   0.041   1.297  0.00  0.00    -0.285 N 
ATOM     33  H   UNL     1       2.764  -0.089   0.645  0.00  0.00    +0.151 HD
ENDBRANCH  19  29
ENDBRANCH   1  19
TORSDOF 4
