REMARK  Name = ZINC39973108
REMARK  9 active torsions:
REMARK  status: ('A' for Active; 'I' for Inactive)
REMARK    1  A    between atoms: C_1  and  C_2
REMARK    2  A    between atoms: C_11  and  O_12
REMARK    3  A    between atoms: O_12  and  C_13
REMARK    4  A    between atoms: C_13  and  C_14
REMARK    5  A    between atoms: C_18  and  S_24
REMARK    6  A    between atoms: N_20  and  C_21
REMARK    7  A    between atoms: C_21  and  C_22
REMARK    8  A    between atoms: S_24  and  C_25
REMARK    9  A    between atoms: C_25  and  C_26
REMARK                            x       y       z     vdW  Elec       q    Type
REMARK                         _______ _______ _______ _____ _____    ______ ____
ROOT
ATOM      1  C   UNL     1       0.045   0.132   4.768  0.00  0.00    +0.178 C 
ATOM      2  N   UNL     1       1.197   1.070   4.706  0.00  0.00    -0.234 NA
ATOM      3  N   UNL     1       0.750   2.200   5.536  0.00  0.00    -0.229 NA
ATOM      4  C   UNL     1      -0.693   2.334   5.233  0.00  0.00    +0.200 C 
ATOM      5  N   UNL     1      -1.146   1.012   4.746  0.00  0.00    -0.255 NA
ATOM      6  H   UNL     1       1.372   1.365   3.757  0.00  0.00    +0.142 HD
ATOM      7  H   UNL     1       1.250   3.043   5.297  0.00  0.00    +0.143 HD
ENDROOT
BRANCH   1   8
ATOM      8  C   UNL     1       0.046  -0.799   3.554  0.00  0.00    +0.265 C 
BRANCH   8   9
ATOM      9  O   UNL     1       0.025  -0.019   2.356  0.00  0.00    -0.489 OA
BRANCH   9  20
ATOM     10  C   UNL     1      -0.018   1.503   0.010  0.00  0.00    +0.048 C 
ATOM     11  C   UNL     1       0.002  -0.004   0.002  0.00  0.00    -0.001 A 
ATOM     12  C   UNL     1       0.006  -0.704  -1.216  0.00  0.00    -0.012 A 
ATOM     13  C   UNL     1      -0.009  -0.025  -2.447  0.00  0.00    +0.009 A 
ATOM     14  C   UNL     1      -0.004  -0.735  -3.608  0.00  0.00    +0.001 A 
ATOM     15  C   UNL     1       0.015  -2.128  -3.596  0.00  0.00    +0.001 A 
ATOM     16  C   UNL     1       0.029  -2.819  -2.424  0.00  0.00    +0.008 A 
ATOM     17  C   UNL     1       0.026  -2.121  -1.204  0.00  0.00    -0.017 A 
ATOM     18  C   UNL     1       0.041  -2.802   0.025  0.00  0.00    +0.012 A 
ATOM     19  C   UNL     1       0.037  -2.095   1.188  0.00  0.00    +0.046 A 
ATOM     20  C   UNL     1       0.023  -0.697   1.179  0.00  0.00    +0.124 A 
ENDBRANCH   9  20
ENDBRANCH   8   9
ENDBRANCH   1   8
BRANCH   5  21
ATOM     21  C   UNL     1      -1.700   1.113   3.389  0.00  0.00    +0.115 C 
BRANCH  21  22
ATOM     22  C   UNL     1      -3.037   1.806   3.443  0.00  0.00    -0.019 C 
ATOM     23  C   UNL     1      -3.253   2.870   2.710  0.00  0.00    +0.005 C 
ENDBRANCH  21  22
ENDBRANCH   5  21
BRANCH   4  24
ATOM     24  S   UNL     1      -1.604   2.787   6.734  0.00  0.00    -0.117 S 
BRANCH  24  25
ATOM     25  C   UNL     1      -1.241   1.438   7.892  0.00  0.00    +0.146 C 
BRANCH  25  26
ATOM     26  C   UNL     1      -1.947   1.694   9.198  0.00  0.00    +0.120 A 
ATOM     27  N   UNL     1      -1.793   0.790  10.201  0.00  0.00    -0.310 N 
ATOM     28  H   UNL     1      -1.239   0.007  10.062  0.00  0.00    +0.170 HD
ATOM     29  C   UNL     1      -2.406   0.974  11.394  0.00  0.00    +0.259 A 
ATOM     30  O   UNL     1      -2.276   0.174  12.302  0.00  0.00    -0.267 OA
ATOM     31  C   UNL     1      -3.234   2.179  11.551  0.00  0.00    +0.065 A 
ATOM     32  C   UNL     1      -3.907   2.462  12.738  0.00  0.00    +0.015 A 
ATOM     33  C   UNL     1      -4.670   3.605  12.830  0.00  0.00    +0.001 A 
ATOM     34  C   UNL     1      -4.773   4.474  11.752  0.00  0.00    +0.002 A 
ATOM     35  C   UNL     1      -4.116   4.214  10.570  0.00  0.00    +0.028 A 
ATOM     36  C   UNL     1      -3.336   3.061  10.453  0.00  0.00    +0.078 A 
ATOM     37  N   UNL     1      -2.668   2.768   9.309  0.00  0.00    -0.233 NA
ENDBRANCH  25  26
ENDBRANCH  24  25
ENDBRANCH   4  24
TORSDOF 8
