REMARK  Name = ZINC47440010
REMARK  11 active torsions:
REMARK  status: ('A' for Active; 'I' for Inactive)
REMARK    1  A    between atoms: C_1  and  C_2
REMARK    2  A    between atoms: C_3  and  C_15
REMARK    3  A    between atoms: C_10  and  C_14
REMARK    4  A    between atoms: N_12  and  C_13
REMARK    5  A    between atoms: C_15  and  C_16
REMARK    6  A    between atoms: C_16  and  C_17
REMARK    7  A    between atoms: N_19  and  C_20
REMARK    8  A    between atoms: C_22  and  C_28
REMARK    9  A    between atoms: C_22  and  C_29
REMARK   10  A    between atoms: C_24  and  C_26
REMARK   11  A    between atoms: C_24  and  C_27
REMARK                            x       y       z     vdW  Elec       q    Type
REMARK                         _______ _______ _______ _____ _____    ______ ____
ROOT
ATOM      1  C   UNL     1       0.995   0.481  -3.037  0.00  0.00    +0.100 C 
ENDROOT
BRANCH   1   2
ATOM      2  C   UNL     1       0.870   1.255  -4.324  0.00  0.00    +0.214 C 
ATOM      3  O   UNL     1      -0.187   1.771  -4.620  0.00  0.00    -0.276 OA
ATOM      4  N   UNL     1       1.932   1.373  -5.145  0.00  0.00    -0.313 N 
ATOM      5  H   UNL     1       2.777   0.960  -4.908  0.00  0.00    +0.149 HD
BRANCH   4   6
ATOM      6  C   UNL     1       1.809   2.127  -6.399  0.00  0.00    +0.070 C 
ATOM      7  C   UNL     1       2.086   3.607  -6.125  0.00  0.00    +0.009 C 
ATOM      8  C   UNL     1       1.974   4.404  -7.424  0.00  0.00    -0.072 C 
ATOM      9  N   UNL     1       2.825   3.863  -8.474  0.00  0.00    +0.386 N 
ATOM     10  C   UNL     1       2.799   2.426  -8.690  0.00  0.00    -0.072 C 
ATOM     11  C   UNL     1       2.852   1.621  -7.395  0.00  0.00    +0.009 C 
ATOM     12  C   UNL     1       1.585   1.999  -9.520  0.00  0.00    -0.010 C 
ATOM     13  C   UNL     1       4.058   2.057  -9.510  0.00  0.00    -0.010 C 
ATOM     14  C   UNL     1       2.460   5.841  -7.123  0.00  0.00    -0.010 C 
ATOM     15  C   UNL     1       0.513   4.502  -7.860  0.00  0.00    -0.010 C 
ATOM     16  H   UNL     1       2.583   4.326  -9.353  0.00  0.00    -0.084 HD
ATOM     17  H   UNL     1       3.790   4.143  -8.280  0.00  0.00    -0.084 HD
ENDBRANCH   4   6
ENDBRANCH   1   2
BRANCH   1  18
ATOM     18  C   UNL     1      -0.344   0.500  -2.297  0.00  0.00    +0.050 C 
BRANCH  18  21
ATOM     19  C   UNL     1       0.302   1.865   0.150  0.00  0.00    +0.045 C 
ATOM     20  C   UNL     1       0.086   0.374   0.145  0.00  0.00    -0.030 A 
ATOM     21  C   UNL     1      -0.219  -0.274  -1.010  0.00  0.00    +0.021 A 
ATOM     22  C   UNL     1      -0.418  -1.666  -1.005  0.00  0.00    +0.254 A 
ATOM     23  O   UNL     1      -0.691  -2.240  -2.046  0.00  0.00    -0.268 OA
ATOM     24  N   UNL     1      -0.310  -2.374   0.135  0.00  0.00    -0.307 N 
ATOM     25  H   UNL     1      -0.450  -3.334   0.120  0.00  0.00    +0.170 HD
ATOM     26  C   UNL     1      -0.004  -1.752   1.315  0.00  0.00    +0.139 A 
ATOM     27  C   UNL     1       0.204  -0.371   1.341  0.00  0.00    +0.043 A 
ATOM     28  C   UNL     1       0.506  -0.022   2.678  0.00  0.00    +0.069 A 
ATOM     29  N   UNL     1       0.484  -1.109   3.396  0.00  0.00    -0.174 NA
ATOM     30  N   UNL     1       0.164  -2.199   2.579  0.00  0.00    -0.251 N 
ATOM     31  C   UNL     1       0.044  -3.592   3.017  0.00  0.00    +0.174 C 
ATOM     32  C   UNL     1       0.801   1.367   3.183  0.00  0.00    +0.068 C 
ENDBRANCH  18  21
ENDBRANCH   1  18
TORSDOF 4
