REMARK  Name = ZINC02137262
REMARK  7 active torsions:
REMARK  status: ('A' for Active; 'I' for Inactive)
REMARK    1  A    between atoms: C_4  and  N_29
REMARK    2  A    between atoms: C_5  and  C_7
REMARK    3  A    between atoms: N_9  and  C_10
REMARK    4  A    between atoms: C_10  and  C_12
REMARK    5  A    between atoms: C_10  and  O_16
REMARK    6  A    between atoms: O_16  and  C_17
REMARK    7  A    between atoms: C_17  and  C_18
REMARK                            x       y       z     vdW  Elec       q    Type
REMARK                         _______ _______ _______ _____ _____    ______ ____
ROOT
ATOM      1  C   UNL     1       3.201   1.193   3.459  0.00  0.00    +0.257 C 
ENDROOT
BRANCH   1   4
ATOM      2  C   UNL     1       4.399   1.544   1.367  0.00  0.00    +0.248 C 
ATOM      3  O   UNL     1       4.027   2.701   1.382  0.00  0.00    -0.270 OA
ATOM      4  N   UNL     1       4.040   0.708   2.361  0.00  0.00    -0.283 N 
ATOM      5  H   UNL     1       4.336  -0.216   2.348  0.00  0.00    +0.152 HD
BRANCH   2  10
ATOM      6  C   UNL     1       6.574  -0.683  -0.734  0.00  0.00    +0.001 A 
ATOM      7  C   UNL     1       6.830   0.136  -1.819  0.00  0.00    +0.002 A 
ATOM      8  C   UNL     1       6.298   1.412  -1.871  0.00  0.00    +0.033 A 
ATOM      9  C   UNL     1       5.503   1.873  -0.842  0.00  0.00    +0.138 A 
ATOM     10  C   UNL     1       5.245   1.054   0.258  0.00  0.00    +0.067 A 
ATOM     11  C   UNL     1       5.785  -0.232   0.304  0.00  0.00    +0.015 A 
BRANCH   9  12
ATOM     12  N   UNL     1       4.928   3.236  -0.902  0.00  0.00    +0.057 N 
ATOM     13  O   UNL     1       3.737   3.405  -0.709  0.00  0.00    -0.126 OA
ATOM     14  O   UNL     1       5.646   4.189  -1.145  0.00  0.00    -0.126 OA
ENDBRANCH   9  12
ENDBRANCH   2  10
ENDBRANCH   1   4
BRANCH   1  15
ATOM     15  C   UNL     1       3.694   0.597   4.779  0.00  0.00    +0.233 C 
ATOM     16 CL   UNL     1       3.598  -1.202   4.699  0.00  0.00    -0.079 Cl
ATOM     17 CL   UNL     1       5.404   1.095   5.062  0.00  0.00    -0.079 Cl
ATOM     18 CL   UNL     1       2.662   1.194   6.132  0.00  0.00    -0.079 Cl
ENDBRANCH   1  15
BRANCH   1  19
ATOM     19  O   UNL     1       1.846   0.798   3.235  0.00  0.00    -0.354 OA
BRANCH  19  20
ATOM     20  C   UNL     1       1.215   1.479   2.149  0.00  0.00    +0.164 C 
BRANCH  20  21
ATOM     21  C   UNL     1      -0.224   0.980   2.002  0.00  0.00    +0.001 C 
ATOM     22  C   UNL     1      -1.026   1.367   3.245  0.00  0.00    +0.002 C 
ATOM     23  C   UNL     1      -2.474   0.902   3.060  0.00  0.00    -0.018 C 
ATOM     24  C   UNL     1      -3.047   1.559   1.804  0.00  0.00    -0.078 C 
ATOM     25  C   UNL     1      -0.857   1.612   0.756  0.00  0.00    -0.063 C 
ATOM     26  C   UNL     1      -0.049   1.163  -0.466  0.00  0.00    -0.015 C 
ATOM     27  C   UNL     1      -0.674   1.736  -1.739  0.00  0.00    -0.003 C 
ATOM     28  C   UNL     1      -2.128   1.262  -1.829  0.00  0.00    -0.019 C 
ATOM     29  C   UNL     1      -2.878   1.734  -0.584  0.00  0.00    -0.078 C 
ATOM     30  N   UNL     1      -2.263   1.155   0.622  0.00  0.00    +0.382 N 
ATOM     31  H   UNL     1      -2.273   0.131   0.545  0.00  0.00    -0.081 HD
ENDBRANCH  20  21
ENDBRANCH  19  20
ENDBRANCH   1  19
TORSDOF 7
