REMARK  Name = ZINC08767128
REMARK  11 active torsions:
REMARK  status: ('A' for Active; 'I' for Inactive)
REMARK    1  A    between atoms: C_1  and  C_2
REMARK    2  A    between atoms: C_2  and  O_3
REMARK    3  A    between atoms: O_3  and  C_4
REMARK    4  A    between atoms: C_4  and  C_6
REMARK    5  A    between atoms: C_7  and  C_37
REMARK    6  A    between atoms: C_14  and  C_15
REMARK    7  A    between atoms: C_18  and  N_20
REMARK    8  A    between atoms: C_25  and  N_74
REMARK    9  A    between atoms: C_27  and  C_29
REMARK   10  A    between atoms: C_32  and  S_35
REMARK   11  A    between atoms: S_35  and  C_36
REMARK                            x       y       z     vdW  Elec       q    Type
REMARK                         _______ _______ _______ _____ _____    ______ ____
ROOT
ATOM      1  C   UNL     1      -1.389   2.315  -0.624  0.00  0.00    +0.090 C 
ATOM      2  C   UNL     1      -0.263   1.642  -0.162  0.00  0.00    +0.086 C 
ATOM      3  N   UNL     1       0.816   2.328   0.226  0.00  0.00    -0.222 NA
ATOM      4  C   UNL     1       0.910   3.631   0.214  0.00  0.00    +0.178 A 
ATOM      5  N   UNL     1      -0.090   4.482  -0.201  0.00  0.00    -0.275 N 
ATOM      6  C   UNL     1       0.145   5.799  -0.160  0.00  0.00    +0.268 A 
ATOM      7  O   UNL     1      -0.713   6.588  -0.518  0.00  0.00    -0.266 OA
ATOM      8  C   UNL     1       1.398   6.270   0.302  0.00  0.00    +0.084 A 
ATOM      9  C   UNL     1       1.853   7.565   0.428  0.00  0.00    +0.067 C 
ATOM     10  S   UNL     1       2.230   4.735   0.679  0.00  0.00    -0.046 S 
ATOM     11  C   UNL     1      -1.346   3.825  -0.658  0.00  0.00    +0.162 C 
ENDROOT
BRANCH  11  12
ATOM     12  C   UNL     1      -2.476   4.344   0.194  0.00  0.00    -0.020 A 
ATOM     13  C   UNL     1      -2.287   4.532   1.551  0.00  0.00    +0.007 A 
ATOM     14  C   UNL     1      -3.318   5.012   2.334  0.00  0.00    +0.015 A 
ATOM     15  C   UNL     1      -4.551   5.297   1.758  0.00  0.00    +0.008 A 
ATOM     16  C   UNL     1      -4.738   5.102   0.395  0.00  0.00    +0.015 A 
ATOM     17  C   UNL     1      -3.701   4.626  -0.383  0.00  0.00    +0.007 A 
BRANCH  15  18
ATOM     18  S   UNL     1      -5.871   5.904   2.753  0.00  0.00    -0.129 S 
ATOM     19  C   UNL     1      -5.161   5.989   4.420  0.00  0.00    +0.090 C 
ENDBRANCH  15  18
ENDBRANCH  11  12
BRANCH   2  20
ATOM     20  C   UNL     1      -0.257   0.162  -0.106  0.00  0.00    +0.001 A 
ATOM     21  C   UNL     1      -1.196  -0.513   0.674  0.00  0.00    +0.010 A 
ATOM     22  C   UNL     1      -1.189  -1.892   0.718  0.00  0.00    +0.001 A 
ATOM     23  C   UNL     1      -0.246  -2.605   0.000  0.00  0.00    +0.000 A 
ATOM     24  C   UNL     1       0.692  -1.941  -0.771  0.00  0.00    +0.001 A 
ATOM     25  C   UNL     1       0.691  -0.563  -0.828  0.00  0.00    +0.010 A 
ENDBRANCH   2  20
BRANCH   9  26
ATOM     26  C   UNL     1       0.968   8.642   0.248  0.00  0.00    +0.131 A 
ATOM     27  C   UNL     1       1.312   9.984   0.210  0.00  0.00    +0.051 A 
ATOM     28  C   UNL     1       0.128  10.697   0.013  0.00  0.00    +0.066 A 
ATOM     29  C   UNL     1      -0.885   9.784  -0.062  0.00  0.00    +0.189 A 
ATOM     30  O   UNL     1      -0.371   8.552   0.076  0.00  0.00    -0.442 OA
BRANCH  29  31
ATOM     31  N   UNL     1      -2.220  10.080  -0.253  0.00  0.00    -0.305 N 
ATOM     32  C   UNL     1      -2.707  11.007   0.778  0.00  0.00    +0.089 C 
ATOM     33  C   UNL     1      -4.164  11.371   0.486  0.00  0.00    -0.060 C 
ATOM     34  C   UNL     1      -4.489   9.220  -0.575  0.00  0.00    -0.060 C 
ATOM     35  C   UNL     1      -3.032   8.855  -0.282  0.00  0.00    +0.089 C 
ATOM     36  C   UNL     1      -6.397  10.461   0.253  0.00  0.00    -0.096 C 
ATOM     37  N   UNL     1      -4.973  10.134   0.481  0.00  0.00    +0.380 N 
ATOM     38  H   UNL     1      -4.879   9.671   1.393  0.00  0.00    -0.082 HD
ENDBRANCH  29  31
ENDBRANCH   9  26
BRANCH   1  39
ATOM     39  C   UNL     1      -2.527   1.616  -1.040  0.00  0.00    +0.340 C 
ATOM     40  O   UNL     1      -2.508   0.398  -1.098  0.00  0.00    -0.245 OA
BRANCH  39  41
ATOM     41  O   UNL     1      -3.648   2.290  -1.379  0.00  0.00    -0.462 OA
BRANCH  41  43
ATOM     42  C   UNL     1      -5.939   2.443  -2.135  0.00  0.00    +0.048 C 
ATOM     43  C   UNL     1      -4.773   1.513  -1.795  0.00  0.00    +0.229 C 
ENDBRANCH  41  43
ENDBRANCH  39  41
ENDBRANCH   1  39
TORSDOF 8
