REMARK  Name = ZINC64002342
REMARK  8 active torsions:
REMARK  status: ('A' for Active; 'I' for Inactive)
REMARK    1  A    between atoms: C_1  and  C_2
REMARK    2  A    between atoms: C_11  and  C_13
REMARK    3  A    between atoms: N_15  and  C_16
REMARK    4  A    between atoms: C_21  and  C_23
REMARK    5  A    between atoms: C_21  and  C_24
REMARK    6  A    between atoms: N_25  and  C_26
REMARK    7  A    between atoms: C_26  and  C_27
REMARK    8  A    between atoms: C_27  and  C_28
REMARK                            x       y       z     vdW  Elec       q    Type
REMARK                         _______ _______ _______ _____ _____    ______ ____
ROOT
ATOM      1  C   UNL     1       0.408   1.815  -0.142  0.00  0.00    +0.014 C 
ATOM      2  C   UNL     1       0.405   0.293   0.021  0.00  0.00    +0.044 C 
ATOM      3  C   UNL     1       0.777  -0.342  -1.293  0.00  0.00    +0.028 A 
ATOM      4  C   UNL     1       0.388   0.059  -2.581  0.00  0.00    +0.126 A 
ATOM      5  N   UNL     1       0.799  -0.630  -3.638  0.00  0.00    -0.221 NA
ATOM      6  C   UNL     1       1.571  -1.691  -3.514  0.00  0.00    +0.224 A 
ATOM      7  N   UNL     1       1.970  -2.105  -2.326  0.00  0.00    -0.229 NA
ATOM      8  C   UNL     1       1.605  -1.461  -1.230  0.00  0.00    +0.106 A 
ATOM      9  S   UNL     1       1.983  -1.712   0.490  0.00  0.00    -0.092 S 
ATOM     10  C   UNL     1       1.394  -0.096   1.143  0.00  0.00    +0.146 C 
ATOM     11  N   UNL     1      -0.425   1.170  -2.749  0.00  0.00    -0.328 N 
ATOM     12  H   UNL     1      -0.796   1.621  -1.974  0.00  0.00    +0.147 HD
ENDROOT
BRANCH  10  13
ATOM     13  C   UNL     1       0.689  -0.264   2.464  0.00  0.00    +0.227 C 
ATOM     14  O   UNL     1      -0.435  -0.720   2.498  0.00  0.00    -0.275 OA
ATOM     15  N   UNL     1       1.306   0.092   3.608  0.00  0.00    -0.311 N 
ATOM     16  H   UNL     1       2.204   0.456   3.581  0.00  0.00    +0.149 HD
BRANCH  15  17
ATOM     17  C   UNL     1       0.620  -0.071   4.892  0.00  0.00    +0.078 C 
ATOM     18  C   UNL     1      -0.259   1.154   5.163  0.00  0.00    +0.050 C 
ATOM     19  C   UNL     1      -0.910   1.010   6.541  0.00  0.00    +0.162 C 
ATOM     20  O   UNL     1       0.107   0.863   7.534  0.00  0.00    -0.374 OA
ATOM     21  C   UNL     1       0.930  -0.292   7.359  0.00  0.00    +0.066 C 
ATOM     22  C   UNL     1       1.655  -0.204   6.013  0.00  0.00    +0.056 C 
ATOM     23  C   UNL     1       1.959  -0.362   8.489  0.00  0.00    +0.041 C 
ATOM     24  C   UNL     1       0.058  -1.549   7.384  0.00  0.00    +0.041 C 
ENDBRANCH  15  17
ENDBRANCH  10  13
BRANCH  11  25
ATOM     25  C   UNL     1      -0.722   1.664  -4.096  0.00  0.00    +0.107 C 
BRANCH  25  26
ATOM     26  C   UNL     1      -1.632   2.890  -4.000  0.00  0.00    +0.052 C 
BRANCH  26  27
ATOM     27  C   UNL     1      -1.938   3.398  -5.385  0.00  0.00    -0.040 C 
ATOM     28  C   UNL     1      -3.024   3.106  -6.137  0.00  0.00    -0.001 A 
ATOM     29  C   UNL     1      -4.199   2.260  -5.900  0.00  0.00    +0.010 A 
ATOM     30  C   UNL     1      -5.142   2.162  -6.864  0.00  0.00    +0.001 A 
ATOM     31  C   UNL     1      -5.026   2.847  -8.082  0.00  0.00    +0.002 A 
ATOM     32  C   UNL     1      -3.975   3.643  -8.373  0.00  0.00    +0.026 A 
ATOM     33  C   UNL     1      -2.924   3.819  -7.431  0.00  0.00    +0.043 A 
ATOM     34  N   UNL     1      -1.820   4.524  -7.477  0.00  0.00    -0.380 N 
ATOM     35  C   UNL     1      -1.096   4.343  -6.214  0.00  0.00    +0.144 C 
ATOM     36  H   UNL     1      -1.531   5.077  -8.220  0.00  0.00    +0.160 HD
ENDBRANCH  26  27
ENDBRANCH  25  26
ENDBRANCH  11  25
TORSDOF 5
