REMARK  Name = ZINC30598117
REMARK  9 active torsions:
REMARK  status: ('A' for Active; 'I' for Inactive)
REMARK    1  A    between atoms: C_3  and  O_30
REMARK    2  A    between atoms: C_6  and  C_7
REMARK    3  A    between atoms: C_10  and  S_13
REMARK    4  A    between atoms: N_11  and  N_12
REMARK    5  A    between atoms: S_13  and  C_14
REMARK    6  A    between atoms: C_14  and  C_15
REMARK    7  A    between atoms: N_17  and  C_18
REMARK    8  A    between atoms: C_21  and  N_24
REMARK    9  A    between atoms: O_30  and  C_31
REMARK                            x       y       z     vdW  Elec       q    Type
REMARK                         _______ _______ _______ _____ _____    ______ ____
ROOT
ATOM      1  C   UNL     1       0.768   1.258  -4.194  0.00  0.00    +0.182 A 
ATOM      2  N   UNL     1       1.490   0.384  -3.532  0.00  0.00    -0.127 NA
ATOM      3  N   UNL     1       1.103   0.333  -2.308  0.00  0.00    -0.121 NA
ATOM      4  C   UNL     1       0.104   1.166  -2.115  0.00  0.00    +0.209 A 
ATOM      5  N   UNL     1      -0.142   1.786  -3.307  0.00  0.00    -0.224 N 
ENDROOT
BRANCH   1  11
ATOM      6  C   UNL     1       1.615   0.770  -6.485  0.00  0.00    +0.015 A 
ATOM      7  C   UNL     1       1.738   1.099  -7.818  0.00  0.00    +0.046 A 
ATOM      8  C   UNL     1       1.167   2.268  -8.302  0.00  0.00    +0.127 A 
ATOM      9  C   UNL     1       0.465   3.108  -7.448  0.00  0.00    +0.046 A 
ATOM     10  C   UNL     1       0.334   2.784  -6.114  0.00  0.00    +0.015 A 
ATOM     11  C   UNL     1       0.906   1.609  -5.623  0.00  0.00    +0.021 A 
BRANCH   8  12
ATOM     12  O   UNL     1       1.294   2.591  -9.616  0.00  0.00    -0.434 OA
BRANCH  12  13
ATOM     13  C   UNL     1       2.028   1.682 -10.439  0.00  0.00    +0.541 C 
ATOM     14  F   UNL     1       3.334   1.563  -9.952  0.00  0.00    -0.166 F 
ATOM     15  F   UNL     1       1.407   0.429 -10.419  0.00  0.00    -0.166 F 
ENDBRANCH  12  13
ENDBRANCH   8  12
ENDBRANCH   1  11
BRANCH   5  16
ATOM     16  N   UNL     1      -1.093   2.732  -3.564  0.00  0.00    -0.295 N 
ATOM     17  H   UNL     1      -1.763   3.071  -2.761  0.00  0.00    +0.163 HD
ATOM     18  H   UNL     1      -1.189   3.155  -4.575  0.00  0.00    +0.163 HD
ENDBRANCH   5  16
BRANCH   4  19
ATOM     19  S   UNL     1      -0.752   1.437  -0.599  0.00  0.00    -0.075 S 
BRANCH  19  20
ATOM     20  C   UNL     1       0.132   0.278   0.474  0.00  0.00    +0.173 C 
BRANCH  20  21
ATOM     21  C   UNL     1      -0.446   0.339   1.864  0.00  0.00    +0.227 C 
ATOM     22  O   UNL     1      -1.366   1.092   2.106  0.00  0.00    -0.275 OA
ATOM     23  N   UNL     1       0.059  -0.443   2.839  0.00  0.00    -0.285 N 
ATOM     24  H   UNL     1       0.947  -1.062   2.643  0.00  0.00    +0.155 HD
BRANCH  23  25
ATOM     25  C   UNL     1      -0.548  -0.468   4.102  0.00  0.00    +0.034 A 
ATOM     26  C   UNL     1       0.225  -0.656   5.240  0.00  0.00    +0.025 A 
ATOM     27  C   UNL     1      -0.372  -0.675   6.484  0.00  0.00    +0.025 A 
ATOM     28  C   UNL     1      -1.747  -0.518   6.598  0.00  0.00    +0.030 A 
ATOM     29  C   UNL     1      -2.521  -0.336   5.459  0.00  0.00    +0.025 A 
ATOM     30  C   UNL     1      -1.923  -0.311   4.215  0.00  0.00    +0.025 A 
BRANCH  28  31
ATOM     31  N   UNL     1      -2.353  -0.542   7.858  0.00  0.00    -0.330 N 
ATOM     32  C   UNL     1      -3.133   0.679   8.091  0.00  0.00    +0.105 C 
ATOM     33  C   UNL     1      -3.896   0.555   9.412  0.00  0.00    +0.019 C 
ATOM     34  C   UNL     1      -2.898   0.339  10.553  0.00  0.00    +0.003 C 
ATOM     35  C   UNL     1      -2.065  -0.912  10.263  0.00  0.00    +0.019 C 
ATOM     36  C   UNL     1      -1.355  -0.746   8.917  0.00  0.00    +0.105 C 
ENDBRANCH  28  31
ENDBRANCH  23  25
ENDBRANCH  20  21
ENDBRANCH  19  20
ENDBRANCH   4  19
TORSDOF 9
