REMARK  Name = ZINC14720382
REMARK  12 active torsions:
REMARK  status: ('A' for Active; 'I' for Inactive)
REMARK    1  A    between atoms: C_1  and  C_2
REMARK    2  A    between atoms: C_2  and  C_3
REMARK    3  A    between atoms: C_3  and  C_4
REMARK    4  A    between atoms: C_4  and  N_5
REMARK    5  A    between atoms: N_5  and  C_6
REMARK    6  A    between atoms: C_7  and  N_19
REMARK    7  A    between atoms: N_8  and  C_15
REMARK    8  A    between atoms: C_15  and  C_16
REMARK    9  A    between atoms: C_16  and  C_17
REMARK   10  A    between atoms: C_16  and  C_18
REMARK   11  A    between atoms: C_20  and  C_22
REMARK   12  A    between atoms: N_27  and  C_29
REMARK                            x       y       z     vdW  Elec       q    Type
REMARK                         _______ _______ _______ _____ _____    ______ ____
ROOT
ATOM      1  N   UNL     1       2.125   9.948  -1.140  0.00  0.00    -0.264 N 
ATOM      2  C   UNL     1       1.790   8.707  -1.548  0.00  0.00    +0.225 C 
ATOM      3  O   UNL     1       0.953   8.557  -2.414  0.00  0.00    -0.275 OA
ENDROOT
BRANCH   1   4
ATOM      4  C   UNL     1       1.446  11.070  -1.663  0.00  0.00    +0.140 A 
ATOM      5  C   UNL     1       1.555  11.396  -2.999  0.00  0.00    +0.127 A 
ATOM      6  N   UNL     1       0.877  12.493  -3.479  0.00  0.00    -0.280 N 
ATOM      7  C   UNL     1       0.126  13.244  -2.654  0.00  0.00    +0.331 A 
ATOM      8  O   UNL     1      -0.462  14.212  -3.098  0.00  0.00    -0.246 OA
ATOM      9  N   UNL     1       0.012  12.944  -1.348  0.00  0.00    -0.273 N 
ATOM     10  H   UNL     1      -0.554  13.518  -0.756  0.00  0.00    +0.173 HD
ATOM     11  C   UNL     1       0.651  11.877  -0.828  0.00  0.00    +0.277 A 
ATOM     12  O   UNL     1       0.541  11.614   0.357  0.00  0.00    -0.266 OA
BRANCH   5  13
ATOM     13  N   UNL     1       2.327  10.632  -3.841  0.00  0.00    -0.343 N 
ATOM     14  H   UNL     1       2.745   9.821  -3.512  0.00  0.00    +0.144 HD
ATOM     15  H   UNL     1       2.454  10.904  -4.763  0.00  0.00    +0.144 HD
ENDBRANCH   5  13
BRANCH   6  16
ATOM     16  C   UNL     1       0.980  12.848  -4.897  0.00  0.00    +0.131 C 
BRANCH  16  17
ATOM     17  C   UNL     1       2.161  13.800  -5.100  0.00  0.00    +0.003 C 
ATOM     18  C   UNL     1       2.345  14.072  -6.594  0.00  0.00    +0.009 C 
ATOM     19  C   UNL     1       1.886  15.117  -4.371  0.00  0.00    +0.009 C 
ENDBRANCH  16  17
ENDBRANCH   6  16
ENDBRANCH   1   4
BRANCH   2  20
ATOM     20  C   UNL     1       2.455   7.505  -0.928  0.00  0.00    +0.102 C 
ATOM     21  C   UNL     1       1.841   7.186   0.455  0.00  0.00    +0.110 C 
ATOM     22  C   UNL     1       1.824   5.674   0.515  0.00  0.00    +0.221 C 
ATOM     23  O   UNL     1       1.678   5.020   1.527  0.00  0.00    -0.275 OA
ATOM     24  N   UNL     1       1.997   5.161  -0.715  0.00  0.00    -0.270 N 
ATOM     25  C   UNL     1       2.127   6.221  -1.721  0.00  0.00    +0.127 C 
BRANCH  24  26
ATOM     26  C   UNL     1       2.042   3.795  -0.999  0.00  0.00    +0.044 A 
ATOM     27  C   UNL     1       3.243   3.119  -0.983  0.00  0.00    +0.024 A 
ATOM     28  C   UNL     1       3.298   1.758  -1.265  0.00  0.00    +0.002 A 
ATOM     29  C   UNL     1       2.170   1.056  -1.565  0.00  0.00    +0.008 A 
ATOM     30  C   UNL     1       0.925   1.707  -1.592  0.00  0.00    -0.016 A 
ATOM     31  C   UNL     1       0.857   3.093  -1.306  0.00  0.00    +0.004 A 
ATOM     32  C   UNL     1      -0.388   3.741  -1.334  0.00  0.00    +0.010 A 
ATOM     33  C   UNL     1      -1.511   3.033  -1.635  0.00  0.00    +0.001 A 
ATOM     34  C   UNL     1      -1.444   1.671  -1.922  0.00  0.00    +0.001 A 
ATOM     35  C   UNL     1      -0.255   1.008  -1.899  0.00  0.00    +0.008 A 
ENDBRANCH  24  26
ENDBRANCH   2  20
BRANCH   1  36
ATOM     36  C   UNL     1       3.194  10.133  -0.155  0.00  0.00    +0.114 C 
BRANCH  36  37
ATOM     37  C   UNL     1       4.521  10.364  -0.880  0.00  0.00    +0.019 C 
BRANCH  37  39
ATOM     38  C   UNL     1       6.965  10.788  -0.577  0.00  0.00    +0.004 C 
ATOM     39  C   UNL     1       5.637  10.557   0.148  0.00  0.00    -0.002 C 
ENDBRANCH  37  39
ENDBRANCH  36  37
ENDBRANCH   1  36
TORSDOF 9
