REMARK  Name = ZINC31784111
REMARK  10 active torsions:
REMARK  status: ('A' for Active; 'I' for Inactive)
REMARK    1  A    between atoms: C_1  and  C_2
REMARK    2  A    between atoms: C_2  and  C_4
REMARK    3  A    between atoms: C_2  and  S_13
REMARK    4  A    between atoms: C_6  and  C_9
REMARK    5  A    between atoms: C_9  and  C_10
REMARK    6  A    between atoms: C_9  and  C_11
REMARK    7  A    between atoms: C_9  and  C_12
REMARK    8  A    between atoms: S_13  and  C_14
REMARK    9  A    between atoms: C_16  and  C_24
REMARK   10  A    between atoms: N_26  and  C_27
REMARK                            x       y       z     vdW  Elec       q    Type
REMARK                         _______ _______ _______ _____ _____    ______ ____
ROOT
ATOM      1  C   UNL     1      -1.233   1.767   0.004  0.00  0.00    +0.099 A 
ATOM      2  C   UNL     1      -0.013   1.076  -0.006  0.00  0.00    +0.048 A 
ATOM      3  C   UNL     1       1.175   1.791   0.001  0.00  0.00    +0.048 A 
ATOM      4  C   UNL     1       1.080   3.252   0.025  0.00  0.00    +0.013 A 
ATOM      5  C   UNL     1       2.223   4.058   0.033  0.00  0.00    +0.011 A 
ATOM      6  C   UNL     1       2.089   5.415   0.055  0.00  0.00    +0.001 A 
ATOM      7  C   UNL     1       0.828   6.007   0.069  0.00  0.00    +0.002 A 
ATOM      8  C   UNL     1      -0.303   5.251   0.062  0.00  0.00    +0.028 A 
ATOM      9  C   UNL     1      -0.205   3.848   0.039  0.00  0.00    +0.073 A 
ATOM     10  N   UNL     1      -1.298   3.080   0.032  0.00  0.00    -0.240 NA
ENDROOT
BRANCH   3  11
ATOM     11  C   UNL     1       2.486   1.106  -0.015  0.00  0.00    +0.245 C 
ATOM     12  O   UNL     1       3.509   1.754  -0.113  0.00  0.00    -0.270 OA
ATOM     13  N   UNL     1       2.545  -0.237   0.079  0.00  0.00    -0.308 N 
ATOM     14  H   UNL     1       1.619  -0.824   0.168  0.00  0.00    +0.149 HD
BRANCH  13  15
ATOM     15  C   UNL     1       3.843  -0.916   0.063  0.00  0.00    +0.073 C 
ATOM     16  C   UNL     1       3.971  -2.177  -0.794  0.00  0.00    +0.024 C 
ATOM     17  C   UNL     1       3.930  -2.289   0.733  0.00  0.00    +0.024 C 
ENDBRANCH  13  15
ENDBRANCH   3  11
BRANCH   1  18
ATOM     18  S   UNL     1      -2.733   0.843  -0.013  0.00  0.00    -0.093 S 
BRANCH  18  20
ATOM     19  C   UNL     1      -3.818   3.002  -1.286  0.00  0.00    +0.029 C 
ATOM     20  C   UNL     1      -3.936   2.195   0.008  0.00  0.00    +0.138 C 
BRANCH  20  21
ATOM     21  C   UNL     1      -5.328   1.628   0.121  0.00  0.00    +0.240 A 
ATOM     22  N   UNL     1      -6.283   2.054   0.912  0.00  0.00    -0.195 NA
ATOM     23  C   UNL     1      -7.336   1.253   0.672  0.00  0.00    +0.177 A 
ATOM     24  N   UNL     1      -6.974   0.396  -0.235  0.00  0.00    -0.061 NA
ATOM     25  O   UNL     1      -5.826   0.598  -0.569  0.00  0.00    -0.337 OA
BRANCH  23  26
ATOM     26  C   UNL     1      -8.688   1.334   1.334  0.00  0.00    +0.025 C 
ATOM     27  C   UNL     1      -9.310   2.704   1.056  0.00  0.00    +0.019 C 
ATOM     28  C   UNL     1      -9.597   0.238   0.774  0.00  0.00    +0.019 C 
ATOM     29  C   UNL     1      -8.528   1.143   2.844  0.00  0.00    +0.019 C 
ENDBRANCH  23  26
ENDBRANCH  20  21
ENDBRANCH  18  20
ENDBRANCH   1  18
TORSDOF 6
