REMARK  Name = ZINC18199504
REMARK  5 active torsions:
REMARK  status: ('A' for Active; 'I' for Inactive)
REMARK    1  A    between atoms: C_1  and  C_2
REMARK    2  A    between atoms: C_5  and  C_9
REMARK    3  A    between atoms: C_7  and  C_8
REMARK    4  A    between atoms: C_23  and  N_27
REMARK    5  A    between atoms: C_24  and  C_25
REMARK                            x       y       z     vdW  Elec       q    Type
REMARK                         _______ _______ _______ _____ _____    ______ ____
ROOT
ATOM      1  C   UNL     1       1.218   3.632   0.013  0.00  0.00    +0.105 C 
ATOM      2  C   UNL     1       1.175   2.128   0.002  0.00  0.00    +0.092 A 
ATOM      3  C   UNL     1      -0.018   1.467   0.010  0.00  0.00    +0.152 A 
ATOM      4  C   UNL     1       0.002  -0.004   0.002  0.00  0.00    +0.060 A 
ATOM      5  C   UNL     1      -1.184  -0.741   0.011  0.00  0.00    +0.015 A 
ATOM      6  C   UNL     1      -1.129  -2.118   0.004  0.00  0.00    +0.001 A 
ATOM      7  C   UNL     1       0.095  -2.770  -0.013  0.00  0.00    +0.004 A 
ATOM      8  C   UNL     1       1.273  -2.054  -0.022  0.00  0.00    +0.047 A 
ATOM      9  C   UNL     1       1.241  -0.665  -0.015  0.00  0.00    +0.143 A 
ATOM     10  O   UNL     1       2.384   0.053  -0.023  0.00  0.00    -0.422 OA
ATOM     11  C   UNL     1       2.374   1.395  -0.015  0.00  0.00    +0.345 A 
ATOM     12  O   UNL     1       3.435   1.995  -0.024  0.00  0.00    -0.245 OA
ATOM     13  O   UNL     1      -1.190   2.129   0.019  0.00  0.00    -0.440 OA
ATOM     14  C   UNL     1      -1.237   3.422  -0.344  0.00  0.00    +0.199 C 
ATOM     15  C   UNL     1      -0.123   4.192  -0.371  0.00  0.00    +0.098 C 
ENDROOT
BRANCH   1  20
ATOM     16  C   UNL     1       2.598   5.468   5.316  0.00  0.00    +0.044 C 
ATOM     17  C   UNL     1       2.238   4.989   3.933  0.00  0.00    -0.048 A 
ATOM     18  C   UNL     1       1.099   4.229   3.739  0.00  0.00    +0.004 A 
ATOM     19  C   UNL     1       0.769   3.790   2.471  0.00  0.00    +0.005 A 
ATOM     20  C   UNL     1       1.577   4.111   1.396  0.00  0.00    -0.034 A 
ATOM     21  C   UNL     1       2.718   4.867   1.591  0.00  0.00    +0.008 A 
ATOM     22  C   UNL     1       3.046   5.310   2.858  0.00  0.00    -0.047 A 
ATOM     23  C   UNL     1       4.287   6.138   3.070  0.00  0.00    +0.044 C 
ENDBRANCH   1  20
BRANCH  14  24
ATOM     24  N   UNL     1      -2.442   3.973  -0.702  0.00  0.00    -0.328 N 
ATOM     25  H   UNL     1      -2.489   4.904  -0.970  0.00  0.00    +0.145 HD
ATOM     26  H   UNL     1      -3.247   3.432  -0.687  0.00  0.00    +0.145 HD
ENDBRANCH  14  24
BRANCH  15  27
ATOM     27  C   UNL     1      -0.225   5.563  -0.773  0.00  0.00    +0.101 C 
ATOM     28  N   UNL     1      -0.306   6.651  -1.091  0.00  0.00    -0.191 NA
ENDBRANCH  15  27
TORSDOF 3
