REMARK  Name = ZINC07986825
REMARK  7 active torsions:
REMARK  status: ('A' for Active; 'I' for Inactive)
REMARK    1  A    between atoms: C_1  and  N_2
REMARK    2  A    between atoms: C_6  and  C_8
REMARK    3  A    between atoms: C_8  and  C_10
REMARK    4  A    between atoms: C_8  and  N_57
REMARK    5  A    between atoms: C_16  and  C_17
REMARK    6  A    between atoms: C_16  and  N_57
REMARK    7  A    between atoms: C_17  and  C_18
REMARK                            x       y       z     vdW  Elec       q    Type
REMARK                         _______ _______ _______ _____ _____    ______ ____
ROOT
ATOM      1  C   UNL     1      -1.330   1.944   0.019  0.00  0.00    +0.047 C 
ENDROOT
BRANCH   1   7
ATOM      2  C   UNL     1       4.756   1.214  -0.037  0.00  0.00    +0.129 C 
ATOM      3  N   UNL     1       3.478   1.930  -0.021  0.00  0.00    -0.302 N 
ATOM      4  C   UNL     1       2.320   1.240  -0.013  0.00  0.00    +0.306 C 
ATOM      5  O   UNL     1       2.336   0.025  -0.020  0.00  0.00    -0.252 OA
ATOM      6  N   UNL     1       1.143   1.898   0.001  0.00  0.00    -0.241 N 
ATOM      7  C   UNL     1      -0.014   1.208   0.009  0.00  0.00    +0.211 C 
ATOM      8  O   UNL     1       0.002  -0.004   0.002  0.00  0.00    -0.277 OA
ATOM      9  H   UNL     1       3.465   2.900  -0.015  0.00  0.00    +0.150 HD
ATOM     10  H   UNL     1       1.130   2.868   0.007  0.00  0.00    +0.159 HD
ENDBRANCH   1   7
BRANCH   1  11
ATOM     11  C   UNL     1      -1.427   2.816  -1.206  0.00  0.00    -0.053 A 
ATOM     12  C   UNL     1      -1.780   2.262  -2.423  0.00  0.00    +0.002 A 
ATOM     13  C   UNL     1      -1.873   3.062  -3.546  0.00  0.00    +0.000 A 
ATOM     14  C   UNL     1      -1.605   4.415  -3.454  0.00  0.00    +0.000 A 
ATOM     15  C   UNL     1      -1.248   4.968  -2.239  0.00  0.00    +0.000 A 
ATOM     16  C   UNL     1      -1.158   4.169  -1.115  0.00  0.00    +0.002 A 
ENDBRANCH   1  11
BRANCH   1  17
ATOM     17  N   UNL     1      -2.432   0.964   0.015  0.00  0.00    +0.389 N 
ATOM     18  H   UNL     1      -2.156   0.141   0.563  0.00  0.00    -0.084 HD
ATOM     19  H   UNL     1      -2.631   0.681  -0.952  0.00  0.00    -0.084 HD
BRANCH  17  20
ATOM     20  C   UNL     1      -3.646   1.557   0.607  0.00  0.00    -0.081 C 
BRANCH  20  21
ATOM     21  C   UNL     1      -4.771   0.520   0.590  0.00  0.00    -0.012 C 
BRANCH  21  22
ATOM     22  C   UNL     1      -6.034   1.127   1.203  0.00  0.00    -0.030 C 
ATOM     23  C   UNL     1      -5.750   1.547   2.646  0.00  0.00    +0.010 C 
ATOM     24  C   UNL     1      -7.013   2.154   3.259  0.00  0.00    -0.010 C 
ATOM     25  C   UNL     1      -8.138   1.117   3.242  0.00  0.00    +0.007 C 
ATOM     26  C   UNL     1      -8.422   0.697   1.798  0.00  0.00    -0.010 C 
ATOM     27  C   UNL     1      -7.159   0.090   1.185  0.00  0.00    +0.010 C 
ATOM     28  C   UNL     1      -8.846   1.922   0.985  0.00  0.00    +0.007 C 
ATOM     29  C   UNL     1      -7.721   2.959   1.003  0.00  0.00    -0.010 C 
ATOM     30  C   UNL     1      -7.437   3.379   2.446  0.00  0.00    +0.007 C 
ATOM     31  C   UNL     1      -6.458   2.352   0.390  0.00  0.00    +0.010 C 
ENDBRANCH  21  22
ENDBRANCH  20  21
ENDBRANCH  17  20
ENDBRANCH   1  17
TORSDOF 6
