REMARK  Name = ZINC09410267
REMARK  12 active torsions:
REMARK  status: ('A' for Active; 'I' for Inactive)
REMARK    1  A    between atoms: C_1  and  C_2
REMARK    2  A    between atoms: C_2  and  O_3
REMARK    3  A    between atoms: O_3  and  C_4
REMARK    4  A    between atoms: N_9  and  C_12
REMARK    5  A    between atoms: C_14  and  N_29
REMARK    6  A    between atoms: C_17  and  N_18
REMARK    7  A    between atoms: N_29  and  C_30
REMARK    8  A    between atoms: C_30  and  C_31
REMARK    9  A    between atoms: C_31  and  C_32
REMARK   10  A    between atoms: C_32  and  N_33
REMARK   11  A    between atoms: N_33  and  C_34
REMARK   12  A    between atoms: N_33  and  C_35
REMARK                            x       y       z     vdW  Elec       q    Type
REMARK                         _______ _______ _______ _____ _____    ______ ____
ROOT
ATOM      1  C   UNL     1       2.281  -3.652   6.097  0.00  0.00    +0.053 A 
ATOM      2  C   UNL     1       1.571  -3.939   7.247  0.00  0.00    +0.048 A 
ATOM      3  C   UNL     1       2.177  -4.624   8.299  0.00  0.00    +0.041 A 
ATOM      4  C   UNL     1       3.516  -5.027   8.194  0.00  0.00    +0.056 A 
ATOM      5  C   UNL     1       4.246  -4.735   7.019  0.00  0.00    +0.057 A 
ATOM      6  C   UNL     1       3.625  -4.053   5.972  0.00  0.00    +0.058 A 
ATOM      7  C   UNL     1       5.651  -5.154   6.902  0.00  0.00    +0.196 C 
ATOM      8  O   UNL     1       6.279  -4.903   5.891  0.00  0.00    -0.287 OA
ATOM      9  C   UNL     1       6.297  -5.880   8.015  0.00  0.00    +0.033 A 
ATOM     10  C   UNL     1       7.628  -6.280   7.914  0.00  0.00    +0.012 A 
ATOM     11  C   UNL     1       8.224  -6.958   8.961  0.00  0.00    +0.001 A 
ATOM     12  C   UNL     1       7.508  -7.243  10.110  0.00  0.00    +0.001 A 
ATOM     13  C   UNL     1       6.186  -6.854  10.227  0.00  0.00    +0.012 A 
ATOM     14  C   UNL     1       5.570  -6.169   9.182  0.00  0.00    +0.033 A 
ATOM     15  C   UNL     1       4.158  -5.747   9.299  0.00  0.00    +0.196 C 
ATOM     16  O   UNL     1       3.529  -5.998  10.310  0.00  0.00    -0.287 OA
ENDROOT
BRANCH   1  22
ATOM     17  C   UNL     1       0.983  -1.151   1.571  0.00  0.00    +0.403 C 
ATOM     18  O   UNL     1       0.397  -1.766   0.702  0.00  0.00    -0.226 OA
ATOM     19  N   UNL     1       1.581  -1.814   2.580  0.00  0.00    -0.264 N 
ATOM     20  C   UNL     1       2.288  -1.082   3.640  0.00  0.00    +0.130 C 
ATOM     21  C   UNL     1       1.706  -1.500   4.996  0.00  0.00    +0.124 C 
ATOM     22  N   UNL     1       1.663  -2.968   5.056  0.00  0.00    -0.325 N 
ATOM     23  C   UNL     1       0.956  -3.700   3.996  0.00  0.00    +0.124 C 
ATOM     24  C   UNL     1       1.534  -3.281   2.643  0.00  0.00    +0.130 C 
BRANCH  17  25
ATOM     25  O   UNL     1       1.034   0.194   1.525  0.00  0.00    -0.451 OA
BRANCH  25  27
ATOM     26  C   UNL     1       0.542   2.348   0.545  0.00  0.00    +0.048 C 
ATOM     27  C   UNL     1       0.378   0.831   0.427  0.00  0.00    +0.230 C 
ENDBRANCH  25  27
ENDBRANCH  17  25
ENDBRANCH   1  22
BRANCH   6  28
ATOM     28  N   UNL     1       4.331  -3.767   4.814  0.00  0.00    -0.356 N 
ATOM     29  H   UNL     1       4.072  -3.012   4.262  0.00  0.00    +0.142 HD
ATOM     30  H   UNL     1       5.084  -4.321   4.555  0.00  0.00    +0.142 HD
ENDBRANCH   6  28
BRANCH   3  31
ATOM     31  N   UNL     1       1.456  -4.907   9.448  0.00  0.00    -0.343 N 
ATOM     32  H   UNL     1       1.846  -5.462  10.142  0.00  0.00    +0.146 HD
BRANCH  31  33
ATOM     33  C   UNL     1       0.104  -4.368   9.617  0.00  0.00    +0.100 C 
BRANCH  33  34
ATOM     34  C   UNL     1      -0.464  -4.827  10.961  0.00  0.00    -0.000 C 
BRANCH  34  35
ATOM     35  C   UNL     1      -1.876  -4.264  11.136  0.00  0.00    -0.078 C 
BRANCH  35  36
ATOM     36  N   UNL     1      -2.422  -4.704  12.427  0.00  0.00    +0.376 N 
ATOM     37  C   UNL     1      -1.632  -4.119  13.518  0.00  0.00    -0.097 C 
ATOM     38  C   UNL     1      -3.819  -4.264  12.544  0.00  0.00    -0.097 C 
ATOM     39  H   UNL     1      -2.381  -5.711  12.484  0.00  0.00    -0.083 HD
ENDBRANCH  35  36
ENDBRANCH  34  35
ENDBRANCH  33  34
ENDBRANCH  31  33
ENDBRANCH   3  31
TORSDOF 9
