REMARK  Name = ZINC32537564
REMARK  13 active torsions:
REMARK  status: ('A' for Active; 'I' for Inactive)
REMARK    1  A    between atoms: C_1  and  C_2
REMARK    2  A    between atoms: C_2  and  O_3
REMARK    3  A    between atoms: O_3  and  C_4
REMARK    4  A    between atoms: C_7  and  N_26
REMARK    5  A    between atoms: C_9  and  S_10
REMARK    6  A    between atoms: S_10  and  N_13
REMARK    7  A    between atoms: N_13  and  C_14
REMARK    8  A    between atoms: C_14  and  C_15
REMARK    9  A    between atoms: C_15  and  C_16
REMARK   10  A    between atoms: C_19  and  O_24
REMARK   11  A    between atoms: C_20  and  O_22
REMARK   12  A    between atoms: O_22  and  C_23
REMARK   13  A    between atoms: O_24  and  C_25
REMARK                            x       y       z     vdW  Elec       q    Type
REMARK                         _______ _______ _______ _____ _____    ______ ____
ROOT
ATOM      1  C   UNL     1       1.155   3.170   0.007  0.00  0.00    +0.147 A 
ATOM      2  C   UNL     1      -0.055   3.848   0.021  0.00  0.00    +0.049 A 
ATOM      3  C   UNL     1      -1.242   3.143   0.029  0.00  0.00    +0.028 A 
ATOM      4  C   UNL     1      -1.224   1.754   0.017  0.00  0.00    +0.053 A 
ATOM      5  C   UNL     1      -0.013   1.076   0.008  0.00  0.00    +0.057 A 
ATOM      6  C   UNL     1       1.174   1.783   0.000  0.00  0.00    +0.148 A 
ENDROOT
BRANCH   4   7
ATOM      7  N   UNL     1      -2.427   1.038   0.019  0.00  0.00    -0.207 N 
ATOM      8  C   UNL     1      -3.660   1.629   0.561  0.00  0.00    +0.131 C 
ATOM      9  C   UNL     1      -4.742   1.626  -0.517  0.00  0.00    +0.022 C 
ATOM     10  C   UNL     1      -5.120   0.196  -0.899  0.00  0.00    +0.026 C 
ATOM     11  C   UNL     1      -3.969  -0.454  -1.675  0.00  0.00    +0.189 C 
ATOM     12  S   UNL     1      -2.508  -0.505  -0.598  0.00  0.00    +0.045 S 
ATOM     13  O   UNL     1      -1.327  -0.655  -1.374  0.00  0.00    -0.155 OA
ATOM     14  O   UNL     1      -2.754  -1.340   0.526  0.00  0.00    -0.155 OA
ENDBRANCH   4   7
BRANCH   6  15
ATOM     15  S   UNL     1       2.712   0.923  -0.018  0.00  0.00    +0.062 S 
ATOM     16  O   UNL     1       3.513   1.501   1.003  0.00  0.00    -0.153 OA
ATOM     17  O   UNL     1       2.401  -0.464  -0.049  0.00  0.00    -0.153 OA
BRANCH  15  18
ATOM     18  N   UNL     1       3.452   1.274  -1.457  0.00  0.00    -0.190 NA
ATOM     19  H   UNL     1       3.472   0.513  -2.251  0.00  0.00    +0.148 HD
BRANCH  18  20
ATOM     20  C   UNL     1       3.877   2.646  -1.746  0.00  0.00    +0.110 C 
BRANCH  20  21
ATOM     21  C   UNL     1       4.844   2.642  -2.932  0.00  0.00    +0.052 C 
BRANCH  21  22
ATOM     22  C   UNL     1       5.281   4.053  -3.230  0.00  0.00    -0.042 A 
ATOM     23  C   UNL     1       4.561   4.824  -4.123  0.00  0.00    +0.007 A 
ATOM     24  C   UNL     1       4.955   6.121  -4.395  0.00  0.00    +0.049 A 
ATOM     25  C   UNL     1       6.080   6.647  -3.780  0.00  0.00    +0.161 A 
ATOM     26  C   UNL     1       6.808   5.868  -2.885  0.00  0.00    +0.162 A 
ATOM     27  C   UNL     1       6.404   4.571  -2.613  0.00  0.00    +0.053 A 
BRANCH  26  28
ATOM     28  O   UNL     1       7.912   6.380  -2.279  0.00  0.00    -0.491 OA
ATOM     29  C   UNL     1       8.610   5.524  -1.372  0.00  0.00    +0.277 C 
ENDBRANCH  26  28
BRANCH  25  30
ATOM     30  O   UNL     1       6.471   7.921  -4.050  0.00  0.00    -0.491 OA
ATOM     31  C   UNL     1       5.676   8.661  -4.979  0.00  0.00    +0.277 C 
ENDBRANCH  25  30
ENDBRANCH  21  22
ENDBRANCH  20  21
ENDBRANCH  18  20
ENDBRANCH  15  18
ENDBRANCH   6  15
BRANCH   1  32
ATOM     32  O   UNL     1       2.324   3.865  -0.001  0.00  0.00    -0.490 OA
BRANCH  32  34
ATOM     33  C   UNL     1       3.637   5.894  -0.004  0.00  0.00    +0.048 C 
ATOM     34  C   UNL     1       2.231   5.291   0.007  0.00  0.00    +0.226 C 
ENDBRANCH  32  34
ENDBRANCH   1  32
TORSDOF 10
