REMARK  Name = ZINC11304505
REMARK  9 active torsions:
REMARK  status: ('A' for Active; 'I' for Inactive)
REMARK    1  A    between atoms: C_1  and  C_2
REMARK    2  A    between atoms: C_2  and  O_3
REMARK    3  A    between atoms: O_3  and  C_4
REMARK    4  A    between atoms: C_4  and  C_6
REMARK    5  A    between atoms: C_7  and  C_21
REMARK    6  A    between atoms: C_12  and  C_14
REMARK    7  A    between atoms: C_21  and  S_22
REMARK    8  A    between atoms: S_22  and  C_23
REMARK    9  A    between atoms: C_26  and  C_28
REMARK                            x       y       z     vdW  Elec       q    Type
REMARK                         _______ _______ _______ _____ _____    ______ ____
ROOT
ATOM      1  C   UNL     1       7.775   8.321   1.137  0.00  0.00    +0.079 C 
ATOM      2  C   UNL     1       7.181   7.925  -0.010  0.00  0.00    +0.034 C 
ATOM      3  N   UNL     1       7.384   8.602  -1.178  0.00  0.00    -0.272 N 
ATOM      4  C   UNL     1       8.170   9.681  -1.285  0.00  0.00    +0.304 C 
ATOM      5  O   UNL     1       8.289  10.217  -2.369  0.00  0.00    -0.252 OA
ATOM      6  N   UNL     1       8.833  10.192  -0.229  0.00  0.00    -0.288 N 
ATOM      7  C   UNL     1       8.681   9.534   1.080  0.00  0.00    +0.144 C 
ATOM      8  H   UNL     1       6.933   8.284  -1.976  0.00  0.00    +0.156 HD
ATOM      9  H   UNL     1       9.398  10.975  -0.329  0.00  0.00    +0.151 HD
ENDROOT
BRANCH   7  10
ATOM     10  C   UNL     1       8.148  10.553   2.053  0.00  0.00    -0.022 A 
ATOM     11  C   UNL     1       7.181  11.455   1.648  0.00  0.00    +0.007 A 
ATOM     12  C   UNL     1       6.688  12.387   2.542  0.00  0.00    +0.020 A 
ATOM     13  C   UNL     1       7.168  12.423   3.839  0.00  0.00    +0.041 A 
ATOM     14  C   UNL     1       8.139  11.524   4.242  0.00  0.00    +0.020 A 
ATOM     15  C   UNL     1       8.629  10.589   3.349  0.00  0.00    +0.007 A 
ATOM     16 CL   UNL     1       6.554  13.598   4.960  0.00  0.00    -0.084 Cl
ENDBRANCH   7  10
BRANCH   1  17
ATOM     17  C   UNL     1       7.561   7.625   2.350  0.00  0.00    +0.339 C 
ATOM     18  O   UNL     1       6.946   6.575   2.348  0.00  0.00    -0.245 OA
BRANCH  17  19
ATOM     19  O   UNL     1       8.039   8.124   3.508  0.00  0.00    -0.462 OA
BRANCH  19  21
ATOM     20  C   UNL     1       8.399   8.087   5.898  0.00  0.00    +0.048 C 
ATOM     21  C   UNL     1       7.786   7.368   4.694  0.00  0.00    +0.229 C 
ENDBRANCH  19  21
ENDBRANCH  17  19
ENDBRANCH   1  17
BRANCH   2  22
ATOM     22  C   UNL     1       6.276   6.721   0.002  0.00  0.00    +0.130 C 
BRANCH  22  23
ATOM     23  S   UNL     1       7.184   5.277  -0.602  0.00  0.00    -0.060 S 
BRANCH  23  24
ATOM     24  C   UNL     1       5.924   4.051  -0.486  0.00  0.00    +0.278 A 
ATOM     25  N   UNL     1       4.695   4.238  -0.064  0.00  0.00    -0.101 NA
ATOM     26  N   UNL     1       4.049   3.127  -0.118  0.00  0.00    -0.106 NA
ATOM     27  C   UNL     1       4.842   2.185  -0.568  0.00  0.00    +0.249 A 
ATOM     28  O   UNL     1       6.044   2.751  -0.814  0.00  0.00    -0.411 OA
BRANCH  27  29
ATOM     29  C   UNL     1       4.484   0.766  -0.775  0.00  0.00    +0.039 A 
ATOM     30  C   UNL     1       3.196   0.317  -0.477  0.00  0.00    +0.013 A 
ATOM     31  C   UNL     1       2.869  -1.009  -0.673  0.00  0.00    +0.001 A 
ATOM     32  C   UNL     1       3.816  -1.894  -1.159  0.00  0.00    +0.000 A 
ATOM     33  C   UNL     1       5.092  -1.454  -1.462  0.00  0.00    +0.001 A 
ATOM     34  C   UNL     1       5.433  -0.131  -1.270  0.00  0.00    +0.013 A 
ENDBRANCH  27  29
ENDBRANCH  23  24
ENDBRANCH  22  23
ENDBRANCH   2  22
TORSDOF 8
