REMARK  Name = ZINC13128955
REMARK  13 active torsions:
REMARK  status: ('A' for Active; 'I' for Inactive)
REMARK    1  A    between atoms: C_1  and  C_2
REMARK    2  A    between atoms: C_2  and  C_4
REMARK    3  A    between atoms: C_2  and  O_37
REMARK    4  A    between atoms: C_4  and  C_6
REMARK    5  A    between atoms: C_4  and  N_23
REMARK    6  A    between atoms: C_6  and  O_8
REMARK    7  A    between atoms: O_8  and  C_9
REMARK    8  A    between atoms: C_9  and  C_10
REMARK    9  A    between atoms: N_12  and  C_13
REMARK   10  A    between atoms: C_18  and  O_19
REMARK   11  A    between atoms: O_19  and  C_20
REMARK   12  A    between atoms: N_23  and  S_24
REMARK   13  A    between atoms: S_24  and  C_27
REMARK                            x       y       z     vdW  Elec       q    Type
REMARK                         _______ _______ _______ _____ _____    ______ ____
ROOT
ATOM      1  C   UNL     1       0.552  -0.595   0.934  0.00  0.00    +0.213 C 
ENDROOT
BRANCH   1   3
ATOM      2  C   UNL     1      -0.225   1.289  -0.511  0.00  0.00    +0.040 C 
ATOM      3  C   UNL     1      -0.363  -0.209  -0.229  0.00  0.00    +0.141 C 
BRANCH   3   4
ATOM      4  O   UNL     1       0.008  -0.949  -1.393  0.00  0.00    -0.390 OA
ATOM      5  H   UNL     1      -0.133  -1.903  -1.315  0.00  0.00    +0.210 HD
ENDBRANCH   3   4
ENDBRANCH   1   3
BRANCH   1   6
ATOM      6  C   UNL     1       0.062   0.060   2.200  0.00  0.00    +0.329 C 
ATOM      7  O   UNL     1      -0.264  -0.619   3.144  0.00  0.00    -0.249 OA
BRANCH   6   8
ATOM      8  O   UNL     1      -0.014   1.398   2.277  0.00  0.00    -0.454 OA
BRANCH   8   9
ATOM      9  C   UNL     1      -0.495   1.960   3.526  0.00  0.00    +0.328 C 
BRANCH   9  10
ATOM     10  C   UNL     1      -0.511   3.464   3.427  0.00  0.00    +0.255 C 
ATOM     11  O   UNL     1      -0.152   4.008   2.404  0.00  0.00    -0.272 OA
ATOM     12  N   UNL     1      -0.925   4.204   4.474  0.00  0.00    -0.280 N 
ATOM     13  H   UNL     1      -1.149   3.773   5.314  0.00  0.00    +0.155 HD
BRANCH  12  14
ATOM     14  C   UNL     1      -1.030   5.596   4.351  0.00  0.00    +0.076 A 
ATOM     15  C   UNL     1      -0.228   6.277   3.448  0.00  0.00    +0.027 A 
ATOM     16  C   UNL     1      -0.337   7.649   3.324  0.00  0.00    +0.002 A 
ATOM     17  C   UNL     1      -1.239   8.347   4.106  0.00  0.00    +0.004 A 
ATOM     18  C   UNL     1      -2.039   7.676   5.012  0.00  0.00    +0.048 A 
ATOM     19  C   UNL     1      -1.938   6.300   5.139  0.00  0.00    +0.148 A 
BRANCH  19  20
ATOM     20  O   UNL     1      -2.724   5.638   6.030  0.00  0.00    -0.432 OA
BRANCH  20  21
ATOM     21  C   UNL     1      -3.631   6.425   6.804  0.00  0.00    +0.541 C 
ATOM     22  F   UNL     1      -2.913   7.360   7.557  0.00  0.00    -0.166 F 
ATOM     23  F   UNL     1      -4.514   7.094   5.950  0.00  0.00    -0.166 F 
ENDBRANCH  20  21
ENDBRANCH  19  20
ENDBRANCH  12  14
ENDBRANCH   9  10
ENDBRANCH   8   9
ENDBRANCH   6   8
ENDBRANCH   1   6
BRANCH   1  24
ATOM     24  N   UNL     1       0.541  -2.050   1.102  0.00  0.00    -0.174 NA
ATOM     25  H   UNL     1      -0.300  -2.518   1.223  0.00  0.00    +0.149 HD
BRANCH  24  26
ATOM     26  S   UNL     1       1.964  -2.897   1.087  0.00  0.00    +0.059 S 
ATOM     27  O   UNL     1       1.628  -4.261   1.301  0.00  0.00    -0.153 OA
ATOM     28  O   UNL     1       2.684  -2.461  -0.059  0.00  0.00    -0.153 OA
BRANCH  26  29
ATOM     29  C   UNL     1       2.893  -2.381   2.492  0.00  0.00    +0.106 A 
ATOM     30  C   UNL     1       3.774  -1.306   2.376  0.00  0.00    +0.029 A 
ATOM     31  C   UNL     1       4.502  -0.878   3.443  0.00  0.00    +0.010 A 
ATOM     32  C   UNL     1       4.375  -1.535   4.679  0.00  0.00    -0.018 A 
ATOM     33  C   UNL     1       5.116  -1.127   5.802  0.00  0.00    +0.008 A 
ATOM     34  C   UNL     1       4.967  -1.786   6.983  0.00  0.00    +0.001 A 
ATOM     35  C   UNL     1       4.091  -2.864   7.097  0.00  0.00    +0.001 A 
ATOM     36  C   UNL     1       3.358  -3.288   6.032  0.00  0.00    +0.008 A 
ATOM     37  C   UNL     1       3.484  -2.631   4.796  0.00  0.00    -0.016 A 
ATOM     38  C   UNL     1       2.745  -3.040   3.673  0.00  0.00    +0.037 A 
ENDBRANCH  26  29
ENDBRANCH  24  26
ENDBRANCH   1  24
TORSDOF 12
