REMARK  Name = ZINC13940564
REMARK  10 active torsions:
REMARK  status: ('A' for Active; 'I' for Inactive)
REMARK    1  A    between atoms: C_1  and  C_2
REMARK    2  A    between atoms: C_2  and  C_3
REMARK    3  A    between atoms: C_2  and  C_4
REMARK    4  A    between atoms: C_14  and  C_39
REMARK    5  A    between atoms: C_18  and  C_19
REMARK    6  A    between atoms: C_18  and  C_20
REMARK    7  A    between atoms: C_20  and  N_80
REMARK    8  A    between atoms: C_21  and  N_80
REMARK    9  A    between atoms: N_31  and  C_32
REMARK   10  A    between atoms: C_32  and  C_33
REMARK                            x       y       z     vdW  Elec       q    Type
REMARK                         _______ _______ _______ _____ _____    ______ ____
ROOT
ATOM      1  C   UNL     1       4.066   4.748   1.093  0.00  0.00    -0.073 C 
ENDROOT
BRANCH   1  15
ATOM      2  C   UNL     1      11.105   5.007   2.922  0.00  0.00    -0.045 A 
ATOM      3  C   UNL     1      10.426   5.857   3.775  0.00  0.00    +0.004 A 
ATOM      4  C   UNL     1       9.068   6.048   3.610  0.00  0.00    +0.005 A 
ATOM      5  C   UNL     1       8.387   5.394   2.596  0.00  0.00    -0.038 A 
ATOM      6  C   UNL     1       9.056   4.541   1.747  0.00  0.00    -0.043 A 
ATOM      7  C   UNL     1      10.425   4.354   1.917  0.00  0.00    +0.007 A 
ATOM      8  C   UNL     1       8.393   3.787   0.626  0.00  0.00    +0.036 C 
ATOM      9  C   UNL     1       6.869   3.914   0.661  0.00  0.00    +0.009 C 
ATOM     10  C   UNL     1       6.519   5.360   1.008  0.00  0.00    +0.004 C 
ATOM     11  C   UNL     1       6.899   5.636   2.450  0.00  0.00    -0.004 C 
ATOM     12  C   UNL     1       6.567   7.077   2.830  0.00  0.00    +0.011 C 
ATOM     13  C   UNL     1       5.082   7.343   2.579  0.00  0.00    +0.001 C 
ATOM     14  C   UNL     1       4.760   7.156   1.102  0.00  0.00    +0.005 C 
ATOM     15  C   UNL     1       5.114   5.751   0.611  0.00  0.00    -0.044 C 
ATOM     16  C   UNL     1       5.038   5.788  -0.935  0.00  0.00    +0.009 C 
ATOM     17  C   UNL     1       6.201   4.693   3.429  0.00  0.00    +0.016 C 
BRANCH   2  19
ATOM     18  C   UNL     1      13.316   6.130   2.939  0.00  0.00    +0.012 C 
ATOM     19  C   UNL     1      12.587   4.793   3.093  0.00  0.00    +0.013 C 
ATOM     20  C   UNL     1      12.863   4.219   4.484  0.00  0.00    +0.012 C 
ENDBRANCH   2  19
ENDBRANCH   1  15
BRANCH   1  21
ATOM     21  N   UNL     1       2.772   5.057   0.456  0.00  0.00    +0.394 N 
ATOM     22  H   UNL     1       2.873   4.993  -0.564  0.00  0.00    -0.083 HD
ATOM     23  H   UNL     1       2.487   6.009   0.713  0.00  0.00    -0.083 HD
BRANCH  21  24
ATOM     24  C   UNL     1       1.740   4.103   0.903  0.00  0.00    +0.051 C 
ATOM     25  C   UNL     1       0.448   4.833   1.172  0.00  0.00    -0.032 A 
ATOM     26  C   UNL     1       0.096   5.834   2.048  0.00  0.00    +0.004 A 
ATOM     27  C   UNL     1      -1.203   6.314   2.063  0.00  0.00    +0.000 A 
ATOM     28  C   UNL     1      -2.149   5.790   1.201  0.00  0.00    +0.001 A 
ATOM     29  C   UNL     1      -1.807   4.785   0.320  0.00  0.00    +0.013 A 
ATOM     30  C   UNL     1      -0.499   4.296   0.298  0.00  0.00    +0.040 A 
ATOM     31  C   UNL     1       0.159   3.256  -0.515  0.00  0.00    +0.246 C 
ATOM     32  O   UNL     1      -0.389   2.597  -1.378  0.00  0.00    -0.270 OA
ATOM     33  N   UNL     1       1.451   3.138  -0.164  0.00  0.00    -0.305 N 
BRANCH  33  34
ATOM     34  C   UNL     1       2.414   2.205  -0.754  0.00  0.00    +0.138 C 
BRANCH  34  35
ATOM     35  C   UNL     1       2.397   0.891   0.030  0.00  0.00    +0.136 C 
ATOM     36  C   UNL     1       3.418  -0.113  -0.565  0.00  0.00    +0.035 C 
ATOM     37  C   UNL     1       2.831  -1.474  -0.120  0.00  0.00    +0.031 C 
ATOM     38  C   UNL     1       1.349  -1.169   0.173  0.00  0.00    +0.160 C 
ATOM     39  O   UNL     1       1.130   0.219  -0.133  0.00  0.00    -0.375 OA
ENDBRANCH  34  35
ENDBRANCH  33  34
ENDBRANCH  21  24
ENDBRANCH   1  21
TORSDOF 6
