REMARK  Name = ZINC35349463
REMARK  5 active torsions:
REMARK  status: ('A' for Active; 'I' for Inactive)
REMARK    1  A    between atoms: C_4  and  N_7
REMARK    2  A    between atoms: N_9  and  C_25
REMARK    3  A    between atoms: C_18  and  C_20
REMARK    4  A    between atoms: C_25  and  C_26
REMARK    5  A    between atoms: N_28  and  C_29
REMARK                            x       y       z     vdW  Elec       q    Type
REMARK                         _______ _______ _______ _____ _____    ______ ____
ROOT
ATOM      1  N   UNL     1       3.619  -0.648  -0.036  0.00  0.00    -0.300 N 
ATOM      2  C   UNL     1       4.959  -0.058  -0.142  0.00  0.00    +0.217 C 
ATOM      3  N   UNL     1       5.936  -1.146  -0.119  0.00  0.00    -0.275 N 
ATOM      4  C   UNL     1       5.311  -2.331  -0.009  0.00  0.00    +0.241 C 
ATOM      5  O   UNL     1       5.858  -3.413   0.036  0.00  0.00    -0.273 OA
ATOM      6  C   UNL     1       3.825  -2.099   0.055  0.00  0.00    +0.115 C 
ATOM      7  C   UNL     1       3.136  -2.797  -1.118  0.00  0.00    +0.054 C 
ATOM      8  C   UNL     1       1.633  -2.506  -1.071  0.00  0.00    +0.111 C 
ATOM      9  N   UNL     1       1.119  -2.886   0.252  0.00  0.00    -0.295 N 
ATOM     10  C   UNL     1       1.764  -2.328   1.448  0.00  0.00    +0.111 C 
ATOM     11  C   UNL     1       3.267  -2.621   1.379  0.00  0.00    +0.054 C 
ATOM     12  C   UNL     1       0.074  -3.730   0.367  0.00  0.00    +0.282 C 
ATOM     13  O   UNL     1      -0.401  -3.966   1.462  0.00  0.00    -0.267 OA
ENDROOT
BRANCH   1  17
ATOM     14  C   UNL     1      -0.018   1.379   0.012  0.00  0.00    +0.000 A 
ATOM     15  C   UNL     1       1.168   2.090  -0.019  0.00  0.00    +0.002 A 
ATOM     16  C   UNL     1       2.376   1.421  -0.035  0.00  0.00    +0.023 A 
ATOM     17  C   UNL     1       2.399   0.032  -0.020  0.00  0.00    +0.032 A 
ATOM     18  C   UNL     1       1.206  -0.679   0.012  0.00  0.00    +0.023 A 
ATOM     19  C   UNL     1       0.001  -0.004   0.028  0.00  0.00    +0.002 A 
ENDBRANCH   1  17
BRANCH  12  20
ATOM     20  C   UNL     1      -0.490  -4.364  -0.829  0.00  0.00    +0.189 A 
ATOM     21  C   UNL     1      -1.604  -5.154  -0.869  0.00  0.00    +0.054 A 
ATOM     22  C   UNL     1      -1.776  -5.541  -2.207  0.00  0.00    +0.042 A 
ATOM     23  C   UNL     1      -0.774  -4.977  -2.917  0.00  0.00    +0.196 A 
ATOM     24  O   UNL     1      -0.004  -4.265  -2.084  0.00  0.00    -0.458 OA
ENDBRANCH  12  20
BRANCH   3  25
ATOM     25  C   UNL     1       7.388  -0.970  -0.204  0.00  0.00    +0.205 C 
BRANCH  25  26
ATOM     26  C   UNL     1       7.957  -0.815   1.183  0.00  0.00    +0.231 C 
ATOM     27  O   UNL     1       7.223  -0.849   2.147  0.00  0.00    -0.274 OA
ATOM     28  N   UNL     1       9.283  -0.639   1.351  0.00  0.00    -0.311 N 
ATOM     29  H   UNL     1       9.870  -0.613   0.580  0.00  0.00    +0.149 HD
BRANCH  28  30
ATOM     30  C   UNL     1       9.836  -0.489   2.699  0.00  0.00    +0.073 C 
ATOM     31  C   UNL     1       9.736   0.976   3.131  0.00  0.00    +0.022 C 
ATOM     32  C   UNL     1      10.314   1.133   4.539  0.00  0.00    +0.002 C 
ATOM     33  C   UNL     1      11.781   0.701   4.539  0.00  0.00    +0.000 C 
ATOM     34  C   UNL     1      11.882  -0.764   4.107  0.00  0.00    +0.002 C 
ATOM     35  C   UNL     1      11.304  -0.921   2.699  0.00  0.00    +0.022 C 
ENDBRANCH  28  30
ENDBRANCH  25  26
ENDBRANCH   3  25
TORSDOF 5
