REMARK  Name = ZINC11635243
REMARK  7 active torsions:
REMARK  status: ('A' for Active; 'I' for Inactive)
REMARK    1  A    between atoms: C_1  and  C_2
REMARK    2  A    between atoms: C_7  and  S_8
REMARK    3  A    between atoms: S_8  and  N_11
REMARK    4  A    between atoms: N_11  and  C_12
REMARK    5  A    between atoms: C_14  and  C_20
REMARK    6  A    between atoms: C_17  and  O_18
REMARK    7  A    between atoms: O_18  and  C_19
REMARK                            x       y       z     vdW  Elec       q    Type
REMARK                         _______ _______ _______ _____ _____    ______ ____
ROOT
ATOM      1  S   UNL     1       3.764   2.060   0.699  0.00  0.00    +0.073 S 
ATOM      2  O   UNL     1       4.926   1.276   0.463  0.00  0.00    -0.150 OA
ATOM      3  O   UNL     1       3.665   3.417   0.291  0.00  0.00    -0.150 OA
ENDROOT
BRANCH   1  10
ATOM      4  C   UNL     1       3.717  -0.456   2.369  0.00  0.00    +0.046 C 
ATOM      5  C   UNL     1       3.482   0.830   3.119  0.00  0.00    -0.022 A 
ATOM      6  C   UNL     1       3.270   0.801   4.484  0.00  0.00    +0.033 A 
ATOM      7  C   UNL     1       3.049   1.983   5.173  0.00  0.00    +0.067 A 
ATOM      8  C   UNL     1       3.046   3.199   4.486  0.00  0.00    +0.069 A 
ATOM      9  C   UNL     1       3.265   3.219   3.117  0.00  0.00    +0.057 A 
ATOM     10  C   UNL     1       3.486   2.035   2.439  0.00  0.00    +0.113 A 
ATOM     11  N   UNL     1       2.801   4.194   5.429  0.00  0.00    -0.306 N 
ATOM     12  H   UNL     1       2.742   5.145   5.248  0.00  0.00    +0.170 HD
ATOM     13  C   UNL     1       2.661   3.611   6.634  0.00  0.00    +0.325 A 
ATOM     14  O   UNL     1       2.438   4.199   7.676  0.00  0.00    -0.247 OA
ATOM     15  N   UNL     1       2.805   2.278   6.513  0.00  0.00    -0.306 N 
ATOM     16  H   UNL     1       2.749   1.633   7.234  0.00  0.00    +0.170 HD
ENDBRANCH   1  10
BRANCH   1  17
ATOM     17  N   UNL     1       2.501   1.259  -0.011  0.00  0.00    -0.213 N 
ATOM     18  H   UNL     1       2.668   0.466  -0.545  0.00  0.00    +0.174 HD
BRANCH  17  19
ATOM     19  C   UNL     1       1.192   1.725   0.161  0.00  0.00    +0.090 A 
ATOM     20  C   UNL     1       0.945   3.084   0.229  0.00  0.00    +0.041 A 
ATOM     21  C   UNL     1      -0.363   3.544   0.400  0.00  0.00    +0.039 A 
ATOM     22  C   UNL     1      -1.415   2.631   0.502  0.00  0.00    +0.017 A 
ATOM     23  C   UNL     1      -1.163   1.278   0.428  0.00  0.00    +0.048 A 
ATOM     24  C   UNL     1       0.136   0.818   0.263  0.00  0.00    +0.142 A 
BRANCH  21  25
ATOM     25  C   UNL     1      -0.633   4.994   0.473  0.00  0.00    +0.242 C 
ATOM     26  O   UNL     1       0.283   5.788   0.384  0.00  0.00    -0.270 OA
ATOM     27  N   UNL     1      -1.895   5.437   0.638  0.00  0.00    -0.325 N 
ATOM     28  H   UNL     1      -2.626   4.803   0.709  0.00  0.00    +0.145 HD
ATOM     29  H   UNL     1      -2.073   6.389   0.686  0.00  0.00    +0.145 HD
ENDBRANCH  21  25
BRANCH  24  30
ATOM     30  O   UNL     1       0.379  -0.516   0.195  0.00  0.00    -0.493 OA
ATOM     31  C   UNL     1      -0.748  -1.388   0.307  0.00  0.00    +0.277 C 
ENDBRANCH  24  30
ENDBRANCH  17  19
ENDBRANCH   1  17
TORSDOF 5
