REMARK  Name = ZINC02631222
REMARK  6 active torsions:
REMARK  status: ('A' for Active; 'I' for Inactive)
REMARK    1  A    between atoms: C_1  and  C_2
REMARK    2  A    between atoms: C_2  and  O_3
REMARK    3  A    between atoms: O_3  and  C_4
REMARK    4  A    between atoms: C_7  and  C_10
REMARK    5  A    between atoms: N_15  and  S_16
REMARK    6  A    between atoms: S_16  and  C_19
REMARK                            x       y       z     vdW  Elec       q    Type
REMARK                         _______ _______ _______ _____ _____    ______ ____
ROOT
ATOM      1  C   UNL     1      -0.422   4.370   4.107  0.00  0.00    +0.250 A 
ATOM      2  N   UNL     1       0.353   4.567   3.069  0.00  0.00    -0.106 NA
ATOM      3  N   UNL     1      -0.110   3.914   2.061  0.00  0.00    -0.091 NA
ATOM      4  C   UNL     1      -1.198   3.274   2.417  0.00  0.00    +0.328 A 
ATOM      5  O   UNL     1      -1.423   3.552   3.715  0.00  0.00    -0.404 OA
ATOM      6  N   UNL     1      -1.974   2.468   1.607  0.00  0.00    -0.167 N 
ATOM      7  H   UNL     1      -2.765   2.037   1.967  0.00  0.00    +0.178 HD
ENDROOT
BRANCH   1  11
ATOM      8  C   UNL     1       0.110   6.013   7.989  0.00  0.00    +0.121 A 
ATOM      9  C   UNL     1       1.016   6.312   6.980  0.00  0.00    +0.046 A 
ATOM     10  C   UNL     1       0.847   5.781   5.720  0.00  0.00    +0.017 A 
ATOM     11  C   UNL     1      -0.237   4.941   5.457  0.00  0.00    +0.039 A 
ATOM     12  C   UNL     1      -1.149   4.648   6.473  0.00  0.00    +0.017 A 
ATOM     13  C   UNL     1      -0.970   5.178   7.732  0.00  0.00    +0.046 A 
BRANCH   8  14
ATOM     14  O   UNL     1       0.279   6.539   9.230  0.00  0.00    -0.492 OA
BRANCH  14  16
ATOM     15  C   UNL     1      -0.335   6.872  11.543  0.00  0.00    +0.048 C 
ATOM     16  C   UNL     1      -0.690   6.190  10.220  0.00  0.00    +0.225 C 
ENDBRANCH  14  16
ENDBRANCH   8  14
ENDBRANCH   1  11
BRANCH   6  17
ATOM     17  S   UNL     1      -1.555   2.238   0.022  0.00  0.00    +0.076 S 
ATOM     18  O   UNL     1      -1.304   3.526  -0.523  0.00  0.00    -0.150 OA
ATOM     19  O   UNL     1      -2.519   1.352  -0.529  0.00  0.00    -0.150 OA
BRANCH  17  20
ATOM     20  C   UNL     1      -0.017   1.378   0.010  0.00  0.00    +0.109 A 
ATOM     21  C   UNL     1       1.171   2.086   0.002  0.00  0.00    +0.030 A 
ATOM     22  C   UNL     1       2.377   1.412  -0.013  0.00  0.00    +0.022 A 
ATOM     23  C   UNL     1       2.397   0.029  -0.021  0.00  0.00    +0.041 A 
ATOM     24  C   UNL     1       1.208  -0.679  -0.013  0.00  0.00    +0.022 A 
ATOM     25  C   UNL     1       0.002  -0.004   0.002  0.00  0.00    +0.030 A 
ATOM     26 CL   UNL     1       3.912  -0.818  -0.039  0.00  0.00    -0.084 Cl
ENDBRANCH  17  20
ENDBRANCH   6  17
TORSDOF 5
