REMARK  Name = ZINC54641221
REMARK  6 active torsions:
REMARK  status: ('A' for Active; 'I' for Inactive)
REMARK    1  A    between atoms: C_1  and  C_2
REMARK    2  A    between atoms: C_3  and  C_21
REMARK    3  A    between atoms: C_4  and  C_12
REMARK    4  A    between atoms: C_17  and  C_18
REMARK    5  A    between atoms: C_21  and  O_23
REMARK    6  A    between atoms: O_23  and  C_24
REMARK                            x       y       z     vdW  Elec       q    Type
REMARK                         _______ _______ _______ _____ _____    ______ ____
ROOT
ATOM      1  C   UNL     1       0.060   1.723  -0.493  0.00  0.00    +0.061 C 
ATOM      2  C   UNL     1      -0.123   0.253  -0.217  0.00  0.00    +0.020 C 
ATOM      3  C   UNL     1      -1.349  -0.281  -0.333  0.00  0.00    +0.082 C 
ATOM      4  C   UNL     1      -1.637  -1.739  -0.092  0.00  0.00    +0.180 C 
ATOM      5  N   UNL     1      -0.481  -2.363   0.546  0.00  0.00    -0.221 N 
ATOM      6  C   UNL     1       0.734  -1.770   0.643  0.00  0.00    +0.218 A 
ATOM      7  N   UNL     1       1.537  -2.594   1.258  0.00  0.00    -0.201 NA
ATOM      8  C   UNL     1       0.876  -3.714   1.569  0.00  0.00    +0.247 A 
ATOM      9  N   UNL     1      -0.362  -3.613   1.153  0.00  0.00    -0.156 NA
ATOM     10  N   UNL     1       0.970  -0.497   0.139  0.00  0.00    -0.287 N 
ATOM     11  H   UNL     1       1.871  -0.150   0.045  0.00  0.00    +0.155 HD
ENDROOT
BRANCH   4  12
ATOM     12  C   UNL     1      -1.913  -2.421  -1.408  0.00  0.00    -0.004 A 
ATOM     13  C   UNL     1      -1.237  -2.030  -2.544  0.00  0.00    +0.007 A 
ATOM     14  C   UNL     1      -1.490  -2.655  -3.753  0.00  0.00    +0.000 A 
ATOM     15  C   UNL     1      -2.422  -3.675  -3.831  0.00  0.00    +0.001 A 
ATOM     16  C   UNL     1      -3.107  -4.075  -2.703  0.00  0.00    +0.015 A 
ATOM     17  C   UNL     1      -2.852  -3.453  -1.477  0.00  0.00    +0.069 A 
BRANCH  17  18
ATOM     18  C   UNL     1      -3.575  -3.881  -0.265  0.00  0.00    +0.387 C 
ATOM     19  O   UNL     1      -4.501  -4.675  -0.353  0.00  0.00    -0.241 OA
ATOM     20  O   UNL     1      -3.249  -3.440   0.829  0.00  0.00    -0.241 OA
ENDBRANCH  17  18
ENDBRANCH   4  12
BRANCH   3  21
ATOM     21  C   UNL     1      -2.420   0.565  -0.698  0.00  0.00    +0.339 C 
ATOM     22  O   UNL     1      -2.219   1.748  -0.899  0.00  0.00    -0.245 OA
BRANCH  21  23
ATOM     23  O   UNL     1      -3.666   0.061  -0.824  0.00  0.00    -0.458 OA
BRANCH  23  24
ATOM     24  C   UNL     1      -4.700   0.974  -1.195  0.00  0.00    +0.177 C 
ATOM     25  C   UNL     1      -5.323   1.579   0.064  0.00  0.00    +0.044 C 
ATOM     26  C   UNL     1      -6.431   2.556  -0.334  0.00  0.00    +0.004 C 
ATOM     27  C   UNL     1      -7.507   1.812  -1.127  0.00  0.00    +0.000 C 
ATOM     28  C   UNL     1      -6.884   1.207  -2.387  0.00  0.00    +0.004 C 
ATOM     29  C   UNL     1      -5.776   0.230  -1.989  0.00  0.00    +0.044 C 
ENDBRANCH  23  24
ENDBRANCH  21  23
ENDBRANCH   3  21
TORSDOF 5
