REMARK  Name = ZINC28629259
REMARK  2 active torsions:
REMARK  status: ('A' for Active; 'I' for Inactive)
REMARK    1  A    between atoms: C_4  and  C_7
REMARK    2  A    between atoms: C_23  and  C_25
REMARK                            x       y       z     vdW  Elec       q    Type
REMARK                         _______ _______ _______ _____ _____    ______ ____
ROOT
ATOM      1  C   UNL     1       4.220   1.790   2.353  0.00  0.00    +0.059 A 
ATOM      2  C   UNL     1       3.992   2.748   1.341  0.00  0.00    +0.041 A 
ATOM      3  C   UNL     1       3.923   4.066   1.707  0.00  0.00    +0.136 A 
ATOM      4  N   UNL     1       4.066   4.392   3.040  0.00  0.00    -0.178 NA
ATOM      5  H   UNL     1       4.530   1.395   4.388  0.00  0.00    +0.170 HD
ATOM      6  C   UNL     1       4.290   3.445   3.962  0.00  0.00    +0.348 A 
ATOM      7  O   UNL     1       4.417   3.762   5.133  0.00  0.00    -0.245 OA
ATOM      8  N   UNL     1       4.358   2.162   3.618  0.00  0.00    -0.305 N 
ATOM      9  N   UNL     1       3.720   5.110   0.854  0.00  0.00    -0.298 N 
ATOM     10  C   UNL     1       2.763   5.122  -0.153  0.00  0.00    +0.054 A 
ATOM     11  C   UNL     1       1.716   6.027  -0.151  0.00  0.00    +0.025 A 
ATOM     12  C   UNL     1       0.811   6.021  -1.198  0.00  0.00    +0.002 A 
ATOM     13  C   UNL     1       0.955   5.121  -2.238  0.00  0.00    +0.002 A 
ATOM     14  C   UNL     1       1.992   4.205  -2.233  0.00  0.00    +0.025 A 
ATOM     15  C   UNL     1       2.889   4.194  -1.175  0.00  0.00    +0.049 A 
ATOM     16  N   UNL     1       3.882   3.219  -1.087  0.00  0.00    -0.331 N 
ATOM     17  C   UNL     1       3.847   2.202  -0.054  0.00  0.00    +0.136 C 
ATOM     18  H   UNL     1       4.375   5.982   1.001  0.00  0.00    +0.154 HD
ATOM     19  H   UNL     1       4.702   3.230  -1.821  0.00  0.00    +0.147 HD
ENDROOT
BRANCH   1  23
ATOM     20  C   UNL     1       4.472  -2.329   1.335  0.00  0.00    +0.000 A 
ATOM     21  C   UNL     1       5.371  -1.429   0.792  0.00  0.00    +0.001 A 
ATOM     22  C   UNL     1       5.295  -0.090   1.119  0.00  0.00    +0.010 A 
ATOM     23  C   UNL     1       4.308   0.354   1.998  0.00  0.00    -0.001 A 
ATOM     24  C   UNL     1       3.406  -0.558   2.545  0.00  0.00    +0.010 A 
ATOM     25  C   UNL     1       3.490  -1.894   2.207  0.00  0.00    +0.001 A 
ENDBRANCH   1  23
BRANCH  17  26
ATOM     26  C   UNL     1       2.537   1.464  -0.149  0.00  0.00    -0.023 A 
ATOM     27  C   UNL     1       1.350   2.129   0.095  0.00  0.00    +0.006 A 
ATOM     28  C   UNL     1       0.148   1.452   0.009  0.00  0.00    +0.000 A 
ATOM     29  C   UNL     1       0.133   0.110  -0.320  0.00  0.00    +0.000 A 
ATOM     30  C   UNL     1       1.320  -0.556  -0.562  0.00  0.00    +0.000 A 
ATOM     31  C   UNL     1       2.522   0.121  -0.476  0.00  0.00    +0.006 A 
ENDBRANCH  17  26
TORSDOF 2
