REMARK  Name = ZINC04047855
REMARK  7 active torsions:
REMARK  status: ('A' for Active; 'I' for Inactive)
REMARK    1  A    between atoms: C_1  and  C_2
REMARK    2  A    between atoms: C_2  and  N_3
REMARK    3  A    between atoms: N_3  and  C_4
REMARK    4  A    between atoms: N_3  and  C_6
REMARK    5  A    between atoms: C_4  and  C_5
REMARK    6  A    between atoms: C_9  and  C_12
REMARK    7  A    between atoms: C_19  and  C_31
REMARK                            x       y       z     vdW  Elec       q    Type
REMARK                         _______ _______ _______ _____ _____    ______ ____
ROOT
ATOM      1  C   UNL     1       1.194  -6.134   0.931  0.00  0.00    +0.136 C 
ATOM      2  C   UNL     1       1.517  -6.651   2.313  0.00  0.00    +0.036 C 
ATOM      3  H   UNL     1       4.239  -8.176   1.937  0.00  0.00    +0.152 HD
ATOM      4  C   UNL     1       0.439  -6.556   3.224  0.00  0.00    +0.163 C 
ATOM      5  O   UNL     1      -0.609  -6.070   2.845  0.00  0.00    -0.292 OA
ATOM      6  C   UNL     1       0.542  -7.033   4.642  0.00  0.00    +0.088 C 
ATOM      7  C   UNL     1       1.574  -8.166   4.701  0.00  0.00    +0.032 C 
ATOM      8  C   UNL     1       2.889  -7.628   4.142  0.00  0.00    +0.059 C 
ATOM      9  C   UNL     1       2.692  -7.167   2.706  0.00  0.00    +0.017 C 
ATOM     10  N   UNL     1       3.779  -7.323   1.908  0.00  0.00    -0.316 N 
ATOM     11  C   UNL     1       4.280  -6.349   1.053  0.00  0.00    +0.052 A 
ATOM     12  C   UNL     1       5.530  -5.781   1.229  0.00  0.00    +0.025 A 
ATOM     13  C   UNL     1       5.987  -4.848   0.314  0.00  0.00    +0.002 A 
ATOM     14  C   UNL     1       5.202  -4.489  -0.767  0.00  0.00    +0.002 A 
ATOM     15  C   UNL     1       3.946  -5.043  -0.935  0.00  0.00    +0.025 A 
ATOM     16  C   UNL     1       3.477  -5.962  -0.010  0.00  0.00    +0.049 A 
ATOM     17  N   UNL     1       2.181  -6.465  -0.075  0.00  0.00    -0.331 N 
ATOM     18  H   UNL     1       1.935  -7.047  -0.811  0.00  0.00    +0.147 HD
ENDROOT
BRANCH   1  22
ATOM     19  C   UNL     1       0.831  -1.882   1.127  0.00  0.00    +0.013 A 
ATOM     20  C   UNL     1      -0.271  -2.656   0.816  0.00  0.00    +0.022 A 
ATOM     21  C   UNL     1      -0.154  -4.032   0.752  0.00  0.00    +0.007 A 
ATOM     22  C   UNL     1       1.066  -4.634   0.999  0.00  0.00    -0.023 A 
ATOM     23  C   UNL     1       2.168  -3.860   1.310  0.00  0.00    +0.007 A 
ATOM     24  C   UNL     1       2.052  -2.484   1.370  0.00  0.00    +0.022 A 
BRANCH  19  25
ATOM     25  N   UNL     1       0.712  -0.491   1.192  0.00  0.00    -0.394 NA
ATOM     26  H   UNL     1       1.607  -0.087   1.425  0.00  0.00    +0.126 HD
BRANCH  25  28
ATOM     27  C   UNL     1       0.257   1.553  -0.078  0.00  0.00    +0.022 C 
ATOM     28  C   UNL     1       0.267   0.024  -0.110  0.00  0.00    +0.081 C 
ENDBRANCH  25  28
BRANCH  25  29
ATOM     29  C   UNL     1      -0.271  -0.131   2.222  0.00  0.00    +0.081 C 
ATOM     30  C   UNL     1       0.251  -0.556   3.596  0.00  0.00    +0.022 C 
ENDBRANCH  25  29
ENDBRANCH  19  25
ENDBRANCH   1  22
BRANCH   7  31
ATOM     31  C   UNL     1       1.767  -8.607   6.129  0.00  0.00    -0.044 A 
ATOM     32  C   UNL     1       2.209  -7.703   7.077  0.00  0.00    +0.004 A 
ATOM     33  C   UNL     1       2.386  -8.107   8.387  0.00  0.00    +0.000 A 
ATOM     34  C   UNL     1       2.121  -9.415   8.749  0.00  0.00    +0.000 A 
ATOM     35  C   UNL     1       1.678 -10.318   7.802  0.00  0.00    +0.000 A 
ATOM     36  C   UNL     1       1.496  -9.913   6.492  0.00  0.00    +0.004 A 
ENDBRANCH   7  31
TORSDOF 5
