REMARK  Name = ZINC39941000
REMARK  14 active torsions:
REMARK  status: ('A' for Active; 'I' for Inactive)
REMARK    1  A    between atoms: C_1  and  C_2
REMARK    2  A    between atoms: C_2  and  N_3
REMARK    3  A    between atoms: N_3  and  C_4
REMARK    4  A    between atoms: N_3  and  C_24
REMARK    5  A    between atoms: C_4  and  C_5
REMARK    6  A    between atoms: C_10  and  C_23
REMARK    7  A    between atoms: C_11  and  C_16
REMARK    8  A    between atoms: C_16  and  O_18
REMARK    9  A    between atoms: O_18  and  C_19
REMARK   10  A    between atoms: C_19  and  C_20
REMARK   11  A    between atoms: C_20  and  O_21
REMARK   12  A    between atoms: O_21  and  C_22
REMARK   13  A    between atoms: C_24  and  C_25
REMARK   14  A    between atoms: N_27  and  C_28
REMARK                            x       y       z     vdW  Elec       q    Type
REMARK                         _______ _______ _______ _____ _____    ______ ____
ROOT
ATOM      1  C   UNL     1      -0.041  -3.852   1.571  0.00  0.00    +0.138 C 
ATOM      2  N   UNL     1       0.293  -3.677   0.315  0.00  0.00    -0.160 NA
ATOM      3  C   UNL     1       0.903  -4.621  -0.409  0.00  0.00    +0.271 C 
ATOM      4  O   UNL     1       1.201  -4.425  -1.575  0.00  0.00    -0.268 OA
ATOM      5  C   UNL     1       1.210  -5.926   0.258  0.00  0.00    +0.071 C 
ATOM      6  C   UNL     1       1.810  -7.006  -0.264  0.00  0.00    -0.034 C 
ATOM      7  C   UNL     1       2.002  -8.208   0.634  0.00  0.00    +0.188 C 
ATOM      8  S   UNL     1       1.259  -7.618   2.209  0.00  0.00    -0.086 S 
ATOM      9  C   UNL     1       0.782  -5.995   1.672  0.00  0.00    +0.112 C 
ATOM     10  N   UNL     1       0.195  -4.969   2.241  0.00  0.00    -0.226 NA
ATOM     11  C   UNL     1       2.277  -7.022  -1.696  0.00  0.00    +0.041 C 
ENDROOT
BRANCH   7  12
ATOM     12  C   UNL     1       1.258  -9.405   0.100  0.00  0.00    +0.325 C 
ATOM     13  O   UNL     1       0.243  -9.250  -0.537  0.00  0.00    -0.249 OA
BRANCH  12  14
ATOM     14  O   UNL     1       1.722 -10.642   0.333  0.00  0.00    -0.461 OA
BRANCH  14  15
ATOM     15  C   UNL     1       0.966 -11.730  -0.203  0.00  0.00    +0.260 C 
BRANCH  15  16
ATOM     16  C   UNL     1       1.646 -13.052   0.162  0.00  0.00    +0.200 C 
BRANCH  16  17
ATOM     17  O   UNL     1       1.612 -13.229   1.579  0.00  0.00    -0.380 OA
ATOM     18  C   UNL     1       2.224 -14.440   2.028  0.00  0.00    +0.194 C 
ENDBRANCH  16  17
ENDBRANCH  15  16
ENDBRANCH  14  15
ENDBRANCH  12  14
ENDBRANCH   7  12
BRANCH   1  19
ATOM     19  C   UNL     1      -0.726  -2.719   2.292  0.00  0.00    +0.158 C 
BRANCH  19  20
ATOM     20  N   UNL     1      -0.891  -1.584   1.374  0.00  0.00    -0.287 NA
BRANCH  20  22
ATOM     21  C   UNL     1       0.243  -0.137  -0.244  0.00  0.00    +0.020 C 
ATOM     22  C   UNL     1       0.411  -1.020   0.994  0.00  0.00    +0.082 C 
ENDBRANCH  20  22
BRANCH  20  23
ATOM     23  C   UNL     1      -1.759  -0.554   1.961  0.00  0.00    +0.181 C 
BRANCH  23  24
ATOM     24  C   UNL     1      -3.188  -1.032   1.944  0.00  0.00    +0.231 C 
ATOM     25  O   UNL     1      -3.475  -2.066   1.379  0.00  0.00    -0.274 OA
ATOM     26  N   UNL     1      -4.147  -0.311   2.558  0.00  0.00    -0.280 N 
ATOM     27  H   UNL     1      -3.932   0.552   2.944  0.00  0.00    +0.155 HD
BRANCH  26  28
ATOM     28  C   UNL     1      -5.455  -0.809   2.638  0.00  0.00    +0.105 A 
ATOM     29  C   UNL     1      -6.138  -0.783   3.848  0.00  0.00    +0.147 A 
ATOM     30  C   UNL     1      -7.428  -1.275   3.923  0.00  0.00    +0.040 A 
ATOM     31  C   UNL     1      -8.039  -1.793   2.796  0.00  0.00    +0.006 A 
ATOM     32  C   UNL     1      -7.363  -1.822   1.590  0.00  0.00    +0.040 A 
ATOM     33  C   UNL     1      -6.074  -1.326   1.506  0.00  0.00    +0.147 A 
ATOM     34  F   UNL     1      -5.416  -1.349   0.326  0.00  0.00    -0.203 F 
ATOM     35  F   UNL     1      -5.542  -0.277   4.950  0.00  0.00    -0.203 F 
ENDBRANCH  26  28
ENDBRANCH  23  24
ENDBRANCH  20  23
ENDBRANCH  19  20
ENDBRANCH   1  19
TORSDOF 11
