REMARK  Name = ZINC33013472
REMARK  10 active torsions:
REMARK  status: ('A' for Active; 'I' for Inactive)
REMARK    1  A    between atoms: C_1  and  C_2
REMARK    2  A    between atoms: C_2  and  N_3
REMARK    3  A    between atoms: N_3  and  C_4
REMARK    4  A    between atoms: N_3  and  S_6
REMARK    5  A    between atoms: C_4  and  C_5
REMARK    6  A    between atoms: S_6  and  C_9
REMARK    7  A    between atoms: C_12  and  O_26
REMARK    8  A    between atoms: C_13  and  C_15
REMARK    9  A    between atoms: C_17  and  C_20
REMARK   10  A    between atoms: O_26  and  C_27
REMARK                            x       y       z     vdW  Elec       q    Type
REMARK                         _______ _______ _______ _____ _____    ______ ____
ROOT
ATOM      1  C   UNL     1      -2.110  -3.113   0.007  0.00  0.00    +0.106 A 
ATOM      2  C   UNL     1      -3.387  -2.578   0.022  0.00  0.00    +0.032 A 
ATOM      3  C   UNL     1      -3.568  -1.208   0.031  0.00  0.00    +0.048 A 
ATOM      4  C   UNL     1      -2.469  -0.362   0.025  0.00  0.00    +0.131 A 
ATOM      5  C   UNL     1      -1.179  -0.901   0.009  0.00  0.00    +0.066 A 
ATOM      6  C   UNL     1      -1.008  -2.284  -0.005  0.00  0.00    +0.044 A 
ENDROOT
BRANCH   5   7
ATOM      7  C   UNL     1       0.002  -0.004   0.002  0.00  0.00    +0.206 A 
ATOM      8  N   UNL     1       1.300  -0.385  -0.012  0.00  0.00    -0.191 NA
ATOM      9  C   UNL     1       1.993   0.726  -0.013  0.00  0.00    +0.231 A 
ATOM     10  O   UNL     1       1.118   1.736   0.001  0.00  0.00    -0.337 OA
ATOM     11  N   UNL     1      -0.016   1.304   0.009  0.00  0.00    -0.056 NA
BRANCH   9  12
ATOM     12  C   UNL     1       3.495   0.843  -0.026  0.00  0.00    +0.078 C 
ATOM     13  C   UNL     1       3.959   1.596   1.223  0.00  0.00    +0.013 C 
ATOM     14  C   UNL     1       5.484   1.715   1.209  0.00  0.00    +0.001 C 
ATOM     15  C   UNL     1       5.925   2.480  -0.040  0.00  0.00    +0.000 C 
ATOM     16  C   UNL     1       5.461   1.728  -1.289  0.00  0.00    +0.001 C 
ATOM     17  C   UNL     1       3.936   1.609  -1.276  0.00  0.00    +0.013 C 
ENDBRANCH   9  12
ENDBRANCH   5   7
BRANCH   1  18
ATOM     18  S   UNL     1      -1.893  -4.862  -0.004  0.00  0.00    +0.061 S 
ATOM     19  O   UNL     1      -0.601  -5.114   0.533  0.00  0.00    -0.153 OA
ATOM     20  O   UNL     1      -3.073  -5.422   0.556  0.00  0.00    -0.153 OA
BRANCH  18  21
ATOM     21  N   UNL     1      -1.848  -5.340  -1.589  0.00  0.00    -0.177 NA
BRANCH  21  23
ATOM     22  C   UNL     1      -0.009  -6.817  -2.237  0.00  0.00    +0.022 C 
ATOM     23  C   UNL     1      -0.569  -5.394  -2.301  0.00  0.00    +0.106 C 
ENDBRANCH  21  23
BRANCH  21  24
ATOM     24  C   UNL     1      -3.087  -5.708  -2.278  0.00  0.00    +0.106 C 
ATOM     25  C   UNL     1      -3.627  -4.496  -3.039  0.00  0.00    +0.022 C 
ENDBRANCH  21  24
ENDBRANCH  18  21
ENDBRANCH   1  18
BRANCH   4  26
ATOM     26  O   UNL     1      -2.646   0.984   0.033  0.00  0.00    -0.494 OA
ATOM     27  C   UNL     1      -3.993   1.462   0.049  0.00  0.00    +0.277 C 
ENDBRANCH   4  26
TORSDOF 7
