REMARK  Name = ZINC67462574
REMARK  9 active torsions:
REMARK  status: ('A' for Active; 'I' for Inactive)
REMARK    1  A    between atoms: C_1  and  C_2
REMARK    2  A    between atoms: C_2  and  C_3
REMARK    3  A    between atoms: C_2  and  C_4
REMARK    4  A    between atoms: C_4  and  N_5
REMARK    5  A    between atoms: N_5  and  C_6
REMARK    6  A    between atoms: N_9  and  C_10
REMARK    7  A    between atoms: C_10  and  C_11
REMARK    8  A    between atoms: C_11  and  C_12
REMARK    9  A    between atoms: C_12  and  C_13
REMARK                            x       y       z     vdW  Elec       q    Type
REMARK                         _______ _______ _______ _____ _____    ______ ____
ROOT
ATOM      1  C   UNL     1      -1.099   2.795   6.047  0.00  0.00    +0.026 C 
ENDROOT
BRANCH   1   2
ATOM      2  C   UNL     1      -0.187   2.655   4.826  0.00  0.00    +0.106 C 
BRANCH   2   7
ATOM      3  N   UNL     1      -0.008  -0.140   2.444  0.00  0.00    -0.288 N 
ATOM      4  C   UNL     1      -1.025  -1.047   2.982  0.00  0.00    +0.133 C 
ATOM      5  C   UNL     1       0.237   1.036   3.055  0.00  0.00    +0.302 C 
ATOM      6  O   UNL     1       1.081   1.788   2.609  0.00  0.00    -0.253 OA
ATOM      7  N   UNL     1      -0.453   1.377   4.162  0.00  0.00    -0.299 N 
ATOM      8  H   UNL     1      -1.127   0.776   4.518  0.00  0.00    +0.150 HD
BRANCH   3   9
ATOM      9  C   UNL     1       0.742  -0.511   1.242  0.00  0.00    +0.112 C 
BRANCH   9  11
ATOM     10  C   UNL     1      -0.019   1.526   0.010  0.00  0.00    +0.009 C 
ATOM     11  C   UNL     1       0.002  -0.004   0.002  0.00  0.00    +0.000 C 
ATOM     12  C   UNL     1       0.718  -0.497  -1.257  0.00  0.00    +0.009 C 
ENDBRANCH   9  11
ENDBRANCH   3   9
ENDBRANCH   2   7
ENDBRANCH   1   2
BRANCH   1  13
ATOM     13  C   UNL     1      -0.820   4.129   6.741  0.00  0.00    +0.078 C 
BRANCH  13  14
ATOM     14  C   UNL     1      -1.718   4.267   7.943  0.00  0.00    +0.134 A 
ATOM     15  N   UNL     1      -2.913   4.797   7.963  0.00  0.00    -0.134 NA
ATOM     16  N   UNL     1      -3.393   4.740   9.156  0.00  0.00    -0.134 NA
ATOM     17  C   UNL     1      -2.529   4.171   9.947  0.00  0.00    +0.133 A 
ATOM     18  N   UNL     1      -1.442   3.861   9.202  0.00  0.00    -0.315 N 
ATOM     19  C   UNL     1      -0.211   3.230   9.678  0.00  0.00    +0.125 C 
ATOM     20  C   UNL     1      -0.527   2.349  10.890  0.00  0.00    +0.022 C 
ATOM     21  C   UNL     1      -0.418   3.175  12.171  0.00  0.00    +0.002 C 
ATOM     22  C   UNL     1      -1.425   4.321  12.155  0.00  0.00    +0.008 C 
ATOM     23  C   UNL     1      -2.689   3.887  11.418  0.00  0.00    +0.076 C 
ENDBRANCH  13  14
ENDBRANCH   1  13
TORSDOF 6
