REMARK  Name = ZINC38545974
REMARK  9 active torsions:
REMARK  status: ('A' for Active; 'I' for Inactive)
REMARK    1  A    between atoms: C_1  and  C_2
REMARK    2  A    between atoms: C_3  and  C_31
REMARK    3  A    between atoms: C_5  and  N_23
REMARK    4  A    between atoms: C_6  and  C_7
REMARK    5  A    between atoms: C_7  and  C_9
REMARK    6  A    between atoms: C_7  and  N_17
REMARK    7  A    between atoms: C_12  and  O_15
REMARK    8  A    between atoms: O_15  and  C_16
REMARK    9  A    between atoms: C_24  and  C_26
REMARK                            x       y       z     vdW  Elec       q    Type
REMARK                         _______ _______ _______ _____ _____    ______ ____
ROOT
ATOM      1  C   UNL     1      -0.713   2.388   0.746  0.00  0.00    +0.045 C 
ATOM      2  C   UNL     1      -0.558   1.014   0.146  0.00  0.00    -0.037 A 
ATOM      3  C   UNL     1      -0.723   0.823  -1.185  0.00  0.00    -0.008 A 
ATOM      4  S   UNL     1      -0.433  -0.931  -1.349  0.00  0.00    -0.078 S 
ATOM      5  C   UNL     1      -0.111  -1.296   0.368  0.00  0.00    +0.074 A 
ATOM      6  C   UNL     1      -0.239  -0.068   0.946  0.00  0.00    -0.025 A 
ATOM      7  C   UNL     1      -1.064   1.831  -2.252  0.00  0.00    +0.052 C 
ENDROOT
BRANCH   5   8
ATOM      8  N   UNL     1       0.198  -2.520   0.965  0.00  0.00    -0.275 N 
ATOM      9  C   UNL     1       0.150  -3.654   0.238  0.00  0.00    +0.255 C 
ATOM     10  O   UNL     1      -0.161  -3.611  -0.938  0.00  0.00    -0.269 OA
ATOM     11  H   UNL     1       0.446  -2.555   1.902  0.00  0.00    +0.156 HD
BRANCH   9  12
ATOM     12  C   UNL     1       0.474  -4.939   0.864  0.00  0.00    +0.074 A 
ATOM     13  C   UNL     1       0.491  -6.206   0.300  0.00  0.00    +0.021 A 
ATOM     14  C   UNL     1       0.838  -7.232   1.147  0.00  0.00    +0.008 A 
ATOM     15  C   UNL     1       1.132  -6.948   2.439  0.00  0.00    +0.046 A 
ATOM     16  S   UNL     1       0.955  -5.281   2.546  0.00  0.00    -0.092 S 
ENDBRANCH   9  12
ENDBRANCH   5   8
BRANCH   6  17
ATOM     17  C   UNL     1      -0.041   0.106   2.429  0.00  0.00    -0.004 C 
BRANCH  17  18
ATOM     18  N   UNL     1      -0.721  -0.981   3.145  0.00  0.00    +0.387 N 
ATOM     19  C   UNL     1      -2.124  -1.043   2.719  0.00  0.00    -0.078 C 
ATOM     20  C   UNL     1      -2.817  -2.225   3.401  0.00  0.00    -0.019 C 
ATOM     21  C   UNL     1      -2.750  -2.042   4.920  0.00  0.00    -0.004 C 
ATOM     22  C   UNL     1      -1.285  -1.904   5.344  0.00  0.00    -0.019 C 
ATOM     23  C   UNL     1      -0.649  -0.734   4.590  0.00  0.00    -0.078 C 
ATOM     24  H   UNL     1      -0.268  -1.857   2.932  0.00  0.00    -0.080 HD
ENDBRANCH  17  18
BRANCH  17  25
ATOM     25  C   UNL     1       1.432   0.074   2.747  0.00  0.00    -0.056 A 
ATOM     26  C   UNL     1       2.022  -1.106   3.161  0.00  0.00    +0.006 A 
ATOM     27  C   UNL     1       3.372  -1.139   3.454  0.00  0.00    +0.046 A 
ATOM     28  C   UNL     1       4.135   0.013   3.332  0.00  0.00    +0.120 A 
ATOM     29  C   UNL     1       3.540   1.196   2.916  0.00  0.00    +0.046 A 
ATOM     30  C   UNL     1       2.191   1.222   2.620  0.00  0.00    +0.006 A 
BRANCH  28  31
ATOM     31  O   UNL     1       5.463  -0.016   3.619  0.00  0.00    -0.495 OA
ATOM     32  C   UNL     1       6.186   1.208   3.471  0.00  0.00    +0.277 C 
ENDBRANCH  28  31
ENDBRANCH  17  25
ENDBRANCH   6  17
TORSDOF 6
