REMARK  Name = ZINC15314279
REMARK  14 active torsions:
REMARK  status: ('A' for Active; 'I' for Inactive)
REMARK    1  A    between atoms: C_1  and  C_2
REMARK    2  A    between atoms: C_2  and  C_3
REMARK    3  A    between atoms: C_3  and  C_4
REMARK    4  A    between atoms: C_4  and  N_5
REMARK    5  A    between atoms: N_14  and  C_35
REMARK    6  A    between atoms: C_15  and  C_17
REMARK    7  A    between atoms: C_17  and  C_18
REMARK    8  A    between atoms: C_18  and  C_19
REMARK    9  A    between atoms: N_21  and  C_22
REMARK   10  A    between atoms: C_22  and  C_24
REMARK   11  A    between atoms: C_22  and  C_25
REMARK   12  A    between atoms: C_35  and  C_36
REMARK   13  A    between atoms: C_36  and  C_37
REMARK   14  A    between atoms: C_36  and  C_38
REMARK                            x       y       z     vdW  Elec       q    Type
REMARK                         _______ _______ _______ _____ _____    ______ ____
ROOT
ATOM      1  N   UNL     1      -6.622   3.255  -1.374  0.00  0.00    -0.277 N 
ATOM      2  C   UNL     1      -5.579   2.670  -0.674  0.00  0.00    +0.168 A 
ATOM      3  C   UNL     1      -5.612   2.686   0.715  0.00  0.00    +0.151 A 
ATOM      4  C   UNL     1      -6.705   3.295   1.370  0.00  0.00    +0.280 A 
ATOM      5  O   UNL     1      -6.756   3.321   2.586  0.00  0.00    -0.265 OA
ATOM      6  N   UNL     1      -7.690   3.847   0.632  0.00  0.00    -0.273 N 
ATOM      7  H   UNL     1      -8.466   4.280   1.092  0.00  0.00    +0.173 HD
ATOM      8  C   UNL     1      -7.645   3.825  -0.711  0.00  0.00    +0.331 A 
ATOM      9  O   UNL     1      -8.552   4.332  -1.343  0.00  0.00    -0.246 OA
ATOM     10  N   UNL     1      -4.468   2.038   1.136  0.00  0.00    -0.322 N 
ATOM     11  C   UNL     1      -3.794   1.670   0.029  0.00  0.00    +0.113 A 
ATOM     12  N   UNL     1      -4.457   2.043  -1.036  0.00  0.00    -0.214 NA
ENDROOT
BRANCH   1  13
ATOM     13  C   UNL     1      -6.610   3.253  -2.839  0.00  0.00    +0.128 C 
BRANCH  13  14
ATOM     14  C   UNL     1      -7.311   1.993  -3.353  0.00  0.00    +0.021 C 
BRANCH  14  16
ATOM     15  C   UNL     1      -7.999   0.731  -5.396  0.00  0.00    +0.004 C 
ATOM     16  C   UNL     1      -7.299   1.990  -4.883  0.00  0.00    -0.002 C 
ENDBRANCH  14  16
ENDBRANCH  13  14
ENDBRANCH   1  13
BRANCH  11  17
ATOM     17  C   UNL     1      -2.479   0.934   0.019  0.00  0.00    +0.083 C 
BRANCH  17  18
ATOM     18  C   UNL     1      -1.330   1.944   0.019  0.00  0.00    +0.103 C 
BRANCH  18  19
ATOM     19  C   UNL     1      -0.014   1.209   0.009  0.00  0.00    +0.214 C 
ATOM     20  O   UNL     1       0.002  -0.004   0.002  0.00  0.00    -0.276 OA
ATOM     21  N   UNL     1       1.143   1.898   0.001  0.00  0.00    -0.312 N 
ATOM     22  H   UNL     1       1.130   2.868   0.007  0.00  0.00    +0.149 HD
BRANCH  21  23
ATOM     23  C   UNL     1       2.422   1.183  -0.015  0.00  0.00    +0.076 C 
ATOM     24  C   UNL     1       2.792   0.832  -1.457  0.00  0.00    +0.028 C 
BRANCH  23  25
ATOM     25  C   UNL     1       3.511   2.072   0.589  0.00  0.00    -0.010 C 
ATOM     26  C   UNL     1       3.141   2.423   2.032  0.00  0.00    +0.012 C 
ATOM     27  C   UNL     1       4.230   3.312   2.636  0.00  0.00    -0.010 C 
ATOM     28  C   UNL     1       5.566   2.565   2.619  0.00  0.00    +0.007 C 
ATOM     29  C   UNL     1       5.936   2.214   1.177  0.00  0.00    -0.010 C 
ATOM     30  C   UNL     1       4.846   1.325   0.573  0.00  0.00    +0.012 C 
ATOM     31  C   UNL     1       6.059   3.498   0.355  0.00  0.00    +0.007 C 
ATOM     32  C   UNL     1       4.724   4.245   0.372  0.00  0.00    -0.010 C 
ATOM     33  C   UNL     1       4.354   4.596   1.814  0.00  0.00    +0.007 C 
ATOM     34  C   UNL     1       3.635   3.357  -0.232  0.00  0.00    +0.012 C 
ENDBRANCH  23  25
ENDBRANCH  21  23
ENDBRANCH  18  19
ENDBRANCH  17  18
ENDBRANCH  11  17
BRANCH  10  35
ATOM     35  C   UNL     1      -4.063   1.799   2.523  0.00  0.00    +0.126 C 
BRANCH  35  36
ATOM     36  C   UNL     1      -3.217   2.975   3.017  0.00  0.00    +0.003 C 
ATOM     37  C   UNL     1      -4.078   4.239   3.059  0.00  0.00    +0.009 C 
ATOM     38  C   UNL     1      -2.690   2.670   4.421  0.00  0.00    +0.009 C 
ENDBRANCH  35  36
ENDBRANCH  10  35
TORSDOF 10
