REMARK  Name = ZINC67416248
REMARK  8 active torsions:
REMARK  status: ('A' for Active; 'I' for Inactive)
REMARK    1  A    between atoms: C_1  and  C_2
REMARK    2  A    between atoms: C_4  and  C_22
REMARK    3  A    between atoms: C_7  and  N_8
REMARK    4  A    between atoms: C_9  and  C_11
REMARK    5  A    between atoms: N_13  and  C_14
REMARK    6  A    between atoms: C_14  and  C_15
REMARK    7  A    between atoms: C_18  and  C_21
REMARK    8  A    between atoms: N_24  and  C_25
REMARK                            x       y       z     vdW  Elec       q    Type
REMARK                         _______ _______ _______ _____ _____    ______ ____
ROOT
ATOM      1  N   UNL     1       0.025  -0.013   2.412  0.00  0.00    -0.278 N 
ATOM      2  C   UNL     1      -0.057  -0.689   3.576  0.00  0.00    +0.303 C 
ATOM      3  O   UNL     1      -0.040  -1.903   3.575  0.00  0.00    -0.265 OA
ATOM      4  H   UNL     1       0.078   0.955   2.417  0.00  0.00    +0.155 HD
ENDROOT
BRANCH   1  11
ATOM      5  C   UNL     1      -1.270   1.182   0.184  0.00  0.00    +0.045 C 
ATOM      6  C   UNL     1      -0.589  -0.159   0.086  0.00  0.00    -0.029 A 
ATOM      7  C   UNL     1      -0.579  -0.839  -1.111  0.00  0.00    +0.018 A 
ATOM      8  C   UNL     1       0.053  -2.082  -1.202  0.00  0.00    +0.037 A 
ATOM      9  C   UNL     1       0.672  -2.631  -0.075  0.00  0.00    +0.015 A 
ATOM     10  C   UNL     1       0.658  -1.947   1.119  0.00  0.00    +0.024 A 
ATOM     11  C   UNL     1       0.033  -0.706   1.204  0.00  0.00    +0.037 A 
BRANCH   8  12
ATOM     12  C   UNL     1       0.066  -2.813  -2.483  0.00  0.00    +0.244 C 
ATOM     13  O   UNL     1      -0.473  -2.334  -3.462  0.00  0.00    -0.270 OA
ATOM     14  N   UNL     1       0.675  -4.012  -2.569  0.00  0.00    -0.314 N 
ATOM     15  C   UNL     1       0.688  -4.739  -3.841  0.00  0.00    +0.128 C 
ATOM     16  H   UNL     1       1.106  -4.394  -1.788  0.00  0.00    +0.149 HD
ENDBRANCH   8  12
ENDBRANCH   1  11
BRANCH   2  17
ATOM     17  C   UNL     1      -0.168   0.056   4.866  0.00  0.00    +0.299 C 
ATOM     18  O   UNL     1      -0.185   1.269   4.866  0.00  0.00    -0.265 OA
ATOM     19  N   UNL     1      -0.249  -0.620   6.029  0.00  0.00    -0.307 N 
ATOM     20  H   UNL     1      -0.236  -1.590   6.029  0.00  0.00    +0.149 HD
BRANCH  19  21
ATOM     21  C   UNL     1      -0.358   0.111   7.294  0.00  0.00    +0.108 C 
BRANCH  21  22
ATOM     22  C   UNL     1      -0.435  -0.885   8.453  0.00  0.00    +0.006 C 
ATOM     23  C   UNL     1      -1.727  -1.698   8.343  0.00  0.00    +0.005 C 
ATOM     24  C   UNL     1      -1.803  -2.694   9.502  0.00  0.00    +0.003 C 
ATOM     25  C   UNL     1      -1.791  -1.933  10.829  0.00  0.00    -0.014 C 
ATOM     26  C   UNL     1      -0.500  -1.121  10.940  0.00  0.00    +0.003 C 
ATOM     27  C   UNL     1      -0.423  -0.125   9.781  0.00  0.00    +0.005 C 
ATOM     28  C   UNL     1      -2.994  -0.989  10.887  0.00  0.00    +0.007 C 
ENDBRANCH  21  22
ENDBRANCH  19  21
ENDBRANCH   2  17
TORSDOF 5
