REMARK  Name = ZINC01874139
REMARK  7 active torsions:
REMARK  status: ('A' for Active; 'I' for Inactive)
REMARK    1  A    between atoms: C_1  and  C_2
REMARK    2  A    between atoms: C_5  and  N_9
REMARK    3  A    between atoms: C_6  and  C_8
REMARK    4  A    between atoms: C_23  and  C_32
REMARK    5  A    between atoms: N_25  and  C_26
REMARK    6  A    between atoms: C_33  and  C_35
REMARK    7  A    between atoms: C_39  and  N_41
REMARK                            x       y       z     vdW  Elec       q    Type
REMARK                         _______ _______ _______ _____ _____    ______ ____
ROOT
ATOM      1  N   UNL     1       0.059  -4.168  -0.021  0.00  0.00    -0.296 N 
ATOM      2  C   UNL     1      -0.042  -4.854  -1.217  0.00  0.00    +0.164 C 
ATOM      3  N   UNL     1      -0.051  -4.197  -2.350  0.00  0.00    -0.227 NA
ATOM      4  C   UNL     1      -0.148  -4.835  -3.544  0.00  0.00    +0.087 A 
ATOM      5  C   UNL     1      -0.155  -4.097  -4.734  0.00  0.00    +0.030 A 
ATOM      6  C   UNL     1      -0.253  -4.746  -5.944  0.00  0.00    +0.002 A 
ATOM      7  C   UNL     1      -0.346  -6.129  -5.994  0.00  0.00    +0.002 A 
ATOM      8  C   UNL     1      -0.341  -6.872  -4.832  0.00  0.00    +0.025 A 
ATOM      9  C   UNL     1      -0.243  -6.237  -3.600  0.00  0.00    +0.062 A 
ATOM     10  N   UNL     1      -0.237  -6.971  -2.429  0.00  0.00    -0.269 N 
ATOM     11  C   UNL     1      -0.133  -6.326  -1.217  0.00  0.00    +0.169 C 
ATOM     12  N   UNL     1      -0.118  -6.981  -0.082  0.00  0.00    -0.209 NA
ATOM     13  C   UNL     1      -0.196  -8.325   0.026  0.00  0.00    +0.164 A 
ATOM     14  C   UNL     1      -0.300  -9.123  -1.101  0.00  0.00    +0.044 A 
ATOM     15  C   UNL     1      -0.362 -10.446  -0.693  0.00  0.00    +0.068 A 
ATOM     16  N   UNL     1      -0.300 -10.482   0.617  0.00  0.00    -0.169 NA
ATOM     17  N   UNL     1      -0.195  -9.172   1.102  0.00  0.00    -0.214 N 
ATOM     18  C   UNL     1      -0.481 -11.643  -1.601  0.00  0.00    +0.068 C 
ATOM     19  C   UNL     1      -0.333  -8.438  -2.450  0.00  0.00    +0.146 C 
ATOM     20  H   UNL     1       0.152  -4.656   0.812  0.00  0.00    +0.154 HD
ENDROOT
BRANCH   1  25
ATOM     21  C   UNL     1      -0.068   1.502   0.015  0.00  0.00    +0.044 C 
ATOM     22  C   UNL     1      -0.034  -0.005   0.006  0.00  0.00    -0.050 A 
ATOM     23  C   UNL     1      -0.626  -0.702  -1.032  0.00  0.00    +0.005 A 
ATOM     24  C   UNL     1      -0.596  -2.082  -1.044  0.00  0.00    +0.024 A 
ATOM     25  C   UNL     1       0.028  -2.771  -0.012  0.00  0.00    +0.035 A 
ATOM     26  C   UNL     1       0.621  -2.068   1.029  0.00  0.00    -0.029 A 
ATOM     27  C   UNL     1       0.593  -0.687   1.032  0.00  0.00    +0.008 A 
ATOM     28  C   UNL     1       1.300  -2.811   2.151  0.00  0.00    +0.045 C 
ENDBRANCH   1  25
BRANCH  17  29
ATOM     29  C   UNL     1      -0.106  -8.796   2.448  0.00  0.00    +0.068 A 
ATOM     30  C   UNL     1       0.667  -7.702   2.814  0.00  0.00    +0.028 A 
ATOM     31  C   UNL     1       0.754  -7.334   4.143  0.00  0.00    +0.002 A 
ATOM     32  C   UNL     1       0.072  -8.053   5.107  0.00  0.00    +0.000 A 
ATOM     33  C   UNL     1      -0.698  -9.143   4.745  0.00  0.00    +0.002 A 
ATOM     34  C   UNL     1      -0.794  -9.513   3.418  0.00  0.00    +0.028 A 
ENDBRANCH  17  29
BRANCH  19  35
ATOM     35  C   UNL     1       0.817  -8.973  -3.264  0.00  0.00    -0.020 A 
ATOM     36  C   UNL     1       2.071  -8.404  -3.147  0.00  0.00    +0.006 A 
ATOM     37  C   UNL     1       3.125  -8.895  -3.894  0.00  0.00    +0.003 A 
ATOM     38  C   UNL     1       2.926  -9.956  -4.757  0.00  0.00    +0.033 A 
ATOM     39  C   UNL     1       1.672 -10.526  -4.873  0.00  0.00    +0.127 A 
ATOM     40  C   UNL     1       0.618 -10.037  -4.123  0.00  0.00    +0.038 A 
BRANCH  39  41
ATOM     41  N   UNL     1       1.458 -11.662  -5.798  0.00  0.00    +0.056 N 
ATOM     42  O   UNL     1       2.380 -12.091  -6.452  0.00  0.00    -0.126 OA
ATOM     43  O   UNL     1       0.361 -12.160  -5.900  0.00  0.00    -0.126 OA
ENDBRANCH  39  41
ENDBRANCH  19  35
TORSDOF 4
