REMARK  Name = ZINC24891549
REMARK  6 active torsions:
REMARK  status: ('A' for Active; 'I' for Inactive)
REMARK    1  A    between atoms: C_1  and  C_2
REMARK    2  A    between atoms: C_2  and  C_4
REMARK    3  A    between atoms: C_2  and  S_14
REMARK    4  A    between atoms: N_10  and  C_11
REMARK    5  A    between atoms: N_10  and  C_12
REMARK    6  A    between atoms: S_14  and  C_15
REMARK                            x       y       z     vdW  Elec       q    Type
REMARK                         _______ _______ _______ _____ _____    ______ ____
ROOT
ATOM      1  C   UNL     1       2.497   0.731   0.034  0.00  0.00    +0.149 A 
ATOM      2  N   UNL     1       2.917   1.984  -0.001  0.00  0.00    -0.198 NA
ATOM      3  C   UNL     1       2.037   2.983   0.030  0.00  0.00    +0.217 A 
ATOM      4  N   UNL     1       0.737   2.719   0.095  0.00  0.00    -0.181 NA
ATOM      5  C   UNL     1       0.319   1.458   0.129  0.00  0.00    +0.222 A 
ATOM      6  N   UNL     1       1.205   0.465   0.098  0.00  0.00    -0.198 NA
ATOM      7  N   UNL     1      -1.030   1.179   0.197  0.00  0.00    -0.306 N 
ATOM      8  C   UNL     1      -2.004   2.273   0.231  0.00  0.00    +0.132 C 
ATOM      9  C   UNL     1      -1.490  -0.211   0.235  0.00  0.00    +0.132 C 
ATOM     10  N   UNL     1       2.476   4.291  -0.006  0.00  0.00    -0.327 N 
ATOM     11  H   UNL     1       1.749   5.116   0.019  0.00  0.00    +0.145 HD
ATOM     12  H   UNL     1       3.553   4.508  -0.061  0.00  0.00    +0.145 HD
ENDROOT
BRANCH   1  14
ATOM     13  C   UNL     1       4.179  -0.515   1.363  0.00  0.00    +0.027 C 
ATOM     14  C   UNL     1       3.496  -0.397  -0.001  0.00  0.00    +0.116 C 
BRANCH  14  15
ATOM     15  S   UNL     1       4.743  -0.061  -1.275  0.00  0.00    -0.114 S 
BRANCH  15  16
ATOM     16  C   UNL     1       3.856  -0.211  -2.790  0.00  0.00    +0.009 A 
ATOM     17  C   UNL     1       2.539  -0.654  -2.784  0.00  0.00    +0.017 A 
ATOM     18  C   UNL     1       1.844  -0.766  -3.972  0.00  0.00    +0.039 A 
ATOM     19  C   UNL     1       2.462  -0.448  -5.170  0.00  0.00    +0.123 A 
ATOM     20  C   UNL     1       3.776  -0.011  -5.179  0.00  0.00    +0.039 A 
ATOM     21  C   UNL     1       4.474   0.108  -3.993  0.00  0.00    +0.017 A 
ATOM     22  F   UNL     1       1.782  -0.562  -6.331  0.00  0.00    -0.205 F 
ENDBRANCH  15  16
ENDBRANCH  14  15
ENDBRANCH   1  14
TORSDOF 3
