REMARK  Name = ZINC31626809
REMARK  8 active torsions:
REMARK  status: ('A' for Active; 'I' for Inactive)
REMARK    1  A    between atoms: C_7  and  C_11
REMARK    2  A    between atoms: C_14  and  S_23
REMARK    3  A    between atoms: N_15  and  C_16
REMARK    4  A    between atoms: C_16  and  C_17
REMARK    5  A    between atoms: S_23  and  C_24
REMARK    6  A    between atoms: C_24  and  C_25
REMARK    7  A    between atoms: C_28  and  C_34
REMARK    8  A    between atoms: C_30  and  N_31
REMARK                            x       y       z     vdW  Elec       q    Type
REMARK                         _______ _______ _______ _____ _____    ______ ____
ROOT
ATOM      1  C   UNL     1      -3.348   2.535   0.307  0.00  0.00    +0.167 A 
ATOM      2  N   UNL     1      -4.540   3.058   0.133  0.00  0.00    -0.128 NA
ATOM      3  N   UNL     1      -5.426   2.128   0.088  0.00  0.00    -0.122 NA
ATOM      4  C   UNL     1      -4.856   0.954   0.230  0.00  0.00    +0.192 A 
ATOM      5  N   UNL     1      -3.512   1.170   0.368  0.00  0.00    -0.300 N 
ENDROOT
BRANCH   1  12
ATOM      6  C   UNL     1      -1.979   6.197   2.873  0.00  0.00    +0.001 A 
ATOM      7  C   UNL     1      -0.661   6.558   2.627  0.00  0.00    +0.002 A 
ATOM      8  C   UNL     1       0.100   5.861   1.715  0.00  0.00    +0.026 A 
ATOM      9  C   UNL     1      -0.457   4.784   1.030  0.00  0.00    +0.047 A 
ATOM     10  C   UNL     1      -1.791   4.424   1.283  0.00  0.00    +0.010 A 
ATOM     11  C   UNL     1      -2.543   5.143   2.210  0.00  0.00    +0.011 A 
ATOM     12  C   UNL     1      -2.073   3.272   0.410  0.00  0.00    +0.044 A 
ATOM     13  C   UNL     1      -0.930   3.017  -0.278  0.00  0.00    +0.095 A 
ATOM     14  N   UNL     1       0.034   3.913   0.082  0.00  0.00    -0.360 N 
ATOM     15  H   UNL     1       1.072   4.011  -0.270  0.00  0.00    +0.165 HD
ENDBRANCH   1  12
BRANCH   5  16
ATOM     16  C   UNL     1      -2.466   0.160   0.548  0.00  0.00    +0.157 C 
BRANCH  16  17
ATOM     17  C   UNL     1      -2.357  -0.203   2.030  0.00  0.00    +0.138 C 
ATOM     18  C   UNL     1      -1.320  -1.336   2.231  0.00  0.00    +0.035 C 
ATOM     19  C   UNL     1      -0.900  -1.092   3.708  0.00  0.00    +0.031 C 
ATOM     20  C   UNL     1      -0.985   0.445   3.824  0.00  0.00    +0.160 C 
ATOM     21  O   UNL     1      -1.849   0.911   2.781  0.00  0.00    -0.375 OA
ENDBRANCH  16  17
ENDBRANCH   5  16
BRANCH   4  22
ATOM     22  S   UNL     1      -5.669  -0.609   0.234  0.00  0.00    -0.081 S 
BRANCH  22  23
ATOM     23  C   UNL     1      -7.381  -0.073  -0.002  0.00  0.00    +0.114 C 
BRANCH  23  24
ATOM     24  C   UNL     1      -8.286  -1.279  -0.031  0.00  0.00    -0.007 A 
ATOM     25  C   UNL     1      -8.822  -1.766   1.148  0.00  0.00    +0.007 A 
ATOM     26  C   UNL     1      -9.650  -2.869   1.128  0.00  0.00    +0.013 A 
ATOM     27  C   UNL     1      -9.947  -3.493  -0.085  0.00  0.00    +0.039 A 
ATOM     28  C   UNL     1      -9.403  -2.996  -1.270  0.00  0.00    +0.046 A 
ATOM     29  C   UNL     1      -8.580  -1.889  -1.237  0.00  0.00    +0.131 A 
BRANCH  27  30
ATOM     30  C   UNL     1     -10.834  -4.676  -0.113  0.00  0.00    +0.242 C 
ATOM     31  O   UNL     1     -11.090  -5.218  -1.171  0.00  0.00    -0.270 OA
ATOM     32  N   UNL     1     -11.357  -5.154   1.033  0.00  0.00    -0.325 N 
ATOM     33  H   UNL     1     -12.016  -6.034   1.012  0.00  0.00    +0.145 HD
ATOM     34  H   UNL     1     -11.124  -4.664   1.990  0.00  0.00    +0.145 HD
ENDBRANCH  27  30
BRANCH  29  35
ATOM     35  N   UNL     1      -8.006  -1.358  -2.494  0.00  0.00    +0.057 N 
ATOM     36  O   UNL     1      -8.670  -1.360  -3.515  0.00  0.00    -0.126 OA
ATOM     37  O   UNL     1      -6.871  -0.918  -2.506  0.00  0.00    -0.126 OA
ENDBRANCH  29  35
ENDBRANCH  23  24
ENDBRANCH  22  23
ENDBRANCH   4  22
TORSDOF 8
