REMARK  Name = ZINC39654475
REMARK  10 active torsions:
REMARK  status: ('A' for Active; 'I' for Inactive)
REMARK    1  A    between atoms: C_1  and  C_2
REMARK    2  A    between atoms: C_2  and  C_3
REMARK    3  A    between atoms: C_6  and  C_9
REMARK    4  A    between atoms: C_9  and  C_10
REMARK    5  A    between atoms: C_10  and  N_11
REMARK    6  A    between atoms: C_12  and  C_14
REMARK    7  A    between atoms: C_25  and  C_27
REMARK    8  A    between atoms: C_30  and  O_37
REMARK    9  A    between atoms: C_31  and  C_33
REMARK   10  A    between atoms: O_37  and  C_38
REMARK                            x       y       z     vdW  Elec       q    Type
REMARK                         _______ _______ _______ _____ _____    ______ ____
ROOT
ATOM      1  C   UNL     1     -10.727  -1.459   0.070  0.00  0.00    +0.100 C 
ATOM      2  C   UNL     1     -10.668  -2.199   1.425  0.00  0.00    +0.121 C 
ATOM      3  N   UNL     1     -11.215  -1.231   2.404  0.00  0.00    -0.296 N 
ATOM      4  C   UNL     1     -12.339  -0.579   1.690  0.00  0.00    +0.115 C 
ATOM      5  C   UNL     1     -11.828  -0.399   0.246  0.00  0.00    -0.004 C 
ATOM      6  C   UNL     1     -12.959  -0.641  -0.748  0.00  0.00    -0.010 C 
ATOM      7  C   UNL     1     -14.013   0.459  -0.593  0.00  0.00    -0.082 C 
ATOM      8  N   UNL     1     -13.395   1.769  -0.833  0.00  0.00    +0.379 N 
ATOM      9  C   UNL     1     -12.371   2.034   0.185  0.00  0.00    -0.082 C 
ATOM     10  C   UNL     1     -11.248   1.000   0.063  0.00  0.00    -0.010 C 
ATOM     11  C   UNL     1     -10.788  -0.996   3.661  0.00  0.00    +0.247 C 
ATOM     12  O   UNL     1      -9.770  -1.524   4.066  0.00  0.00    -0.270 OA
ATOM     13  H   UNL     1     -12.968   1.776  -1.747  0.00  0.00    -0.086 HD
ATOM     14  H   UNL     1     -14.103   2.486  -0.790  0.00  0.00    -0.086 HD
ENDROOT
BRANCH  11  15
ATOM     15  C   UNL     1     -11.556  -0.099   4.546  0.00  0.00    +0.038 A 
ATOM     16  C   UNL     1     -12.905   0.158   4.284  0.00  0.00    +0.016 A 
ATOM     17  C   UNL     1     -13.618   0.995   5.112  0.00  0.00    +0.047 A 
ATOM     18  C   UNL     1     -12.998   1.585   6.208  0.00  0.00    +0.132 A 
ATOM     19  C   UNL     1     -11.658   1.332   6.472  0.00  0.00    +0.097 A 
ATOM     20  C   UNL     1     -10.939   0.491   5.652  0.00  0.00    +0.029 A 
BRANCH  19  21
ATOM     21  C   UNL     1     -10.991   1.974   7.661  0.00  0.00    +0.421 C 
ATOM     22  F   UNL     1      -9.652   1.572   7.719  0.00  0.00    -0.166 F 
ATOM     23  F   UNL     1     -11.055   3.366   7.536  0.00  0.00    -0.166 F 
ATOM     24  F   UNL     1     -11.647   1.581   8.833  0.00  0.00    -0.166 F 
ENDBRANCH  19  21
BRANCH  18  25
ATOM     25  O   UNL     1     -13.705   2.410   7.021  0.00  0.00    -0.495 OA
ATOM     26  C   UNL     1     -15.078   2.627   6.691  0.00  0.00    +0.277 C 
ENDBRANCH  18  25
ENDBRANCH  11  15
BRANCH   1  28
ATOM     27  N   UNL     1      -9.061  -0.521  -1.500  0.00  0.00    -0.315 N 
ATOM     28  C   UNL     1      -9.405  -0.799  -0.227  0.00  0.00    +0.218 C 
ATOM     29  O   UNL     1      -8.652  -0.518   0.681  0.00  0.00    -0.275 OA
ATOM     30  H   UNL     1      -9.664  -0.746  -2.225  0.00  0.00    +0.149 HD
BRANCH  27  31
ATOM     31  C   UNL     1      -7.776   0.121  -1.787  0.00  0.00    +0.109 C 
BRANCH  31  32
ATOM     32  C   UNL     1      -7.634   0.323  -3.297  0.00  0.00    +0.054 C 
BRANCH  32  36
ATOM     33  C   UNL     1      -3.887   2.195  -4.138  0.00  0.00    -0.048 A 
ATOM     34  C   UNL     1      -3.977   0.816  -4.097  0.00  0.00    +0.004 A 
ATOM     35  C   UNL     1      -5.190   0.210  -3.824  0.00  0.00    +0.004 A 
ATOM     36  C   UNL     1      -6.312   0.984  -3.593  0.00  0.00    -0.046 A 
ATOM     37  C   UNL     1      -6.222   2.362  -3.634  0.00  0.00    +0.004 A 
ATOM     38  C   UNL     1      -5.008   2.968  -3.902  0.00  0.00    +0.004 A 
BRANCH  33  40
ATOM     39  C   UNL     1      -1.810   3.095  -3.127  0.00  0.00    +0.009 C 
ATOM     40  C   UNL     1      -2.566   2.855  -4.436  0.00  0.00    +0.032 C 
ENDBRANCH  33  40
ENDBRANCH  32  36
ENDBRANCH  31  32
ENDBRANCH  27  31
ENDBRANCH   1  28
TORSDOF 8
