REMARK  Name = ZINC21959904
REMARK  13 active torsions:
REMARK  status: ('A' for Active; 'I' for Inactive)
REMARK    1  A    between atoms: C_1  and  C_2
REMARK    2  A    between atoms: C_2  and  N_3
REMARK    3  A    between atoms: N_3  and  C_4
REMARK    4  A    between atoms: N_3  and  C_6
REMARK    5  A    between atoms: C_4  and  C_5
REMARK    6  A    between atoms: C_6  and  C_7
REMARK    7  A    between atoms: C_10  and  C_13
REMARK    8  A    between atoms: C_13  and  N_14
REMARK    9  A    between atoms: C_15  and  C_17
REMARK   10  A    between atoms: C_17  and  N_18
REMARK   11  A    between atoms: C_23  and  C_30
REMARK   12  A    between atoms: C_26  and  C_28
REMARK   13  A    between atoms: C_26  and  C_29
REMARK                            x       y       z     vdW  Elec       q    Type
REMARK                         _______ _______ _______ _____ _____    ______ ____
ROOT
ATOM      1  N   UNL     1      -0.613  -5.049   3.044  0.00  0.00    -0.310 N 
ATOM      2  C   UNL     1      -0.859  -4.208   2.020  0.00  0.00    +0.231 C 
ATOM      3  O   UNL     1      -0.414  -4.449   0.917  0.00  0.00    -0.274 OA
ATOM      4  H   UNL     1      -1.017  -4.831   4.044  0.00  0.00    +0.149 HD
ENDROOT
BRANCH   1   5
ATOM      5  C   UNL     1       0.193  -6.253   2.826  0.00  0.00    +0.139 C 
BRANCH   5   9
ATOM      6  C   UNL     1       0.548  -8.414   6.494  0.00  0.00    -0.064 A 
ATOM      7  C   UNL     1      -0.501  -8.679   5.634  0.00  0.00    +0.002 A 
ATOM      8  C   UNL     1      -0.616  -7.980   4.447  0.00  0.00    +0.005 A 
ATOM      9  C   UNL     1       0.318  -7.015   4.120  0.00  0.00    -0.030 A 
ATOM     10  C   UNL     1       1.370  -6.753   4.977  0.00  0.00    +0.005 A 
ATOM     11  C   UNL     1       1.482  -7.449   6.167  0.00  0.00    +0.002 A 
BRANCH   6  12
ATOM     12  C   UNL     1       0.674  -9.176   7.787  0.00  0.00    -0.043 C 
BRANCH  12  13
ATOM     13  N   UNL     1       1.481 -10.383   7.568  0.00  0.00    +0.382 N 
ATOM     14  H   UNL     1       1.052 -10.926   6.713  0.00  0.00    -0.081 HD
BRANCH  13  16
ATOM     15  C   UNL     1       3.508  -9.294   8.408  0.00  0.00    -0.017 C 
ATOM     16  C   UNL     1       2.868 -10.035   7.232  0.00  0.00    -0.082 C 
ENDBRANCH  13  16
BRANCH  13  17
ATOM     17  C   UNL     1       1.430 -11.271   8.738  0.00  0.00    -0.082 C 
ATOM     18  C   UNL     1       1.940 -12.659   8.347  0.00  0.00    -0.017 C 
ENDBRANCH  13  17
ENDBRANCH  12  13
ENDBRANCH   6  12
ENDBRANCH   5   9
ENDBRANCH   1   5
BRANCH   2  19
ATOM     19  C   UNL     1      -1.688  -2.970   2.244  0.00  0.00    +0.213 C 
BRANCH  19  20
ATOM     20  N   UNL     1      -1.810  -2.229   0.987  0.00  0.00    -0.215 N 
ATOM     21  C   UNL     1      -0.947  -1.272   0.584  0.00  0.00    +0.247 C 
ATOM     22  O   UNL     1      -0.038  -0.809   1.241  0.00  0.00    -0.273 OA
ATOM     23  C   UNL     1      -1.373  -0.896  -0.814  0.00  0.00    +0.113 C 
ATOM     24  C   UNL     1      -1.639   0.599  -0.914  0.00  0.00    +0.038 C 
ATOM     25  C   UNL     1      -0.316   1.367  -0.898  0.00  0.00    -0.011 C 
ATOM     26  C   UNL     1       0.501   0.954  -2.121  0.00  0.00    +0.009 C 
ATOM     27  C   UNL     1       0.831  -0.534  -2.080  0.00  0.00    -0.032 C 
ATOM     28  C   UNL     1      -0.400  -1.397  -1.862  0.00  0.00    +0.041 C 
ATOM     29  C   UNL     1       1.885  -0.811  -1.005  0.00  0.00    +0.011 C 
ATOM     30  C   UNL     1       1.449  -0.916  -3.442  0.00  0.00    +0.011 C 
ATOM     31  C   UNL     1      -0.603   2.870  -0.965  0.00  0.00    +0.007 C 
ATOM     32  N   UNL     1      -2.655  -1.618  -0.981  0.00  0.00    -0.285 N 
ATOM     33  C   UNL     1      -2.787  -2.415   0.093  0.00  0.00    +0.310 C 
ATOM     34  O   UNL     1      -3.692  -3.214   0.237  0.00  0.00    -0.252 OA
ATOM     35  H   UNL     1      -3.277  -1.435  -1.869  0.00  0.00    +0.151 HD
ENDBRANCH  19  20
ENDBRANCH   2  19
TORSDOF 8
