REMARK  Name = ZINC42013580
REMARK  2 active torsions:
REMARK  status: ('A' for Active; 'I' for Inactive)
REMARK    1  A    between atoms: C_4  and  C_7
REMARK    2  A    between atoms: C_11  and  C_13
REMARK                            x       y       z     vdW  Elec       q    Type
REMARK                         _______ _______ _______ _____ _____    ______ ____
ROOT
ATOM      1  C   UNL     1       3.696  -0.686  -0.038  0.00  0.00    +0.157 A 
ATOM      2  N   UNL     1       3.859  -2.029  -0.052  0.00  0.00    -0.258 N 
ATOM      3  H   UNL     1       3.158  -2.700  -0.053  0.00  0.00    +0.191 HD
ATOM      4  N   UNL     1       5.244  -2.261  -0.067  0.00  0.00    -0.152 NA
ATOM      5  C   UNL     1       5.829  -1.083  -0.060  0.00  0.00    +0.182 A 
ATOM      6  N   UNL     1       4.890  -0.131  -0.048  0.00  0.00    -0.207 NA
ENDROOT
BRANCH   5   7
ATOM      7  C   UNL     1       7.295  -0.848  -0.070  0.00  0.00    +0.026 A 
ATOM      8  C   UNL     1       7.791   0.453  -0.055  0.00  0.00    +0.012 A 
ATOM      9  C   UNL     1       9.154   0.673  -0.064  0.00  0.00    +0.003 A 
ATOM     10  C   UNL     1      10.027  -0.398  -0.090  0.00  0.00    +0.023 A 
ATOM     11  C   UNL     1       9.539  -1.700  -0.105  0.00  0.00    +0.031 A 
ATOM     12  C   UNL     1       8.174  -1.931  -0.087  0.00  0.00    -0.016 A 
ATOM     13  C   UNL     1       7.611  -3.328  -0.087  0.00  0.00    +0.039 C 
ATOM     14  C   UNL     1       8.648  -4.324  -0.606  0.00  0.00    +0.023 C 
ATOM     15  C   UNL     1       9.959  -4.121   0.166  0.00  0.00    +0.102 C 
ATOM     16  N   UNL     1      10.446  -2.766  -0.136  0.00  0.00    -0.344 N 
ATOM     17  H   UNL     1      11.382  -2.611  -0.342  0.00  0.00    +0.146 HD
ENDBRANCH   5   7
BRANCH   1  21
ATOM     18  C   UNL     1      -0.017   1.379   0.010  0.00  0.00    +0.000 A 
ATOM     19  C   UNL     1       1.168   2.093   0.002  0.00  0.00    +0.001 A 
ATOM     20  C   UNL     1       2.377   1.428  -0.013  0.00  0.00    +0.011 A 
ATOM     21  C   UNL     1       2.403   0.033  -0.021  0.00  0.00    +0.019 A 
ATOM     22  C   UNL     1       1.205  -0.680  -0.013  0.00  0.00    +0.011 A 
ATOM     23  C   UNL     1       0.002  -0.004   0.002  0.00  0.00    +0.001 A 
ENDBRANCH   1  21
TORSDOF 2
