REMARK  Name = ZINC20601629
REMARK  10 active torsions:
REMARK  status: ('A' for Active; 'I' for Inactive)
REMARK    1  A    between atoms: C_1  and  C_2
REMARK    2  A    between atoms: C_9  and  C_21
REMARK    3  A    between atoms: C_10  and  N_12
REMARK    4  A    between atoms: N_12  and  C_13
REMARK    5  A    between atoms: N_12  and  C_14
REMARK    6  A    between atoms: C_14  and  C_15
REMARK    7  A    between atoms: C_21  and  N_22
REMARK    8  A    between atoms: N_22  and  C_23
REMARK    9  A    between atoms: C_23  and  C_24
REMARK   10  A    between atoms: C_30  and  C_32
REMARK                            x       y       z     vdW  Elec       q    Type
REMARK                         _______ _______ _______ _____ _____    ______ ____
ROOT
ATOM      1  C   UNL     1       2.110  -0.386  -1.648  0.00  0.00    +0.044 C 
ATOM      2  C   UNL     1       1.776  -1.780  -1.184  0.00  0.00    -0.050 A 
ATOM      3  C   UNL     1       1.889  -2.846  -2.073  0.00  0.00    +0.005 A 
ATOM      4  C   UNL     1       1.595  -4.118  -1.685  0.00  0.00    +0.028 A 
ATOM      5  C   UNL     1       1.170  -4.365  -0.368  0.00  0.00    +0.073 A 
ATOM      6  C   UNL     1       1.056  -3.279   0.534  0.00  0.00    +0.001 A 
ATOM      7  C   UNL     1       1.372  -1.982   0.101  0.00  0.00    +0.013 A 
ATOM      8  C   UNL     1       0.631  -3.526   1.855  0.00  0.00    +0.018 A 
ATOM      9  C   UNL     1       0.344  -4.810   2.212  0.00  0.00    +0.010 A 
ATOM     10  C   UNL     1       0.477  -5.842   1.272  0.00  0.00    +0.127 A 
ATOM     11  N   UNL     1       0.875  -5.604   0.039  0.00  0.00    -0.232 NA
ENDROOT
BRANCH  10  12
ATOM     12  N   UNL     1       0.182  -7.143   1.650  0.00  0.00    -0.312 N 
ATOM     13  C   UNL     1       1.227  -7.994   2.224  0.00  0.00    +0.131 C 
BRANCH  12  14
ATOM     14  C   UNL     1      -1.175  -7.667   1.474  0.00  0.00    +0.160 C 
BRANCH  14  15
ATOM     15  C   UNL     1      -1.296  -8.302   0.113  0.00  0.00    +0.053 A 
ATOM     16  C   UNL     1      -1.760  -7.704  -1.008  0.00  0.00    +0.045 A 
ATOM     17  C   UNL     1      -1.706  -8.637  -2.049  0.00  0.00    +0.134 A 
ATOM     18  N   UNL     1      -1.227  -9.756  -1.569  0.00  0.00    -0.182 NA
ATOM     19  N   UNL     1      -0.955  -9.568  -0.208  0.00  0.00    -0.280 N 
ATOM     20  H   UNL     1      -0.589 -10.231   0.398  0.00  0.00    +0.189 HD
ENDBRANCH  14  15
ENDBRANCH  12  14
ENDBRANCH  10  12
BRANCH   9  21
ATOM     21  C   UNL     1      -0.114  -5.119   3.614  0.00  0.00    +0.146 C 
BRANCH  21  22
ATOM     22  N   UNL     1      -0.146  -3.884   4.401  0.00  0.00    -0.291 N 
ATOM     23  C   UNL     1       0.976  -3.436   4.999  0.00  0.00    +0.250 C 
ATOM     24  O   UNL     1       2.021  -4.040   4.859  0.00  0.00    -0.270 OA
BRANCH  23  25
ATOM     25  C   UNL     1       0.934  -2.212   5.825  0.00  0.00    +0.072 A 
ATOM     26  C   UNL     1      -0.231  -1.870   6.514  0.00  0.00    +0.016 A 
ATOM     27  C   UNL     1      -0.263  -0.726   7.283  0.00  0.00    +0.001 A 
ATOM     28  C   UNL     1       0.856   0.084   7.374  0.00  0.00    +0.003 A 
ATOM     29  C   UNL     1       2.014  -0.246   6.695  0.00  0.00    +0.039 A 
ATOM     30  C   UNL     1       2.063  -1.394   5.925  0.00  0.00    +0.135 A 
ATOM     31  F   UNL     1       3.197  -1.719   5.266  0.00  0.00    -0.205 F 
ENDBRANCH  23  25
BRANCH  22  32
ATOM     32  C   UNL     1      -1.398  -3.135   4.537  0.00  0.00    +0.140 C 
BRANCH  32  33
ATOM     33  C   UNL     1      -2.363  -3.914   5.433  0.00  0.00    +0.136 C 
ATOM     34  C   UNL     1      -3.708  -3.156   5.563  0.00  0.00    +0.035 C 
ATOM     35  C   UNL     1      -4.674  -4.324   5.901  0.00  0.00    +0.031 C 
ATOM     36  C   UNL     1      -4.070  -5.493   5.093  0.00  0.00    +0.160 C 
ATOM     37  O   UNL     1      -2.697  -5.174   4.829  0.00  0.00    -0.375 OA
ENDBRANCH  32  33
ENDBRANCH  22  32
ENDBRANCH  21  22
ENDBRANCH   9  21
TORSDOF 8
