REMARK  Name = ZINC33757812
REMARK  7 active torsions:
REMARK  status: ('A' for Active; 'I' for Inactive)
REMARK    1  A    between atoms: C_1  and  C_2
REMARK    2  A    between atoms: C_5  and  C_19
REMARK    3  A    between atoms: C_6  and  C_7
REMARK    4  A    between atoms: C_6  and  C_8
REMARK    5  A    between atoms: N_21  and  C_22
REMARK    6  A    between atoms: C_27  and  S_28
REMARK    7  A    between atoms: S_28  and  C_29
REMARK                            x       y       z     vdW  Elec       q    Type
REMARK                         _______ _______ _______ _____ _____    ______ ____
ROOT
ATOM      1  C   UNL     1       1.173   1.290  -1.217  0.00  0.00    +0.018 C 
ATOM      2  C   UNL     1       0.850  -0.162  -0.860  0.00  0.00    +0.018 C 
ATOM      3  C   UNL     1      -0.571  -0.427  -0.271  0.00  0.00    +0.015 C 
ATOM      4  C   UNL     1      -0.447  -1.814   0.404  0.00  0.00    +0.024 C 
ATOM      5  C   UNL     1       1.036  -2.230   0.146  0.00  0.00    +0.097 C 
ATOM      6  C   UNL     1       1.744  -0.830   0.248  0.00  0.00    -0.005 C 
ATOM      7  C   UNL     1       1.537  -0.193   1.624  0.00  0.00    +0.013 C 
ATOM      8  C   UNL     1       3.222  -0.875  -0.146  0.00  0.00    +0.013 C 
ATOM      9  C   UNL     1       1.109  -2.456  -1.366  0.00  0.00    +0.079 A 
ATOM     10  C   UNL     1       1.012  -1.187  -1.986  0.00  0.00    +0.071 A 
ATOM     11  N   UNL     1       1.047  -1.059  -3.286  0.00  0.00    -0.248 NA
ATOM     12  C   UNL     1       1.204  -2.147  -4.051  0.00  0.00    +0.090 A 
ATOM     13  C   UNL     1       1.248  -2.047  -5.453  0.00  0.00    +0.030 A 
ATOM     14  C   UNL     1       1.411  -3.169  -6.205  0.00  0.00    +0.002 A 
ATOM     15  C   UNL     1       1.535  -4.422  -5.606  0.00  0.00    +0.002 A 
ATOM     16  C   UNL     1       1.496  -4.558  -4.253  0.00  0.00    +0.030 A 
ATOM     17  C   UNL     1       1.329  -3.421  -3.442  0.00  0.00    +0.090 A 
ATOM     18  N   UNL     1       1.246  -3.540  -2.083  0.00  0.00    -0.247 NA
ENDROOT
BRANCH   5  19
ATOM     19  C   UNL     1       1.582  -3.326   1.025  0.00  0.00    +0.230 C 
ATOM     20  O   UNL     1       2.531  -3.108   1.748  0.00  0.00    -0.274 OA
ATOM     21  N   UNL     1       1.015  -4.549   1.008  0.00  0.00    -0.284 N 
ATOM     22  H   UNL     1       0.211  -4.703   0.487  0.00  0.00    +0.155 HD
BRANCH  21  23
ATOM     23  C   UNL     1       1.586  -5.596   1.742  0.00  0.00    +0.047 A 
ATOM     24  C   UNL     1       2.296  -5.326   2.902  0.00  0.00    +0.024 A 
ATOM     25  C   UNL     1       2.859  -6.362   3.625  0.00  0.00    +0.002 A 
ATOM     26  C   UNL     1       2.717  -7.668   3.195  0.00  0.00    +0.001 A 
ATOM     27  C   UNL     1       2.011  -7.947   2.040  0.00  0.00    +0.017 A 
ATOM     28  C   UNL     1       1.438  -6.915   1.311  0.00  0.00    +0.034 A 
BRANCH  28  29
ATOM     29  S   UNL     1       0.531  -7.268  -0.158  0.00  0.00    -0.088 S 
BRANCH  29  30
ATOM     30  C   UNL     1       0.571  -9.026  -0.272  0.00  0.00    +0.013 A 
ATOM     31  C   UNL     1      -0.369  -9.789   0.411  0.00  0.00    +0.015 A 
ATOM     32  C   UNL     1      -0.335 -11.166   0.320  0.00  0.00    +0.001 A 
ATOM     33  C   UNL     1       0.633 -11.787  -0.450  0.00  0.00    +0.000 A 
ATOM     34  C   UNL     1       1.569 -11.030  -1.131  0.00  0.00    +0.001 A 
ATOM     35  C   UNL     1       1.538  -9.652  -1.049  0.00  0.00    +0.015 A 
ENDBRANCH  29  30
ENDBRANCH  28  29
ENDBRANCH  21  23
ENDBRANCH   5  19
TORSDOF 4
