REMARK  Name = ZINC52071429
REMARK  7 active torsions:
REMARK  status: ('A' for Active; 'I' for Inactive)
REMARK    1  A    between atoms: C_1  and  C_2
REMARK    2  A    between atoms: C_2  and  N_3
REMARK    3  A    between atoms: N_3  and  C_4
REMARK    4  A    between atoms: N_3  and  C_15
REMARK    5  A    between atoms: C_4  and  C_5
REMARK    6  A    between atoms: C_8  and  C_10
REMARK    7  A    between atoms: C_15  and  C_16
REMARK                            x       y       z     vdW  Elec       q    Type
REMARK                         _______ _______ _______ _____ _____    ______ ____
ROOT
ATOM      1  C   UNL     1       0.440  -1.975  -1.437  0.00  0.00    -0.022 C 
ENDROOT
BRANCH   1   2
ATOM      2  C   UNL     1      -1.025  -2.319  -1.522  0.00  0.00    +0.033 A 
ATOM      3  C   UNL     1      -1.628  -2.430  -2.734  0.00  0.00    +0.068 A 
ATOM      4  S   UNL     1      -3.297  -2.837  -2.237  0.00  0.00    -0.075 S 
ATOM      5  C   UNL     1      -3.011  -2.815  -0.472  0.00  0.00    +0.115 A 
ATOM      6  N   UNL     1      -1.718  -2.516  -0.424  0.00  0.00    -0.245 NA
BRANCH   5   7
ATOM      7  C   UNL     1      -3.954  -3.066   0.629  0.00  0.00    +0.044 A 
ATOM      8  C   UNL     1      -5.287  -3.385   0.571  0.00  0.00    +0.018 A 
ATOM      9  C   UNL     1      -5.973  -3.575   1.749  0.00  0.00    +0.008 A 
ATOM     10  C   UNL     1      -5.312  -3.443   2.929  0.00  0.00    +0.046 A 
ATOM     11  S   UNL     1      -3.659  -3.041   2.390  0.00  0.00    -0.095 S 
ENDBRANCH   5   7
ENDBRANCH   1   2
BRANCH   1  12
ATOM     12  N   UNL     1       0.593  -0.526  -1.248  0.00  0.00    +0.383 N 
ATOM     13  H   UNL     1       0.107  -0.038  -1.986  0.00  0.00    -0.081 HD
BRANCH  12  15
ATOM     14  C   UNL     1       0.059   1.384   0.187  0.00  0.00    -0.017 C 
ATOM     15  C   UNL     1       0.027  -0.139   0.051  0.00  0.00    -0.082 C 
ENDBRANCH  12  15
BRANCH  12  16
ATOM     16  C   UNL     1       2.019  -0.176  -1.285  0.00  0.00    -0.073 C 
BRANCH  16  17
ATOM     17  C   UNL     1       2.573  -0.440  -2.687  0.00  0.00    +0.000 C 
ATOM     18  C   UNL     1       4.078  -0.083  -2.750  0.00  0.00    +0.032 C 
ATOM     19  C   UNL     1       4.192   0.599  -4.137  0.00  0.00    +0.160 C 
ATOM     20  O   UNL     1       2.958   1.339  -4.251  0.00  0.00    -0.380 OA
ATOM     21  C   UNL     1       1.915   0.503  -3.713  0.00  0.00    +0.161 C 
ENDBRANCH  16  17
ENDBRANCH  12  16
ENDBRANCH   1  12
TORSDOF 6
