REMARK  Name = ZINC35119477
REMARK  12 active torsions:
REMARK  status: ('A' for Active; 'I' for Inactive)
REMARK    1  A    between atoms: C_1  and  C_2
REMARK    2  A    between atoms: C_2  and  C_3
REMARK    3  A    between atoms: C_3  and  C_4
REMARK    4  A    between atoms: C_4  and  C_5
REMARK    5  A    between atoms: C_5  and  C_6
REMARK    6  A    between atoms: C_9  and  C_13
REMARK    7  A    between atoms: C_13  and  O_15
REMARK    8  A    between atoms: O_15  and  C_16
REMARK    9  A    between atoms: C_16  and  C_17
REMARK   10  A    between atoms: C_17  and  C_18
REMARK   11  A    between atoms: C_18  and  C_19
REMARK   12  A    between atoms: C_20  and  C_22
REMARK                            x       y       z     vdW  Elec       q    Type
REMARK                         _______ _______ _______ _____ _____    ______ ____
ROOT
ATOM      1  C   UNL     1       2.289  -3.632  -2.862  0.00  0.00    +0.135 C 
ATOM      2  N   UNL     1       2.419  -4.768  -3.794  0.00  0.00    -0.271 N 
ATOM      3  C   UNL     1       1.463  -4.805  -4.896  0.00  0.00    +0.196 C 
ATOM      4  C   UNL     1       1.060  -3.365  -5.329  0.00  0.00    +0.105 C 
ATOM      5  S   UNL     1       0.991  -2.586  -3.647  0.00  0.00    -0.136 S 
ATOM      6  C   UNL     1       3.365  -5.715  -3.637  0.00  0.00    +0.248 C 
ATOM      7  O   UNL     1       3.504  -6.580  -4.479  0.00  0.00    -0.270 OA
ENDROOT
BRANCH   6   8
ATOM      8  C   UNL     1       4.233  -5.702  -2.440  0.00  0.00    +0.040 A 
ATOM      9  C   UNL     1       3.698  -5.392  -1.189  0.00  0.00    +0.013 A 
ATOM     10  C   UNL     1       4.512  -5.381  -0.076  0.00  0.00    +0.004 A 
ATOM     11  C   UNL     1       5.858  -5.677  -0.196  0.00  0.00    +0.038 A 
ATOM     12  C   UNL     1       6.397  -5.985  -1.435  0.00  0.00    +0.124 A 
ATOM     13  C   UNL     1       5.590  -6.004  -2.556  0.00  0.00    +0.051 A 
ATOM     14  F   UNL     1       7.713  -6.272  -1.545  0.00  0.00    -0.205 F 
ENDBRANCH   6   8
BRANCH   3  15
ATOM     15  C   UNL     1       2.086  -5.518  -6.069  0.00  0.00    +0.329 C 
ATOM     16  O   UNL     1       3.261  -5.373  -6.309  0.00  0.00    -0.249 OA
BRANCH  15  17
ATOM     17  O   UNL     1       1.335  -6.312  -6.848  0.00  0.00    -0.463 OA
BRANCH  17  18
ATOM     18  C   UNL     1       1.962  -6.867  -8.006  0.00  0.00    +0.232 C 
BRANCH  18  19
ATOM     19  C   UNL     1       0.927  -7.636  -8.828  0.00  0.00    +0.041 C 
BRANCH  19  20
ATOM     20  C   UNL     1       1.599  -8.230 -10.068  0.00  0.00    -0.000 C 
ATOM     21  C   UNL     1       0.563  -9.000 -10.890  0.00  0.00    +0.004 C 
ENDBRANCH  19  20
ENDBRANCH  18  19
ENDBRANCH  17  18
ENDBRANCH  15  17
ENDBRANCH   3  15
BRANCH   1  22
ATOM     22  C   UNL     1       3.610  -2.866  -2.756  0.00  0.00    +0.033 C 
BRANCH  22  23
ATOM     23  C   UNL     1       3.428  -1.661  -1.831  0.00  0.00    +0.003 C 
BRANCH  23  24
ATOM     24  C   UNL     1       4.748  -0.895  -1.725  0.00  0.00    -0.000 C 
BRANCH  24  26
ATOM     25  C   UNL     1       5.886   1.076  -0.694  0.00  0.00    +0.004 C 
ATOM     26  C   UNL     1       4.566   0.310  -0.800  0.00  0.00    -0.003 C 
ENDBRANCH  24  26
ENDBRANCH  23  24
ENDBRANCH  22  23
ENDBRANCH   1  22
TORSDOF 10
