REMARK  Name = ZINC09627477
REMARK  13 active torsions:
REMARK  status: ('A' for Active; 'I' for Inactive)
REMARK    1  A    between atoms: C_1  and  C_2
REMARK    2  A    between atoms: C_4  and  C_32
REMARK    3  A    between atoms: C_5  and  S_9
REMARK    4  A    between atoms: C_6  and  C_8
REMARK    5  A    between atoms: S_9  and  N_12
REMARK    6  A    between atoms: C_15  and  C_18
REMARK    7  A    between atoms: C_18  and  O_20
REMARK    8  A    between atoms: O_20  and  C_21
REMARK    9  A    between atoms: C_21  and  C_22
REMARK   10  A    between atoms: N_27  and  C_28
REMARK   11  A    between atoms: C_28  and  C_29
REMARK   12  A    between atoms: C_29  and  C_30
REMARK   13  A    between atoms: C_29  and  C_31
REMARK                            x       y       z     vdW  Elec       q    Type
REMARK                         _______ _______ _______ _____ _____    ______ ____
ROOT
ATOM      1  N   UNL     1      -2.825   4.128  -2.247  0.00  0.00    -0.177 NA
ATOM      2  C   UNL     1      -2.262   5.289  -2.949  0.00  0.00    +0.110 C 
ATOM      3  C   UNL     1      -3.349   5.922  -3.816  0.00  0.00    +0.032 C 
ATOM      4  C   UNL     1      -3.946   4.857  -4.739  0.00  0.00    +0.100 C 
ATOM      5  C   UNL     1      -4.581   3.748  -3.898  0.00  0.00    +0.032 C 
ATOM      6  C   UNL     1      -3.502   3.088  -3.033  0.00  0.00    +0.110 C 
ENDROOT
BRANCH   1   7
ATOM      7  S   UNL     1      -2.704   3.996  -0.601  0.00  0.00    +0.061 S 
ATOM      8  O   UNL     1      -3.765   3.150  -0.182  0.00  0.00    -0.153 OA
ATOM      9  O   UNL     1      -2.538   5.316  -0.100  0.00  0.00    -0.153 OA
BRANCH   7  14
ATOM     10  C   UNL     1       2.425   1.044   0.579  0.00  0.00    +0.044 C 
ATOM     11  C   UNL     1       1.144   1.782   0.285  0.00  0.00    -0.050 A 
ATOM     12  C   UNL     1      -0.055   1.094   0.239  0.00  0.00    +0.008 A 
ATOM     13  C   UNL     1      -1.229   1.770  -0.036  0.00  0.00    -0.024 A 
ATOM     14  C   UNL     1      -1.206   3.134  -0.256  0.00  0.00    +0.111 A 
ATOM     15  C   UNL     1      -0.008   3.822  -0.209  0.00  0.00    -0.024 A 
ATOM     16  C   UNL     1       1.167   3.146   0.061  0.00  0.00    +0.008 A 
ATOM     17  C   UNL     1       0.018   5.309  -0.453  0.00  0.00    +0.046 C 
ATOM     18  C   UNL     1      -2.535   1.019  -0.092  0.00  0.00    +0.046 C 
ENDBRANCH   7  14
ENDBRANCH   1   7
BRANCH   4  19
ATOM     19  C   UNL     1      -4.997   5.487  -5.617  0.00  0.00    +0.311 C 
ATOM     20  O   UNL     1      -6.137   5.088  -5.574  0.00  0.00    -0.251 OA
BRANCH  19  21
ATOM     21  O   UNL     1      -4.667   6.489  -6.446  0.00  0.00    -0.455 OA
BRANCH  21  22
ATOM     22  C   UNL     1      -5.731   7.047  -7.262  0.00  0.00    +0.328 C 
BRANCH  22  23
ATOM     23  C   UNL     1      -5.176   8.153  -8.122  0.00  0.00    +0.258 C 
ATOM     24  O   UNL     1      -4.001   8.443  -8.055  0.00  0.00    -0.272 OA
ATOM     25  N   UNL     1      -5.987   8.821  -8.967  0.00  0.00    -0.237 N 
ATOM     26  C   UNL     1      -5.491   9.810  -9.737  0.00  0.00    +0.306 C 
ATOM     27  O   UNL     1      -4.313  10.100  -9.669  0.00  0.00    -0.252 OA
ATOM     28  N   UNL     1      -6.302  10.477 -10.581  0.00  0.00    -0.299 N 
ATOM     29  H   UNL     1      -6.927   8.589  -9.021  0.00  0.00    +0.159 HD
ATOM     30  H   UNL     1      -7.242  10.246 -10.635  0.00  0.00    +0.150 HD
BRANCH  28  31
ATOM     31  C   UNL     1      -5.763  11.553 -11.418  0.00  0.00    +0.108 C 
BRANCH  31  32
ATOM     32  C   UNL     1      -6.884  12.141 -12.277  0.00  0.00    -0.000 C 
ATOM     33  C   UNL     1      -7.921  12.812 -11.374  0.00  0.00    +0.009 C 
ATOM     34  C   UNL     1      -6.299  13.177 -13.239  0.00  0.00    +0.009 C 
ENDBRANCH  31  32
ENDBRANCH  28  31
ENDBRANCH  22  23
ENDBRANCH  21  22
ENDBRANCH  19  21
ENDBRANCH   4  19
TORSDOF 8
