REMARK  Name = ZINC21864088
REMARK  11 active torsions:
REMARK  status: ('A' for Active; 'I' for Inactive)
REMARK    1  A    between atoms: C_1  and  C_2
REMARK    2  A    between atoms: C_2  and  N_3
REMARK    3  A    between atoms: N_3  and  C_4
REMARK    4  A    between atoms: N_3  and  C_6
REMARK    5  A    between atoms: C_4  and  C_5
REMARK    6  A    between atoms: C_6  and  C_7
REMARK    7  A    between atoms: C_7  and  N_8
REMARK    8  A    between atoms: C_14  and  C_27
REMARK    9  A    between atoms: C_17  and  C_18
REMARK   10  A    between atoms: C_17  and  C_19
REMARK   11  A    between atoms: N_21  and  C_22
REMARK                            x       y       z     vdW  Elec       q    Type
REMARK                         _______ _______ _______ _____ _____    ______ ____
ROOT
ATOM      1  N   UNL     1      -6.022   4.978   0.100  0.00  0.00    -0.282 N 
ATOM      2  C   UNL     1      -5.399   6.025  -0.489  0.00  0.00    +0.264 C 
ATOM      3  O   UNL     1      -6.020   6.983  -0.912  0.00  0.00    -0.268 OA
ATOM      4  C   UNL     1      -3.940   5.937  -0.604  0.00  0.00    +0.105 A 
ATOM      5  C   UNL     1      -3.014   6.870  -0.979  0.00  0.00    +0.033 A 
ATOM      6  C   UNL     1      -1.761   6.260  -0.921  0.00  0.00    +0.032 A 
ATOM      7  C   UNL     1      -1.947   4.949  -0.509  0.00  0.00    +0.085 A 
ATOM      8  N   UNL     1      -3.275   4.746  -0.329  0.00  0.00    -0.331 N 
ATOM      9  C   UNL     1      -3.999   3.536   0.070  0.00  0.00    +0.157 C 
ATOM     10  C   UNL     1      -5.280   3.938   0.802  0.00  0.00    +0.128 C 
ATOM     11  C   UNL     1      -4.913   4.447   2.197  0.00  0.00    +0.043 C 
ENDROOT
BRANCH   7  12
ATOM     12  C   UNL     1      -0.888   3.950  -0.308  0.00  0.00    +0.151 A 
ATOM     13  C   UNL     1       0.454   4.176  -0.401  0.00  0.00    +0.051 A 
ATOM     14  C   UNL     1       1.090   2.949  -0.136  0.00  0.00    +0.042 A 
ATOM     15  C   UNL     1       0.119   2.043   0.104  0.00  0.00    +0.196 A 
ATOM     16  O   UNL     1      -1.073   2.650  -0.007  0.00  0.00    -0.461 OA
ENDBRANCH   7  12
BRANCH  10  17
ATOM     17  C   UNL     1      -6.161   2.724   0.944  0.00  0.00    +0.238 C 
ATOM     18  O   UNL     1      -6.274   2.178   2.021  0.00  0.00    -0.273 OA
ATOM     19  N   UNL     1      -6.825   2.244  -0.127  0.00  0.00    -0.311 N 
ATOM     20  H   UNL     1      -6.659   2.686  -1.120  0.00  0.00    +0.149 HD
BRANCH  19  21
ATOM     21  C   UNL     1      -7.767   1.134   0.033  0.00  0.00    +0.073 C 
ATOM     22  C   UNL     1      -7.010  -0.210   0.001  0.00  0.00    +0.022 C 
ATOM     23  C   UNL     1      -7.965  -1.165  -0.759  0.00  0.00    +0.002 C 
ATOM     24  C   UNL     1      -8.568  -0.248  -1.852  0.00  0.00    +0.002 C 
ATOM     25  C   UNL     1      -8.757   1.109  -1.145  0.00  0.00    +0.022 C 
ENDBRANCH  19  21
ENDBRANCH  10  17
BRANCH   1  26
ATOM     26  C   UNL     1      -7.483   4.891   0.038  0.00  0.00    +0.091 C 
BRANCH  26  27
ATOM     27  C   UNL     1      -8.086   5.526   1.293  0.00  0.00    -0.060 C 
BRANCH  27  28
ATOM     28  N   UNL     1      -9.546   5.374   1.266  0.00  0.00    +0.380 N 
ATOM     29  H   UNL     1      -9.895   5.632   0.255  0.00  0.00    -0.082 HD
BRANCH  28  31
ATOM     30  C   UNL     1      -9.555   3.618   2.972  0.00  0.00    -0.017 C 
ATOM     31  C   UNL     1      -9.936   3.984   1.537  0.00  0.00    -0.082 C 
ENDBRANCH  28  31
BRANCH  28  32
ATOM     32  C   UNL     1     -10.189   6.295   2.213  0.00  0.00    -0.082 C 
ATOM     33  C   UNL     1     -11.707   6.234   2.033  0.00  0.00    -0.017 C 
ENDBRANCH  28  32
ENDBRANCH  27  28
ENDBRANCH  26  27
ENDBRANCH   1  26
TORSDOF 8
