REMARK  Name = ZINC46842839
REMARK  8 active torsions:
REMARK  status: ('A' for Active; 'I' for Inactive)
REMARK    1  A    between atoms: C_1  and  C_2
REMARK    2  A    between atoms: C_4  and  N_27
REMARK    3  A    between atoms: C_6  and  C_7
REMARK    4  A    between atoms: N_9  and  C_10
REMARK    5  A    between atoms: C_10  and  C_11
REMARK    6  A    between atoms: C_19  and  C_26
REMARK    7  A    between atoms: C_22  and  C_25
REMARK    8  A    between atoms: C_28  and  C_30
REMARK                            x       y       z     vdW  Elec       q    Type
REMARK                         _______ _______ _______ _____ _____    ______ ____
ROOT
ATOM      1  C   UNL     1       0.061  -0.274   2.561  0.00  0.00    +0.251 C 
ATOM      2  O   UNL     1       0.031   0.920   2.800  0.00  0.00    -0.270 OA
ATOM      3  N   UNL     1       0.078  -1.164   3.573  0.00  0.00    -0.307 N 
ATOM      4  H   UNL     1       0.103  -2.115   3.382  0.00  0.00    +0.149 HD
ENDROOT
BRANCH   1  10
ATOM      5  C   UNL     1       0.029   1.509   0.013  0.00  0.00    +0.045 C 
ATOM      6  C   UNL     1       0.067   0.002   0.004  0.00  0.00    -0.029 A 
ATOM      7  C   UNL     1       0.098  -0.717  -1.163  0.00  0.00    +0.035 A 
ATOM      8  C   UNL     1       0.131  -2.090  -1.090  0.00  0.00    +0.073 A 
ATOM      9  S   UNL     1       0.122  -2.413   0.559  0.00  0.00    -0.069 S 
ATOM     10  C   UNL     1       0.080  -0.741   1.176  0.00  0.00    +0.078 A 
BRANCH   8  11
ATOM     11  N   UNL     1       0.165  -3.000  -2.138  0.00  0.00    -0.273 N 
ATOM     12  C   UNL     1       0.196  -4.323  -1.881  0.00  0.00    +0.284 C 
ATOM     13  O   UNL     1       0.194  -4.720  -0.730  0.00  0.00    -0.266 OA
ATOM     14  H   UNL     1       0.167  -2.684  -3.055  0.00  0.00    +0.156 HD
BRANCH  12  15
ATOM     15  C   UNL     1       0.232  -5.284  -2.987  0.00  0.00    +0.189 A 
ATOM     16  C   UNL     1       0.259  -6.644  -2.869  0.00  0.00    +0.054 A 
ATOM     17  C   UNL     1       0.287  -7.162  -4.173  0.00  0.00    +0.042 A 
ATOM     18  C   UNL     1       0.276  -6.109  -5.020  0.00  0.00    +0.196 A 
ATOM     19  O   UNL     1       0.237  -4.979  -4.302  0.00  0.00    -0.458 OA
ENDBRANCH  12  15
ENDBRANCH   8  11
ENDBRANCH   1  10
BRANCH   3  20
ATOM     20  C   UNL     1       0.060  -0.695   4.960  0.00  0.00    +0.141 C 
BRANCH  20  21
ATOM     21  C   UNL     1       0.085  -1.880   5.891  0.00  0.00    -0.014 A 
ATOM     22  C   UNL     1      -1.102  -2.465   6.314  0.00  0.00    +0.010 A 
ATOM     23  C   UNL     1      -1.036  -3.550   7.168  0.00  0.00    +0.042 A 
ATOM     24  C   UNL     1       0.211  -4.017   7.573  0.00  0.00    +0.099 A 
ATOM     25  N   UNL     1       1.320  -3.433   7.147  0.00  0.00    -0.349 N 
ATOM     26  C   UNL     1       1.287  -2.399   6.328  0.00  0.00    +0.089 A 
ATOM     27  N   UNL     1       0.293  -5.107   8.431  0.00  0.00    -0.312 N 
ATOM     28  C   UNL     1       1.593  -5.704   8.777  0.00  0.00    +0.137 C 
ATOM     29  C   UNL     1       1.680  -5.823  10.303  0.00  0.00    +0.133 C 
ATOM     30  O   UNL     1       0.520  -6.503  10.789  0.00  0.00    -0.371 OA
ATOM     31  C   UNL     1      -0.709  -5.818  10.536  0.00  0.00    +0.133 C 
ATOM     32  C   UNL     1      -0.918  -5.695   9.027  0.00  0.00    +0.137 C 
ATOM     33  C   UNL     1      -0.652  -4.421  11.157  0.00  0.00    +0.039 C 
ATOM     34  C   UNL     1       2.934  -6.613  10.683  0.00  0.00    +0.039 C 
ATOM     35  H   UNL     1       2.179  -3.775   7.442  0.00  0.00    +0.167 HD
ENDBRANCH  20  21
ENDBRANCH   3  20
TORSDOF 5
