REMARK  Name = ZINC39455698
REMARK  8 active torsions:
REMARK  status: ('A' for Active; 'I' for Inactive)
REMARK    1  A    between atoms: C_1  and  C_2
REMARK    2  A    between atoms: C_2  and  C_4
REMARK    3  A    between atoms: C_2  and  S_19
REMARK    4  A    between atoms: C_9  and  C_14
REMARK    5  A    between atoms: S_19  and  C_20
REMARK    6  A    between atoms: N_25  and  C_26
REMARK    7  A    between atoms: C_26  and  C_27
REMARK    8  A    between atoms: C_27  and  C_28
REMARK                            x       y       z     vdW  Elec       q    Type
REMARK                         _______ _______ _______ _____ _____    ______ ____
ROOT
ATOM      1  C   UNL     1      -0.019   1.526   0.010  0.00  0.00    +0.027 C 
ATOM      2  C   UNL     1       0.002  -0.004   0.002  0.00  0.00    +0.116 C 
ENDROOT
BRANCH   2   3
ATOM      3  C   UNL     1       0.731  -0.503   1.223  0.00  0.00    +0.137 C 
ATOM      4  N   UNL     1       0.064  -0.640   2.347  0.00  0.00    -0.160 NA
ATOM      5  C   UNL     1       0.647  -1.078   3.466  0.00  0.00    +0.272 C 
ATOM      6  O   UNL     1       0.006  -1.197   4.499  0.00  0.00    -0.268 OA
ATOM      7  C   UNL     1       2.096  -1.417   3.424  0.00  0.00    +0.078 C 
ATOM      8  C   UNL     1       2.881  -1.884   4.469  0.00  0.00    +0.020 C 
ATOM      9  C   UNL     1       4.336  -2.153   4.153  0.00  0.00    +0.115 C 
ATOM     10  S   UNL     1       4.407  -1.698   2.374  0.00  0.00    -0.100 S 
ATOM     11  C   UNL     1       2.708  -1.228   2.156  0.00  0.00    +0.112 C 
ATOM     12  N   UNL     1       2.017  -0.793   1.123  0.00  0.00    -0.226 NA
BRANCH   8  13
ATOM     13  C   UNL     1       2.354  -2.095   5.748  0.00  0.00    +0.132 A 
ATOM     14  C   UNL     1       2.244  -3.320   6.398  0.00  0.00    +0.049 A 
ATOM     15  C   UNL     1       1.666  -3.056   7.642  0.00  0.00    +0.042 A 
ATOM     16  C   UNL     1       1.447  -1.719   7.711  0.00  0.00    +0.195 A 
ATOM     17  O   UNL     1       1.866  -1.146   6.576  0.00  0.00    -0.463 OA
ENDBRANCH   8  13
ENDBRANCH   2   3
BRANCH   2  18
ATOM     18  S   UNL     1      -1.700  -0.632   0.015  0.00  0.00    -0.086 S 
BRANCH  18  19
ATOM     19  C   UNL     1      -2.365  -0.093  -1.525  0.00  0.00    +0.161 A 
ATOM     20  N   UNL     1      -1.787   0.599  -2.489  0.00  0.00    -0.133 NA
ATOM     21  N   UNL     1      -2.498   0.916  -3.623  0.00  0.00    -0.125 NA
ATOM     22  C   UNL     1      -3.752   0.527  -3.743  0.00  0.00    +0.182 A 
ATOM     23  S   UNL     1      -3.998  -0.345  -2.204  0.00  0.00    -0.025 S 
ATOM     24  N   UNL     1      -4.643   0.735  -4.789  0.00  0.00    -0.322 N 
ATOM     25  H   UNL     1      -5.545   0.384  -4.735  0.00  0.00    +0.148 HD
BRANCH  24  26
ATOM     26  C   UNL     1      -4.218   1.484  -5.975  0.00  0.00    +0.108 C 
BRANCH  26  27
ATOM     27  C   UNL     1      -5.379   1.568  -6.968  0.00  0.00    +0.061 C 
BRANCH  27  28
ATOM     28  C   UNL     1      -4.942   2.339  -8.187  0.00  0.00    -0.009 A 
ATOM     29  C   UNL     1      -4.380   1.879  -9.331  0.00  0.00    +0.011 A 
ATOM     30  C   UNL     1      -4.058   2.780 -10.329  0.00  0.00    +0.008 A 
ATOM     31  C   UNL     1      -4.315   4.096 -10.134  0.00  0.00    +0.045 A 
ATOM     32  S   UNL     1      -5.040   4.093  -8.503  0.00  0.00    -0.102 S 
ENDBRANCH  27  28
ENDBRANCH  26  27
ENDBRANCH  24  26
ENDBRANCH  18  19
ENDBRANCH   2  18
TORSDOF 7
