REMARK  Name = ZINC12891862
REMARK  8 active torsions:
REMARK  status: ('A' for Active; 'I' for Inactive)
REMARK    1  A    between atoms: C_4  and  C_7
REMARK    2  A    between atoms: C_8  and  N_17
REMARK    3  A    between atoms: C_10  and  S_12
REMARK    4  A    between atoms: S_12  and  C_13
REMARK    5  A    between atoms: C_13  and  C_14
REMARK    6  A    between atoms: C_18  and  C_20
REMARK    7  A    between atoms: C_23  and  S_26
REMARK    8  A    between atoms: S_26  and  N_29
REMARK                            x       y       z     vdW  Elec       q    Type
REMARK                         _______ _______ _______ _____ _____    ______ ____
ROOT
ATOM      1  N   UNL     1      -0.493   3.999   1.457  0.00  0.00    -0.274 N 
ATOM      2  C   UNL     1      -0.833   5.158   2.056  0.00  0.00    +0.249 C 
ATOM      3  O   UNL     1      -1.962   5.593   1.942  0.00  0.00    -0.270 OA
ATOM      4  H   UNL     1       0.408   3.652   1.549  0.00  0.00    +0.156 HD
ENDROOT
BRANCH   2   5
ATOM      5  C   UNL     1       0.168   5.899   2.853  0.00  0.00    +0.037 A 
ATOM      6  C   UNL     1       1.464   5.399   2.991  0.00  0.00    +0.015 A 
ATOM      7  C   UNL     1       2.394   6.099   3.732  0.00  0.00    +0.029 A 
ATOM      8  C   UNL     1       2.042   7.288   4.345  0.00  0.00    +0.106 A 
ATOM      9  C   UNL     1       0.757   7.786   4.217  0.00  0.00    +0.029 A 
ATOM     10  C   UNL     1      -0.181   7.099   3.475  0.00  0.00    +0.015 A 
BRANCH   8  11
ATOM     11  S   UNL     1       3.234   8.172   5.295  0.00  0.00    +0.061 S 
ATOM     12  O   UNL     1       4.511   7.778   4.811  0.00  0.00    -0.153 OA
ATOM     13  O   UNL     1       2.812   9.529   5.315  0.00  0.00    -0.153 OA
BRANCH  11  14
ATOM     14  N   UNL     1       3.127   7.620   6.852  0.00  0.00    -0.177 NA
ATOM     15  C   UNL     1       2.220   8.263   7.814  0.00  0.00    +0.109 C 
ATOM     16  C   UNL     1       1.311   7.185   8.424  0.00  0.00    +0.017 C 
ATOM     17  C   UNL     1       2.177   6.074   9.022  0.00  0.00    +0.003 C 
ATOM     18  C   UNL     1       3.016   5.428   7.918  0.00  0.00    +0.017 C 
ATOM     19  C   UNL     1       3.940   6.482   7.301  0.00  0.00    +0.109 C 
ENDBRANCH  11  14
ENDBRANCH   8  11
ENDBRANCH   2   5
BRANCH   1  21
ATOM     20  C   UNL     1      -1.307   2.117   0.020  0.00  0.00    +0.101 A 
ATOM     21  C   UNL     1      -1.436   3.300   0.706  0.00  0.00    +0.101 A 
ATOM     22  S   UNL     1      -3.147   3.696   0.369  0.00  0.00    -0.045 S 
ATOM     23  C   UNL     1      -3.518   2.268  -0.638  0.00  0.00    +0.137 A 
ATOM     24  N   UNL     1      -2.360   1.635  -0.641  0.00  0.00    -0.231 NA
BRANCH  20  28
ATOM     25  C   UNL     1       2.396   0.034  -0.021  0.00  0.00    +0.000 A 
ATOM     26  C   UNL     1       1.208  -0.675  -0.013  0.00  0.00    +0.001 A 
ATOM     27  C   UNL     1       0.002  -0.004   0.002  0.00  0.00    +0.010 A 
ATOM     28  C   UNL     1      -0.017   1.391   0.010  0.00  0.00    +0.003 A 
ATOM     29  C   UNL     1       1.185   2.099   0.002  0.00  0.00    +0.010 A 
ATOM     30  C   UNL     1       2.384   1.417  -0.014  0.00  0.00    +0.001 A 
ENDBRANCH  20  28
BRANCH  23  31
ATOM     31  S   UNL     1      -5.030   1.825  -1.426  0.00  0.00    -0.089 S 
BRANCH  31  32
ATOM     32  C   UNL     1      -6.068   3.218  -0.919  0.00  0.00    +0.171 C 
BRANCH  32  33
ATOM     33  C   UNL     1      -7.451   3.049  -1.494  0.00  0.00    +0.221 C 
ATOM     34  O   UNL     1      -7.709   2.082  -2.179  0.00  0.00    -0.275 OA
ATOM     35  N   UNL     1      -8.401   3.973  -1.247  0.00  0.00    -0.329 N 
ATOM     36  H   UNL     1      -8.194   4.747  -0.699  0.00  0.00    +0.145 HD
ATOM     37  H   UNL     1      -9.291   3.865  -1.617  0.00  0.00    +0.145 HD
ENDBRANCH  32  33
ENDBRANCH  31  32
ENDBRANCH  23  31
ENDBRANCH   1  21
TORSDOF 8
