REMARK  Name = ZINC12342947
REMARK  4 active torsions:
REMARK  status: ('A' for Active; 'I' for Inactive)
REMARK    1  A    between atoms: C_1  and  C_2
REMARK    2  A    between atoms: C_2  and  C_5
REMARK    3  A    between atoms: N_3  and  N_4
REMARK    4  A    between atoms: N_16  and  N_17
REMARK                            x       y       z     vdW  Elec       q    Type
REMARK                         _______ _______ _______ _____ _____    ______ ____
ROOT
ATOM      1  C   UNL     1      -1.240   1.754   0.018  0.00  0.00    -0.002 A 
ATOM      2  C   UNL     1      -0.013   1.076   0.008  0.00  0.00    +0.012 A 
ATOM      3  C   UNL     1       1.163   1.768   0.000  0.00  0.00    +0.027 A 
ATOM      4  C   UNL     1       1.162   3.159   0.007  0.00  0.00    +0.047 A 
ATOM      5  C   UNL     1      -0.066   3.857   0.022  0.00  0.00    +0.004 A 
ATOM      6  C   UNL     1      -1.268   3.144   0.031  0.00  0.00    +0.020 A 
ATOM      7  C   UNL     1       0.271   5.271   0.025  0.00  0.00    -0.013 A 
ATOM      8  C   UNL     1       1.637   5.355   0.010  0.00  0.00    +0.066 A 
ATOM      9  N   UNL     1       2.176   4.098   0.002  0.00  0.00    -0.353 N 
ATOM     10  H   UNL     1       3.124   3.896  -0.007  0.00  0.00    +0.166 HD
ATOM     11  C   UNL     1       2.321   6.664   0.004  0.00  0.00    +0.082 C 
ATOM     12  N   UNL     1       3.599   6.782   0.213  0.00  0.00    -0.192 NA
ATOM     13  C   UNL     1       1.427   7.864  -0.263  0.00  0.00    +0.059 C 
ATOM     14  C   UNL     1       0.133   7.690   0.539  0.00  0.00    +0.011 C 
ATOM     15  C   UNL     1      -0.642   6.466   0.042  0.00  0.00    +0.038 C 
ENDROOT
BRANCH   1  17
ATOM     16  C   UNL     1      -2.473  -0.516   0.012  0.00  0.00    +0.068 C 
ATOM     17  C   UNL     1      -2.503   0.991   0.020  0.00  0.00    +0.063 C 
ATOM     18  N   UNL     1      -3.639   1.618   0.029  0.00  0.00    -0.194 NA
BRANCH  18  19
ATOM     19  N   UNL     1      -4.838   0.893   0.031  0.00  0.00    -0.282 N 
ATOM     20  H   UNL     1      -5.687   1.362   0.038  0.00  0.00    +0.164 HD
ATOM     21  H   UNL     1      -4.819  -0.076   0.026  0.00  0.00    +0.164 HD
ENDBRANCH  18  19
ENDBRANCH   1  17
BRANCH  12  22
ATOM     22  N   UNL     1       4.198   8.048   0.196  0.00  0.00    -0.282 N 
ATOM     23  H   UNL     1       3.659   8.837   0.029  0.00  0.00    +0.164 HD
ATOM     24  H   UNL     1       5.151   8.136   0.352  0.00  0.00    +0.164 HD
ENDBRANCH  12  22
TORSDOF 3
