REMARK  Name = ZINC00933136
REMARK  16 active torsions:
REMARK  status: ('A' for Active; 'I' for Inactive)
REMARK    1  A    between atoms: C_1  and  C_2
REMARK    2  A    between atoms: C_2  and  C_3
REMARK    3  A    between atoms: C_3  and  C_5
REMARK    4  A    between atoms: C_3  and  N_6
REMARK    5  A    between atoms: N_6  and  S_7
REMARK    6  A    between atoms: S_7  and  C_10
REMARK    7  A    between atoms: C_13  and  S_16
REMARK    8  A    between atoms: S_16  and  N_19
REMARK    9  A    between atoms: N_19  and  C_20
REMARK   10  A    between atoms: N_19  and  C_31
REMARK   11  A    between atoms: C_20  and  C_21
REMARK   12  A    between atoms: C_24  and  C_27
REMARK   13  A    between atoms: C_27  and  C_28
REMARK   14  A    between atoms: C_27  and  C_29
REMARK   15  A    between atoms: C_27  and  C_30
REMARK   16  A    between atoms: C_31  and  C_32
REMARK                            x       y       z     vdW  Elec       q    Type
REMARK                         _______ _______ _______ _____ _____    ______ ____
ROOT
ATOM      1  S   UNL     1      -0.398  -2.962  -2.037  0.00  0.00    +0.062 S 
ATOM      2  O   UNL     1      -1.317  -2.083  -1.403  0.00  0.00    -0.153 OA
ATOM      3  O   UNL     1      -0.213  -2.985  -3.445  0.00  0.00    -0.153 OA
ENDROOT
BRANCH   1   7
ATOM      4  C   UNL     1      -1.575  -7.160  -0.819  0.00  0.00    +0.105 A 
ATOM      5  C   UNL     1      -1.810  -6.101   0.037  0.00  0.00    +0.030 A 
ATOM      6  C   UNL     1      -1.451  -4.819  -0.335  0.00  0.00    +0.030 A 
ATOM      7  C   UNL     1      -0.856  -4.596  -1.563  0.00  0.00    +0.106 A 
ATOM      8  C   UNL     1      -0.625  -5.655  -2.421  0.00  0.00    +0.030 A 
ATOM      9  C   UNL     1      -0.980  -6.938  -2.047  0.00  0.00    +0.030 A 
BRANCH   4  10
ATOM     10  S   UNL     1      -2.031  -8.795  -0.344  0.00  0.00    +0.059 S 
ATOM     11  O   UNL     1      -1.208  -9.680  -1.092  0.00  0.00    -0.153 OA
ATOM     12  O   UNL     1      -2.072  -8.809   1.076  0.00  0.00    -0.153 OA
BRANCH  10  13
ATOM     13  N   UNL     1      -3.584  -9.040  -0.864  0.00  0.00    -0.187 NA
ATOM     14  H   UNL     1      -4.296  -9.174  -0.220  0.00  0.00    +0.148 HD
BRANCH  13  15
ATOM     15  C   UNL     1      -3.883  -9.054  -2.299  0.00  0.00    +0.073 C 
ATOM     16  C   UNL     1      -3.873 -10.497  -2.807  0.00  0.00    +0.025 C 
BRANCH  15  18
ATOM     17  C   UNL     1      -5.237  -6.960  -2.145  0.00  0.00    +0.005 C 
ATOM     18  C   UNL     1      -5.263  -8.438  -2.539  0.00  0.00    +0.017 C 
ENDBRANCH  15  18
ENDBRANCH  13  15
ENDBRANCH  10  13
ENDBRANCH   4  10
ENDBRANCH   1   7
BRANCH   1  19
ATOM     19  N   UNL     1       1.087  -2.657  -1.369  0.00  0.00    -0.165 NA
BRANCH  19  20
ATOM     20  C   UNL     1       1.184  -2.185   0.014  0.00  0.00    +0.145 C 
BRANCH  20  21
ATOM     21  C   UNL     1       1.349  -0.687   0.023  0.00  0.00    -0.032 A 
ATOM     22  C   UNL     1       0.234   0.131   0.003  0.00  0.00    +0.005 A 
ATOM     23  C   UNL     1       0.385   1.505   0.012  0.00  0.00    +0.004 A 
ATOM     24  C   UNL     1       1.650   2.061   0.042  0.00  0.00    -0.042 A 
ATOM     25  C   UNL     1       2.765   1.244   0.062  0.00  0.00    +0.004 A 
ATOM     26  C   UNL     1       2.614  -0.130   0.053  0.00  0.00    +0.005 A 
BRANCH  24  27
ATOM     27  C   UNL     1       1.815   3.559   0.052  0.00  0.00    -0.013 C 
ATOM     28  C   UNL     1       1.126   4.140   1.288  0.00  0.00    +0.015 C 
ATOM     29  C   UNL     1       3.304   3.909   0.086  0.00  0.00    +0.015 C 
ATOM     30  C   UNL     1       1.181   4.150  -1.209  0.00  0.00    +0.015 C 
ENDBRANCH  24  27
ENDBRANCH  20  21
ENDBRANCH  19  20
BRANCH  19  31
ATOM     31  C   UNL     1       2.302  -2.858  -2.162  0.00  0.00    +0.184 C 
BRANCH  31  32
ATOM     32  C   UNL     1       2.860  -4.231  -1.886  0.00  0.00    +0.120 A 
ATOM     33  C   UNL     1       2.552  -5.355  -2.557  0.00  0.00    +0.046 A 
ATOM     34  C   UNL     1       3.299  -6.401  -1.968  0.00  0.00    +0.041 A 
ATOM     35  C   UNL     1       4.020  -5.853  -0.973  0.00  0.00    +0.195 A 
ATOM     36  O   UNL     1       3.754  -4.537  -0.931  0.00  0.00    -0.466 OA
ENDBRANCH  31  32
ENDBRANCH  19  31
ENDBRANCH   1  19
TORSDOF 11
