REMARK  Name = ZINC39639384
REMARK  6 active torsions:
REMARK  status: ('A' for Active; 'I' for Inactive)
REMARK    1  A    between atoms: C_1  and  C_2
REMARK    2  A    between atoms: C_5  and  C_8
REMARK    3  A    between atoms: C_8  and  C_10
REMARK    4  A    between atoms: C_8  and  N_11
REMARK    5  A    between atoms: C_12  and  C_14
REMARK    6  A    between atoms: C_25  and  C_27
REMARK                            x       y       z     vdW  Elec       q    Type
REMARK                         _______ _______ _______ _____ _____    ______ ____
ROOT
ATOM      1  C   UNL     1       2.510  -6.466   2.063  0.00  0.00    +0.100 C 
ATOM      2  C   UNL     1       1.745  -6.496   3.406  0.00  0.00    +0.121 C 
ATOM      3  N   UNL     1       1.249  -7.887   3.523  0.00  0.00    -0.297 N 
ATOM      4  C   UNL     1       2.362  -8.720   3.007  0.00  0.00    +0.115 C 
ATOM      5  C   UNL     1       2.915  -7.927   1.807  0.00  0.00    -0.004 C 
ATOM      6  C   UNL     1       2.289  -8.429   0.509  0.00  0.00    -0.010 C 
ATOM      7  C   UNL     1       2.752  -9.864   0.247  0.00  0.00    -0.082 C 
ATOM      8  N   UNL     1       4.216  -9.898   0.152  0.00  0.00    +0.379 N 
ATOM      9  C   UNL     1       4.811  -9.502   1.434  0.00  0.00    -0.082 C 
ATOM     10  C   UNL     1       4.434  -8.051   1.747  0.00  0.00    -0.010 C 
ATOM     11  C   UNL     1       0.056  -8.302   3.993  0.00  0.00    +0.260 C 
ATOM     12  O   UNL     1      -0.794  -7.490   4.291  0.00  0.00    -0.271 OA
ATOM     13  H   UNL     1       4.516 -10.833  -0.082  0.00  0.00    -0.086 HD
ATOM     14  H   UNL     1       4.520  -9.261  -0.570  0.00  0.00    -0.086 HD
ENDROOT
BRANCH  11  15
ATOM     15  C   UNL     1      -0.223  -9.775   4.147  0.00  0.00    +0.296 C 
ATOM     16  C   UNL     1       0.638 -10.348   5.281  0.00  0.00    +0.283 C 
ATOM     17  O   UNL     1       0.339 -11.743   5.409  0.00  0.00    -0.484 OA
ATOM     18  C   UNL     1      -0.978 -12.088   5.412  0.00  0.00    +0.162 A 
ATOM     19  C   UNL     1      -1.353 -13.336   5.887  0.00  0.00    +0.049 A 
ATOM     20  C   UNL     1      -2.686 -13.702   5.894  0.00  0.00    +0.004 A 
ATOM     21  C   UNL     1      -3.648 -12.826   5.428  0.00  0.00    +0.004 A 
ATOM     22  C   UNL     1      -3.281 -11.580   4.954  0.00  0.00    +0.049 A 
ATOM     23  C   UNL     1      -1.945 -11.206   4.946  0.00  0.00    +0.163 A 
ATOM     24  O   UNL     1      -1.600  -9.973   4.484  0.00  0.00    -0.473 OA
ENDBRANCH  11  15
BRANCH   1  26
ATOM     25  N   UNL     1       2.137  -5.302  -0.087  0.00  0.00    -0.308 N 
ATOM     26  C   UNL     1       1.612  -5.969   0.960  0.00  0.00    +0.219 C 
ATOM     27  O   UNL     1       0.417  -6.169   1.014  0.00  0.00    -0.275 OA
ATOM     28  H   UNL     1       3.092  -5.142  -0.130  0.00  0.00    +0.149 HD
BRANCH  25  29
ATOM     29  C   UNL     1       1.264  -4.819  -1.160  0.00  0.00    +0.100 C 
ATOM     30  C   UNL     1       0.684  -3.457  -0.772  0.00  0.00    +0.033 C 
BRANCH  29  35
ATOM     31  C   UNL     1       4.317  -4.288  -6.038  0.00  0.00    +0.044 C 
ATOM     32  C   UNL     1       3.521  -4.427  -4.766  0.00  0.00    -0.050 A 
ATOM     33  C   UNL     1       2.232  -4.926  -4.807  0.00  0.00    +0.004 A 
ATOM     34  C   UNL     1       1.502  -5.053  -3.641  0.00  0.00    +0.006 A 
ATOM     35  C   UNL     1       2.060  -4.681  -2.432  0.00  0.00    -0.027 A 
ATOM     36  C   UNL     1       3.349  -4.183  -2.390  0.00  0.00    +0.006 A 
ATOM     37  C   UNL     1       4.081  -4.060  -3.556  0.00  0.00    +0.004 A 
ENDBRANCH  29  35
ENDBRANCH  25  29
ENDBRANCH   1  26
TORSDOF 4
