REMARK  Name = ZINC61431276
REMARK  3 active torsions:
REMARK  status: ('A' for Active; 'I' for Inactive)
REMARK    1  A    between atoms: C_8  and  C_11
REMARK    2  A    between atoms: N_13  and  N_14
REMARK    3  A    between atoms: N_17  and  C_18
REMARK                            x       y       z     vdW  Elec       q    Type
REMARK                         _______ _______ _______ _____ _____    ______ ____
ROOT
ATOM      1  C   UNL     1      -0.557  -4.111  -0.016  0.00  0.00    +0.268 C 
ATOM      2  O   UNL     1       0.307  -4.967  -0.029  0.00  0.00    -0.268 OA
ATOM      3  N   UNL     1      -1.857  -4.466  -0.007  0.00  0.00    -0.229 N 
ATOM      4  H   UNL     1      -2.546  -3.783   0.003  0.00  0.00    +0.173 HD
ENDROOT
BRANCH   1  12
ATOM      5  C   UNL     1      -0.017   1.374   0.010  0.00  0.00    +0.035 A 
ATOM      6  C   UNL     1       1.176   2.072   0.002  0.00  0.00    +0.043 A 
ATOM      7  C   UNL     1       2.378   1.373  -0.013  0.00  0.00    +0.040 A 
ATOM      8  C   UNL     1       2.411   0.014  -0.021  0.00  0.00    +0.052 A 
ATOM      9  C   UNL     1       1.210  -0.742  -0.013  0.00  0.00    +0.027 A 
ATOM     10  C   UNL     1       0.002  -0.004   0.002  0.00  0.00    +0.024 A 
ATOM     11  S   UNL     1      -1.251  -1.261   0.007  0.00  0.00    -0.082 S 
ATOM     12  C   UNL     1      -0.184  -2.691  -0.011  0.00  0.00    +0.095 A 
ATOM     13  C   UNL     1       1.061  -2.141  -0.020  0.00  0.00    +0.069 A 
ATOM     14 CL   UNL     1       2.463  -3.164  -0.039  0.00  0.00    -0.082 Cl
ATOM     15 CL   UNL     1       3.941  -0.807  -0.041  0.00  0.00    -0.083 Cl
ATOM     16 CL   UNL     1       1.174   3.808   0.011  0.00  0.00    -0.083 Cl
ENDBRANCH   1  12
BRANCH   3  17
ATOM     17  N   UNL     1      -2.213  -5.821  -0.012  0.00  0.00    -0.218 N 
ATOM     18  C   UNL     1      -3.513  -6.176  -0.003  0.00  0.00    +0.316 C 
ATOM     19  O   UNL     1      -3.822  -7.352  -0.007  0.00  0.00    -0.251 OA
ATOM     20  N   UNL     1      -4.471  -5.228   0.011  0.00  0.00    -0.295 N 
ATOM     21  H   UNL     1      -1.524  -6.503  -0.022  0.00  0.00    +0.174 HD
ATOM     22  H   UNL     1      -4.224  -4.290   0.014  0.00  0.00    +0.151 HD
BRANCH  20  23
ATOM     23  C   UNL     1      -5.884  -5.614   0.021  0.00  0.00    +0.075 C 
ATOM     24  C   UNL     1      -6.832  -4.847  -0.903  0.00  0.00    +0.024 C 
ATOM     25  C   UNL     1      -6.885  -4.617   0.609  0.00  0.00    +0.024 C 
ENDBRANCH  20  23
ENDBRANCH   3  17
TORSDOF 3
