REMARK  Name = ZINC39689085
REMARK  8 active torsions:
REMARK  status: ('A' for Active; 'I' for Inactive)
REMARK    1  A    between atoms: C_1  and  C_2
REMARK    2  A    between atoms: C_2  and  C_3
REMARK    3  A    between atoms: C_3  and  C_4
REMARK    4  A    between atoms: C_4  and  C_5
REMARK    5  A    between atoms: C_9  and  C_18
REMARK    6  A    between atoms: N_20  and  C_21
REMARK    7  A    between atoms: C_21  and  C_22
REMARK    8  A    between atoms: N_25  and  C_28
REMARK                            x       y       z     vdW  Elec       q    Type
REMARK                         _______ _______ _______ _____ _____    ______ ____
ROOT
ATOM      1  C   UNL     1       1.398  -2.550  -2.193  0.00  0.00    +0.216 C 
ATOM      2  O   UNL     1       1.837  -1.679  -2.914  0.00  0.00    -0.276 OA
ATOM      3  N   UNL     1       1.555  -3.846  -2.528  0.00  0.00    -0.300 N 
ATOM      4  C   UNL     1       1.087  -5.040  -1.785  0.00  0.00    +0.121 C 
ATOM      5  C   UNL     1       0.600  -6.015  -2.880  0.00  0.00    +0.100 C 
ATOM      6  C   UNL     1       1.358  -5.591  -4.149  0.00  0.00    -0.004 C 
ATOM      7  C   UNL     1       2.229  -4.399  -3.727  0.00  0.00    +0.115 C 
ATOM      8  C   UNL     1       0.374  -5.159  -5.232  0.00  0.00    -0.010 C 
ATOM      9  C   UNL     1       1.148  -4.797  -6.503  0.00  0.00    -0.082 C 
ATOM     10  N   UNL     1       1.925  -5.958  -6.953  0.00  0.00    +0.379 N 
ATOM     11  C   UNL     1       2.931  -6.309  -5.944  0.00  0.00    -0.082 C 
ATOM     12  C   UNL     1       2.233  -6.736  -4.650  0.00  0.00    -0.010 C 
ATOM     13  H   UNL     1       1.304  -6.742  -7.094  0.00  0.00    -0.086 HD
ATOM     14  H   UNL     1       2.385  -5.737  -7.823  0.00  0.00    -0.086 HD
ENDROOT
BRANCH   5  15
ATOM     15  C   UNL     1      -0.887  -5.875  -3.082  0.00  0.00    +0.218 C 
ATOM     16  O   UNL     1      -1.428  -4.807  -2.888  0.00  0.00    -0.275 OA
ATOM     17  N   UNL     1      -1.616  -6.938  -3.479  0.00  0.00    -0.315 N 
ATOM     18  H   UNL     1      -1.183  -7.792  -3.634  0.00  0.00    +0.149 HD
BRANCH  17  19
ATOM     19  C   UNL     1      -3.061  -6.802  -3.675  0.00  0.00    +0.107 C 
BRANCH  19  20
ATOM     20  C   UNL     1      -3.643  -8.144  -4.122  0.00  0.00    +0.003 C 
ATOM     21  C   UNL     1      -3.088  -8.509  -5.502  0.00  0.00    -0.014 C 
ATOM     22  C   UNL     1      -3.735  -9.813  -5.977  0.00  0.00    -0.078 C 
ATOM     23  N   UNL     1      -5.189  -9.638  -6.064  0.00  0.00    +0.382 N 
ATOM     24  C   UNL     1      -5.738  -9.359  -4.731  0.00  0.00    -0.078 C 
ATOM     25  C   UNL     1      -5.168  -8.038  -4.208  0.00  0.00    -0.014 C 
ATOM     26  H   UNL     1      -5.399  -8.868  -6.681  0.00  0.00    -0.081 HD
BRANCH  23  27
ATOM     27  C   UNL     1      -5.798 -10.866  -6.594  0.00  0.00    -0.069 C 
ATOM     28  C   UNL     1      -5.292 -11.130  -8.027  0.00  0.00    -0.015 C 
ATOM     29  C   UNL     1      -6.527 -11.700  -8.767  0.00  0.00    -0.002 C 
ATOM     30  C   UNL     1      -7.692 -10.867  -8.179  0.00  0.00    -0.002 C 
ATOM     31  C   UNL     1      -7.324 -10.699  -6.691  0.00  0.00    -0.015 C 
ENDBRANCH  23  27
ENDBRANCH  19  20
ENDBRANCH  17  19
ENDBRANCH   5  15
BRANCH   1  32
ATOM     32  C   UNL     1       0.677  -2.183  -0.921  0.00  0.00    +0.096 C 
BRANCH  32  33
ATOM     33  C   UNL     1       0.638  -0.660  -0.779  0.00  0.00    +0.009 C 
BRANCH  33  35
ATOM     34  C   UNL     1      -0.134   1.236   0.654  0.00  0.00    +0.004 C 
ATOM     35  C   UNL     1      -0.094  -0.287   0.512  0.00  0.00    -0.003 C 
ENDBRANCH  33  35
ENDBRANCH  32  33
ENDBRANCH   1  32
TORSDOF 7
