REMARK  Name = ZINC40010990
REMARK  13 active torsions:
REMARK  status: ('A' for Active; 'I' for Inactive)
REMARK    1  A    between atoms: C_1  and  O_2
REMARK    2  A    between atoms: O_2  and  C_3
REMARK    3  A    between atoms: C_3  and  C_4
REMARK    4  A    between atoms: C_4  and  N_5
REMARK    5  A    between atoms: N_5  and  C_6
REMARK    6  A    between atoms: C_6  and  N_8
REMARK    7  A    between atoms: C_13  and  O_35
REMARK    8  A    between atoms: C_14  and  O_33
REMARK    9  A    between atoms: C_17  and  C_19
REMARK   10  A    between atoms: C_24  and  O_31
REMARK   11  A    between atoms: O_31  and  C_32
REMARK   12  A    between atoms: O_33  and  C_34
REMARK   13  A    between atoms: O_35  and  C_36
REMARK                            x       y       z     vdW  Elec       q    Type
REMARK                         _______ _______ _______ _____ _____    ______ ____
ROOT
ATOM      1  N   UNL     1      -2.374  -4.288  -1.252  0.00  0.00    -0.304 N 
ATOM      2  C   UNL     1      -3.501  -3.388  -1.544  0.00  0.00    +0.112 C 
ATOM      3  C   UNL     1      -4.022  -3.727  -2.940  0.00  0.00    +0.054 C 
ATOM      4  C   UNL     1      -4.203  -5.214  -3.099  0.00  0.00    -0.037 A 
ATOM      5  C   UNL     1      -5.048  -5.654  -4.111  0.00  0.00    +0.053 A 
ATOM      6  C   UNL     1      -5.253  -7.005  -4.320  0.00  0.00    +0.162 A 
ATOM      7  C   UNL     1      -4.605  -7.933  -3.510  0.00  0.00    +0.162 A 
ATOM      8  C   UNL     1      -3.767  -7.492  -2.502  0.00  0.00    +0.055 A 
ATOM      9  C   UNL     1      -3.570  -6.133  -2.292  0.00  0.00    -0.019 A 
ATOM     10  C   UNL     1      -2.663  -5.724  -1.164  0.00  0.00    +0.121 C 
ENDROOT
BRANCH  10  11
ATOM     11  C   UNL     1      -3.350  -6.024   0.170  0.00  0.00    +0.123 C 
ATOM     12  C   UNL     1      -4.746  -5.434   0.117  0.00  0.00    -0.002 C 
ATOM     13  C   UNL     1      -5.075  -4.520   1.074  0.00  0.00    -0.003 A 
ATOM     14  C   UNL     1      -6.401  -3.901   1.095  0.00  0.00    +0.055 A 
ATOM     15  C   UNL     1      -6.685  -2.993   2.070  0.00  0.00    +0.121 A 
ATOM     16  C   UNL     1      -5.737  -2.647   3.041  0.00  0.00    +0.047 A 
ATOM     17  C   UNL     1      -4.492  -3.188   3.071  0.00  0.00    +0.027 A 
ATOM     18  C   UNL     1      -4.099  -4.136   2.108  0.00  0.00    +0.041 A 
ATOM     19  N   UNL     1      -2.873  -4.658   2.151  0.00  0.00    -0.284 N 
ATOM     20  C   UNL     1      -2.438  -5.550   1.279  0.00  0.00    +0.226 C 
ATOM     21  O   UNL     1      -1.308  -5.991   1.369  0.00  0.00    -0.275 OA
ATOM     22  H   UNL     1      -2.272  -4.368   2.855  0.00  0.00    +0.155 HD
BRANCH  15  23
ATOM     23  O   UNL     1      -7.913  -2.411   2.101  0.00  0.00    -0.495 OA
ATOM     24  C   UNL     1      -8.158  -1.466   3.144  0.00  0.00    +0.277 C 
ENDBRANCH  15  23
ENDBRANCH  10  11
BRANCH   1  25
ATOM     25  C   UNL     1      -1.125  -3.813  -1.077  0.00  0.00    +0.133 C 
ATOM     26  S   UNL     1      -0.846  -2.124  -1.057  0.00  0.00    -0.019 S 
BRANCH  25  27
ATOM     27  N   UNL     1      -0.095  -4.668  -0.918  0.00  0.00    -0.324 N 
ATOM     28  H   UNL     1      -0.261  -5.622  -0.855  0.00  0.00    +0.148 HD
BRANCH  27  29
ATOM     29  C   UNL     1       1.276  -4.157  -0.839  0.00  0.00    +0.131 C 
BRANCH  29  30
ATOM     30  C   UNL     1       2.247  -5.326  -0.660  0.00  0.00    +0.178 C 
BRANCH  30  32
ATOM     31  C   UNL     1       3.094  -7.279  -1.760  0.00  0.00    +0.194 C 
ATOM     32  O   UNL     1       2.218  -6.152  -1.825  0.00  0.00    -0.381 OA
ENDBRANCH  30  32
ENDBRANCH  29  30
ENDBRANCH  27  29
ENDBRANCH  25  27
ENDBRANCH   1  25
BRANCH   7  33
ATOM     33  O   UNL     1      -4.794  -9.265  -3.708  0.00  0.00    -0.491 OA
ATOM     34  C   UNL     1      -4.095 -10.157  -2.837  0.00  0.00    +0.277 C 
ENDBRANCH   7  33
BRANCH   6  35
ATOM     35  O   UNL     1      -6.083  -7.425  -5.311  0.00  0.00    -0.491 OA
ATOM     36  C   UNL     1      -6.713  -6.415  -6.101  0.00  0.00    +0.277 C 
ENDBRANCH   6  35
TORSDOF 9
