REMARK  Name = ZINC10383466
REMARK  9 active torsions:
REMARK  status: ('A' for Active; 'I' for Inactive)
REMARK    1  A    between atoms: C_1  and  C_2
REMARK    2  A    between atoms: C_2  and  O_3
REMARK    3  A    between atoms: O_3  and  C_4
REMARK    4  A    between atoms: C_4  and  C_6
REMARK    5  A    between atoms: C_10  and  N_24
REMARK    6  A    between atoms: N_14  and  C_16
REMARK    7  A    between atoms: C_19  and  C_23
REMARK    8  A    between atoms: C_20  and  C_22
REMARK    9  A    between atoms: C_25  and  C_27
REMARK                            x       y       z     vdW  Elec       q    Type
REMARK                         _______ _______ _______ _____ _____    ______ ____
ROOT
ATOM      1  C   UNL     1      -3.470  10.360  -2.424  0.00  0.00    +0.177 A 
ATOM      2  C   UNL     1      -2.583   9.470  -1.620  0.00  0.00    +0.030 A 
ATOM      3  C   UNL     1      -1.894   9.813  -0.486  0.00  0.00    +0.058 A 
ATOM      4  S   UNL     1      -1.045   8.319  -0.036  0.00  0.00    -0.080 S 
ATOM      5  C   UNL     1      -1.584   7.279  -1.305  0.00  0.00    +0.085 A 
ATOM      6  C   UNL     1      -2.417   8.090  -2.080  0.00  0.00    +0.079 A 
ATOM      7  C   UNL     1      -3.128   7.698  -3.261  0.00  0.00    +0.282 A 
ATOM      8  O   UNL     1      -3.025   6.559  -3.679  0.00  0.00    -0.265 OA
ATOM      9  N   UNL     1      -3.902   8.576  -3.913  0.00  0.00    -0.195 N 
ATOM     10  N   UNL     1      -4.064   9.894  -3.488  0.00  0.00    -0.156 NA
ENDROOT
BRANCH   9  11
ATOM     11  C   UNL     1      -4.575   8.155  -5.064  0.00  0.00    +0.070 A 
ATOM     12  C   UNL     1      -3.886   7.481  -6.065  0.00  0.00    +0.028 A 
ATOM     13  C   UNL     1      -4.554   7.061  -7.198  0.00  0.00    +0.006 A 
ATOM     14  C   UNL     1      -5.905   7.321  -7.343  0.00  0.00    -0.047 A 
ATOM     15  C   UNL     1      -6.592   7.996  -6.351  0.00  0.00    -0.046 A 
ATOM     16  C   UNL     1      -5.931   8.414  -5.213  0.00  0.00    +0.031 A 
ATOM     17  C   UNL     1      -8.064   8.277  -6.513  0.00  0.00    +0.044 C 
ATOM     18  C   UNL     1      -6.629   6.867  -8.584  0.00  0.00    +0.044 C 
ENDBRANCH   9  11
BRANCH   5  19
ATOM     19  N   UNL     1      -1.259   5.945  -1.511  0.00  0.00    -0.279 N 
ATOM     20  C   UNL     1      -0.428   5.314  -0.658  0.00  0.00    +0.224 C 
ATOM     21  O   UNL     1       0.037   5.912   0.289  0.00  0.00    -0.275 OA
ATOM     22  H   UNL     1      -1.631   5.467  -2.269  0.00  0.00    +0.155 HD
BRANCH  20  23
ATOM     23  C   UNL     1      -0.076   3.866  -0.881  0.00  0.00    +0.048 C 
ATOM     24  C   UNL     1       0.604   3.711  -2.243  0.00  0.00    +0.019 C 
ATOM     25  C   UNL     1       0.962   2.241  -2.470  0.00  0.00    -0.009 C 
ATOM     26  C   UNL     1       1.914   1.772  -1.368  0.00  0.00    +0.007 C 
ATOM     27  C   UNL     1       1.234   1.927  -0.007  0.00  0.00    -0.009 C 
ATOM     28  C   UNL     1       0.876   3.397   0.220  0.00  0.00    +0.019 C 
ATOM     29  C   UNL     1      -0.041   1.081   0.026  0.00  0.00    +0.007 C 
ATOM     30  C   UNL     1      -0.993   1.550  -1.076  0.00  0.00    -0.009 C 
ATOM     31  C   UNL     1      -0.312   1.395  -2.438  0.00  0.00    +0.007 C 
ATOM     32  C   UNL     1      -1.350   3.020  -0.849  0.00  0.00    +0.019 C 
ENDBRANCH  20  23
ENDBRANCH   5  19
BRANCH   1  33
ATOM     33  C   UNL     1      -3.675  11.762  -2.018  0.00  0.00    +0.360 C 
ATOM     34  O   UNL     1      -3.122  12.194  -1.026  0.00  0.00    -0.243 OA
BRANCH  33  35
ATOM     35  O   UNL     1      -4.478  12.564  -2.745  0.00  0.00    -0.460 OA
BRANCH  35  37
ATOM     36  C   UNL     1      -5.573  14.684  -3.232  0.00  0.00    +0.048 C 
ATOM     37  C   UNL     1      -4.634  13.932  -2.286  0.00  0.00    +0.229 C 
ENDBRANCH  35  37
ENDBRANCH  33  35
ENDBRANCH   1  33
TORSDOF 6
