REMARK  Name = ZINC50140921
REMARK  15 active torsions:
REMARK  status: ('A' for Active; 'I' for Inactive)
REMARK    1  A    between atoms: C_1  and  C_2
REMARK    2  A    between atoms: C_2  and  N_3
REMARK    3  A    between atoms: N_3  and  C_4
REMARK    4  A    between atoms: C_4  and  C_5
REMARK    5  A    between atoms: N_7  and  C_8
REMARK    6  A    between atoms: C_8  and  C_9
REMARK    7  A    between atoms: C_8  and  C_10
REMARK    8  A    between atoms: C_8  and  C_11
REMARK    9  A    between atoms: N_14  and  C_15
REMARK   10  A    between atoms: C_15  and  C_17
REMARK   11  A    between atoms: C_15  and  C_18
REMARK   12  A    between atoms: C_21  and  O_26
REMARK   13  A    between atoms: C_23  and  O_24
REMARK   14  A    between atoms: O_24  and  C_25
REMARK   15  A    between atoms: O_26  and  C_27
REMARK                            x       y       z     vdW  Elec       q    Type
REMARK                         _______ _______ _______ _____ _____    ______ ____
ROOT
ATOM      1  N   UNL     1       0.688  -0.476  -1.203  0.00  0.00    -0.277 N 
ATOM      2  C   UNL     1      -0.013  -0.705  -2.332  0.00  0.00    +0.303 C 
ATOM      3  O   UNL     1       0.556  -1.097  -3.332  0.00  0.00    -0.253 OA
ATOM      4  N   UNL     1      -1.345  -0.498  -2.351  0.00  0.00    -0.293 N 
ATOM      5  H   UNL     1      -1.799  -0.185  -1.553  0.00  0.00    +0.151 HD
ENDROOT
BRANCH   1   7
ATOM      6  C   UNL     1      -0.019   1.526   0.010  0.00  0.00    +0.024 C 
ATOM      7  C   UNL     1       0.002  -0.004   0.002  0.00  0.00    +0.106 C 
ENDBRANCH   1   7
BRANCH   4   8
ATOM      8  C   UNL     1      -2.107  -0.746  -3.578  0.00  0.00    +0.105 C 
ATOM      9  C   UNL     1      -2.049   0.494  -4.473  0.00  0.00    +0.033 C 
BRANCH   8  10
ATOM     10  C   UNL     1      -3.541  -1.045  -3.226  0.00  0.00    +0.014 A 
ATOM     11  C   UNL     1      -4.077  -0.566  -2.046  0.00  0.00    +0.012 A 
ATOM     12  C   UNL     1      -5.392  -0.839  -1.721  0.00  0.00    +0.046 A 
ATOM     13  C   UNL     1      -6.178  -1.595  -2.580  0.00  0.00    +0.124 A 
ATOM     14  C   UNL     1      -5.642  -2.076  -3.764  0.00  0.00    +0.091 A 
ATOM     15  C   UNL     1      -4.324  -1.796  -4.091  0.00  0.00    +0.128 A 
BRANCH  15  16
ATOM     16  O   UNL     1      -3.798  -2.262  -5.254  0.00  0.00    -0.495 OA
ATOM     17  C   UNL     1      -4.662  -3.028  -6.096  0.00  0.00    +0.277 C 
ENDBRANCH  15  16
BRANCH  13  18
ATOM     18  O   UNL     1      -7.471  -1.864  -2.259  0.00  0.00    -0.495 OA
ATOM     19  C   UNL     1      -7.956  -1.336  -1.023  0.00  0.00    +0.277 C 
ENDBRANCH  13  18
ENDBRANCH   8  10
ENDBRANCH   4   8
BRANCH   1  20
ATOM     20  C   UNL     1       2.135  -0.701  -1.182  0.00  0.00    +0.205 C 
BRANCH  20  21
ATOM     21  C   UNL     1       2.417  -2.123  -0.770  0.00  0.00    +0.231 C 
ATOM     22  O   UNL     1       1.499  -2.875  -0.518  0.00  0.00    -0.274 OA
ATOM     23  N   UNL     1       3.689  -2.559  -0.680  0.00  0.00    -0.309 N 
ATOM     24  H   UNL     1       4.423  -1.958  -0.881  0.00  0.00    +0.149 HD
BRANCH  23  25
ATOM     25  C   UNL     1       3.963  -3.942  -0.280  0.00  0.00    +0.026 C 
ATOM     26  C   UNL     1       3.312  -4.901  -1.279  0.00  0.00    +0.031 C 
ATOM     27  C   UNL     1       5.474  -4.176  -0.257  0.00  0.00    +0.031 C 
ATOM     28  C   UNL     1       3.387  -4.191   1.116  0.00  0.00    +0.031 C 
ENDBRANCH  23  25
ENDBRANCH  20  21
ENDBRANCH   1  20
TORSDOF 8
