REMARK  Name = ZINC22758061
REMARK  4 active torsions:
REMARK  status: ('A' for Active; 'I' for Inactive)
REMARK    1  A    between atoms: C_1  and  N_2
REMARK    2  A    between atoms: N_2  and  C_3
REMARK    3  A    between atoms: N_2  and  C_17
REMARK    4  A    between atoms: C_3  and  N_4
REMARK                            x       y       z     vdW  Elec       q    Type
REMARK                         _______ _______ _______ _____ _____    ______ ____
ROOT
ATOM      1  N   UNL     1       4.158   4.298   2.753  0.00  0.00    -0.211 N 
ATOM      2  C   UNL     1       4.082   4.083   4.083  0.00  0.00    +0.248 C 
ATOM      3  O   UNL     1       3.403   3.258   4.656  0.00  0.00    -0.273 OA
ATOM      4  C   UNL     1       5.024   5.085   4.707  0.00  0.00    +0.113 C 
ATOM      5  C   UNL     1       4.312   5.988   5.675  0.00  0.00    +0.035 C 
ATOM      6  C   UNL     1       4.866   7.429   5.650  0.00  0.00    +0.003 C 
ATOM      7  C   UNL     1       6.404   7.474   5.562  0.00  0.00    +0.000 C 
ATOM      8  C   UNL     1       7.061   6.446   6.443  0.00  0.00    +0.000 C 
ATOM      9  C   UNL     1       7.341   5.188   5.598  0.00  0.00    +0.003 C 
ATOM     10  C   UNL     1       6.162   4.348   5.440  0.00  0.00    +0.035 C 
ATOM     11  N   UNL     1       5.569   5.826   3.564  0.00  0.00    -0.285 N 
ATOM     12  C   UNL     1       5.005   5.293   2.462  0.00  0.00    +0.310 C 
ATOM     13  O   UNL     1       5.239   5.674   1.332  0.00  0.00    -0.252 OA
ATOM     14  H   UNL     1       6.293   6.637   3.729  0.00  0.00    +0.151 HD
ENDROOT
BRANCH   1  15
ATOM     15  C   UNL     1       3.404   3.540   1.752  0.00  0.00    +0.205 C 
BRANCH  15  17
ATOM     16  C   UNL     1       4.067   1.274   2.288  0.00  0.00    +0.107 C 
ATOM     17  N   UNL     1       4.190   2.375   1.324  0.00  0.00    -0.282 NA
BRANCH  17  18
ATOM     18  C   UNL     1       3.799   1.942  -0.024  0.00  0.00    +0.089 C 
ATOM     19  C   UNL     1       4.672   0.753  -0.479  0.00  0.00    +0.028 C 
ATOM     20  C   UNL     1       3.831  -0.464  -0.037  0.00  0.00    +0.037 C 
ATOM     21  C   UNL     1       2.400   0.028  -0.021  0.00  0.00    -0.043 A 
ATOM     22  C   UNL     1       2.381   1.411  -0.013  0.00  0.00    -0.027 A 
ATOM     23  C   UNL     1       1.171   2.083   0.002  0.00  0.00    +0.005 A 
ATOM     24  C   UNL     1      -0.017   1.378   0.010  0.00  0.00    +0.000 A 
ATOM     25  C   UNL     1       0.002  -0.004   0.002  0.00  0.00    +0.000 A 
ATOM     26  C   UNL     1       1.208  -0.677  -0.013  0.00  0.00    +0.004 A 
ENDBRANCH  17  18
ENDBRANCH  15  17
ENDBRANCH   1  15
TORSDOF 3
