REMARK  Name = ZINC65532049
REMARK  2 active torsions:
REMARK  status: ('A' for Active; 'I' for Inactive)
REMARK    1  A    between atoms: N_4  and  C_6
REMARK    2  A    between atoms: C_9  and  C_12
REMARK                            x       y       z     vdW  Elec       q    Type
REMARK                         _______ _______ _______ _____ _____    ______ ____
ROOT
ATOM      1  C   UNL     1       3.154  -5.760  -0.063  0.00  0.00    +0.066 C 
ATOM      2  C   UNL     1       3.974  -6.009   1.193  0.00  0.00    +0.109 C 
ATOM      3  C   UNL     1       4.377  -7.449   1.283  0.00  0.00    +0.214 C 
ATOM      4  O   UNL     1       3.896  -8.138   2.158  0.00  0.00    -0.276 OA
ATOM      5  N   UNL     1       5.244  -8.000   0.439  0.00  0.00    -0.310 N 
ATOM      6  C   UNL     1       6.020  -7.205  -0.497  0.00  0.00    +0.160 C 
ATOM      7  C   UNL     1       5.140  -6.551  -1.544  0.00  0.00    +0.071 A 
ATOM      8  C   UNL     1       3.946  -5.987  -1.308  0.00  0.00    +0.024 A 
ATOM      9  S   UNL     1       3.426  -5.500  -2.946  0.00  0.00    -0.056 S 
ATOM     10  C   UNL     1       4.805  -5.994  -3.773  0.00  0.00    +0.161 A 
ATOM     11  N   UNL     1       5.542  -6.506  -2.826  0.00  0.00    -0.228 NA
ATOM     12  N   UNL     1       5.086  -5.887  -5.126  0.00  0.00    -0.310 N 
ATOM     13  C   UNL     1       4.202  -5.293  -6.140  0.00  0.00    +0.107 C 
ATOM     14  C   UNL     1       4.918  -5.419  -7.501  0.00  0.00    +0.020 C 
ATOM     15  C   UNL     1       5.916  -6.583  -7.263  0.00  0.00    +0.020 C 
ATOM     16  C   UNL     1       6.322  -6.345  -5.785  0.00  0.00    +0.107 C 
ATOM     17  H   UNL     1       5.362  -8.963   0.448  0.00  0.00    +0.149 HD
ENDROOT
BRANCH   1  21
ATOM     18  C   UNL     1       1.755  -1.722  -0.025  0.00  0.00    +0.065 A 
ATOM     19  C   UNL     1       0.847  -2.773  -0.028  0.00  0.00    +0.028 A 
ATOM     20  C   UNL     1       1.303  -4.077  -0.040  0.00  0.00    +0.006 A 
ATOM     21  C   UNL     1       2.661  -4.336  -0.050  0.00  0.00    -0.039 A 
ATOM     22  C   UNL     1       3.567  -3.292  -0.046  0.00  0.00    +0.006 A 
ATOM     23  C   UNL     1       3.118  -1.986  -0.039  0.00  0.00    +0.028 A 
BRANCH  18  27
ATOM     24  C   UNL     1      -0.016   1.349   0.009  0.00  0.00    +0.041 A 
ATOM     25  C   UNL     1       1.309   1.798  -0.001  0.00  0.00    +0.135 A 
ATOM     26  N   UNL     1       2.096   0.752  -0.014  0.00  0.00    -0.175 NA
ATOM     27  N   UNL     1       1.296  -0.398  -0.012  0.00  0.00    -0.240 N 
ATOM     28  C   UNL     1       0.002  -0.004   0.002  0.00  0.00    +0.114 A 
ENDBRANCH  18  27
ENDBRANCH   1  21
TORSDOF 2
