REMARK  Name = ZINC16607657
REMARK  12 active torsions:
REMARK  status: ('A' for Active; 'I' for Inactive)
REMARK    1  A    between atoms: C_1  and  C_2
REMARK    2  A    between atoms: C_2  and  C_3
REMARK    3  A    between atoms: C_3  and  C_5
REMARK    4  A    between atoms: C_3  and  C_6
REMARK    5  A    between atoms: C_6  and  C_8
REMARK    6  A    between atoms: C_6  and  N_25
REMARK    7  A    between atoms: C_14  and  C_16
REMARK    8  A    between atoms: C_19  and  N_22
REMARK    9  A    between atoms: N_22  and  C_23
REMARK   10  A    between atoms: N_22  and  C_24
REMARK   11  A    between atoms: N_25  and  S_26
REMARK   12  A    between atoms: S_26  and  C_29
REMARK                            x       y       z     vdW  Elec       q    Type
REMARK                         _______ _______ _______ _____ _____    ______ ____
ROOT
ATOM      1  C   UNL     1      -1.320   5.144  -0.044  0.00  0.00    +0.238 C 
ATOM      2  O   UNL     1      -0.618   5.564  -0.939  0.00  0.00    -0.274 OA
ATOM      3  N   UNL     1      -1.861   5.999   0.846  0.00  0.00    -0.262 N 
ATOM      4  C   UNL     1      -1.736   7.370   0.657  0.00  0.00    +0.188 A 
ATOM      5  N   UNL     1      -1.128   8.045  -0.310  0.00  0.00    -0.125 NA
ATOM      6  N   UNL     1      -1.112   9.306  -0.334  0.00  0.00    -0.140 NA
ATOM      7  C   UNL     1      -1.690  10.033   0.615  0.00  0.00    +0.134 A 
ATOM      8  S   UNL     1      -2.340   8.729   1.655  0.00  0.00    -0.030 S 
ATOM      9  H   UNL     1      -2.339   5.657   1.618  0.00  0.00    +0.157 HD
ENDROOT
BRANCH   7  10
ATOM     10  C   UNL     1      -1.774  11.501   0.768  0.00  0.00    +0.009 A 
ATOM     11  C   UNL     1      -2.448  12.053   1.859  0.00  0.00    +0.012 A 
ATOM     12  C   UNL     1      -2.519  13.421   2.002  0.00  0.00    +0.024 A 
ATOM     13  C   UNL     1      -1.931  14.252   1.056  0.00  0.00    +0.029 A 
ATOM     14  C   UNL     1      -1.264  13.706  -0.035  0.00  0.00    +0.024 A 
ATOM     15  C   UNL     1      -1.184  12.338  -0.181  0.00  0.00    +0.012 A 
BRANCH  13  16
ATOM     16  N   UNL     1      -2.010  15.638   1.201  0.00  0.00    -0.336 N 
ATOM     17  C   UNL     1      -1.391  16.515   0.204  0.00  0.00    +0.129 C 
ATOM     18  C   UNL     1      -2.713  16.216   2.349  0.00  0.00    +0.129 C 
ENDBRANCH  13  16
ENDBRANCH   7  10
BRANCH   1  19
ATOM     19  C   UNL     1      -1.585   3.665   0.074  0.00  0.00    +0.165 C 
BRANCH  19  20
ATOM     20  C   UNL     1      -0.687   3.071   1.161  0.00  0.00    +0.013 C 
ATOM     21  C   UNL     1       0.774   3.407   0.856  0.00  0.00    +0.009 C 
BRANCH  20  23
ATOM     22  C   UNL     1      -2.484   3.203   2.892  0.00  0.00    +0.004 C 
ATOM     23  C   UNL     1      -1.072   3.660   2.520  0.00  0.00    +0.002 C 
ENDBRANCH  20  23
ENDBRANCH  19  20
BRANCH  19  24
ATOM     24  N   UNL     1      -1.298   3.014  -1.206  0.00  0.00    -0.178 NA
ATOM     25  H   UNL     1      -0.563   3.327  -1.756  0.00  0.00    +0.149 HD
BRANCH  24  26
ATOM     26  S   UNL     1      -2.230   1.743  -1.716  0.00  0.00    +0.059 S 
ATOM     27  O   UNL     1      -1.799   1.426  -3.032  0.00  0.00    -0.153 OA
ATOM     28  O   UNL     1      -2.227   0.789  -0.662  0.00  0.00    -0.153 OA
BRANCH  26  29
ATOM     29  C   UNL     1      -3.884   2.333  -1.856  0.00  0.00    +0.105 A 
ATOM     30  C   UNL     1      -4.740   2.253  -0.773  0.00  0.00    +0.031 A 
ATOM     31  C   UNL     1      -6.037   2.720  -0.880  0.00  0.00    +0.040 A 
ATOM     32  C   UNL     1      -6.481   3.259  -2.076  0.00  0.00    +0.124 A 
ATOM     33  C   UNL     1      -5.625   3.333  -3.161  0.00  0.00    +0.040 A 
ATOM     34  C   UNL     1      -4.327   2.871  -3.050  0.00  0.00    +0.031 A 
ATOM     35  F   UNL     1      -7.750   3.711  -2.183  0.00  0.00    -0.205 F 
ENDBRANCH  26  29
ENDBRANCH  24  26
ENDBRANCH  19  24
ENDBRANCH   1  19
TORSDOF 8
