REMARK  Name = ZINC01895305
REMARK  12 active torsions:
REMARK  status: ('A' for Active; 'I' for Inactive)
REMARK    1  A    between atoms: C_1  and  C_2
REMARK    2  A    between atoms: C_2  and  O_3
REMARK    3  A    between atoms: O_3  and  C_4
REMARK    4  A    between atoms: C_4  and  C_6
REMARK    5  A    between atoms: C_7  and  C_30
REMARK    6  A    between atoms: C_10  and  N_11
REMARK    7  A    between atoms: C_12  and  C_14
REMARK    8  A    between atoms: C_14  and  C_15
REMARK    9  A    between atoms: C_15  and  C_16
REMARK   10  A    between atoms: C_16  and  C_17
REMARK   11  A    between atoms: C_17  and  C_18
REMARK   12  A    between atoms: C_18  and  N_19
REMARK                            x       y       z     vdW  Elec       q    Type
REMARK                         _______ _______ _______ _____ _____    ______ ____
ROOT
ATOM      1  N   UNL     1      -1.222  -2.360   2.485  0.00  0.00    -0.279 N 
ATOM      2  C   UNL     1      -1.241  -3.230   3.514  0.00  0.00    +0.218 C 
ATOM      3  O   UNL     1      -1.290  -4.423   3.300  0.00  0.00    -0.275 OA
ATOM      4  H   UNL     1      -1.183  -1.407   2.656  0.00  0.00    +0.155 HD
ENDROOT
BRANCH   1   9
ATOM      5  C   UNL     1      -1.248  -2.095   0.003  0.00  0.00    +0.095 A 
ATOM      6  C   UNL     1      -1.290  -2.848  -1.236  0.00  0.00    +0.005 A 
ATOM      7  C   UNL     1      -1.340  -4.200  -1.127  0.00  0.00    +0.056 A 
ATOM      8  S   UNL     1      -1.333  -4.469   0.633  0.00  0.00    -0.080 S 
ATOM      9  C   UNL     1      -1.259  -2.829   1.181  0.00  0.00    +0.086 A 
BRANCH   6  10
ATOM     10  C   UNL     1      -1.277  -2.175  -2.557  0.00  0.00    -0.016 A 
ATOM     11  C   UNL     1      -2.169  -1.136  -2.820  0.00  0.00    +0.011 A 
ATOM     12  C   UNL     1      -2.151  -0.509  -4.049  0.00  0.00    +0.039 A 
ATOM     13  C   UNL     1      -1.255  -0.918  -5.024  0.00  0.00    +0.123 A 
ATOM     14  C   UNL     1      -0.371  -1.953  -4.769  0.00  0.00    +0.039 A 
ATOM     15  C   UNL     1      -0.378  -2.583  -3.541  0.00  0.00    +0.011 A 
ATOM     16  F   UNL     1      -1.245  -0.305  -6.229  0.00  0.00    -0.205 F 
ENDBRANCH   6  10
BRANCH   5  17
ATOM     17  C   UNL     1      -1.191  -0.633   0.010  0.00  0.00    +0.342 C 
ATOM     18  O   UNL     1      -2.220   0.016   0.023  0.00  0.00    -0.245 OA
BRANCH  17  19
ATOM     19  O   UNL     1       0.002  -0.004   0.002  0.00  0.00    -0.461 OA
BRANCH  19  21
ATOM     20  C   UNL     1       1.418   1.977  -0.001  0.00  0.00    +0.048 C 
ATOM     21  C   UNL     1      -0.018   1.448   0.010  0.00  0.00    +0.229 C 
ENDBRANCH  19  21
ENDBRANCH  17  19
ENDBRANCH   5  17
ENDBRANCH   1   9
BRANCH   2  22
ATOM     22  C   UNL     1      -1.201  -2.720   4.932  0.00  0.00    +0.096 C 
BRANCH  22  23
ATOM     23  C   UNL     1      -1.232  -3.905   5.901  0.00  0.00    +0.009 C 
BRANCH  23  24
ATOM     24  C   UNL     1      -1.191  -3.387   7.340  0.00  0.00    +0.002 C 
BRANCH  24  25
ATOM     25  C   UNL     1      -1.223  -4.571   8.309  0.00  0.00    +0.019 C 
BRANCH  25  26
ATOM     26  C   UNL     1      -1.182  -4.054   9.748  0.00  0.00    +0.117 C 
BRANCH  26  27
ATOM     27  N   UNL     1      -1.212  -5.187  10.675  0.00  0.00    -0.234 N 
ATOM     28  C   UNL     1      -2.336  -5.730  11.178  0.00  0.00    +0.254 C 
ATOM     29  O   UNL     1      -3.468  -5.364  10.938  0.00  0.00    -0.270 OA
ATOM     30  C   UNL     1      -1.961  -6.849  12.069  0.00  0.00    +0.049 A 
ATOM     31  C   UNL     1      -2.674  -7.752  12.840  0.00  0.00    +0.014 A 
ATOM     32  C   UNL     1      -1.996  -8.703  13.587  0.00  0.00    +0.001 A 
ATOM     33  C   UNL     1      -0.615  -8.757  13.566  0.00  0.00    +0.001 A 
ATOM     34  C   UNL     1       0.111  -7.860  12.799  0.00  0.00    +0.014 A 
ATOM     35  C   UNL     1      -0.552  -6.903  12.048  0.00  0.00    +0.049 A 
ATOM     36  C   UNL     1      -0.119  -5.819  11.141  0.00  0.00    +0.254 C 
ATOM     37  O   UNL     1       1.031  -5.544  10.863  0.00  0.00    -0.270 OA
ENDBRANCH  26  27
ENDBRANCH  25  26
ENDBRANCH  24  25
ENDBRANCH  23  24
ENDBRANCH  22  23
ENDBRANCH   2  22
TORSDOF 11
