REMARK  Name = ZINC41036463
REMARK  4 active torsions:
REMARK  status: ('A' for Active; 'I' for Inactive)
REMARK    1  A    between atoms: C_1  and  C_2
REMARK    2  A    between atoms: C_2  and  C_3
REMARK    3  A    between atoms: C_3  and  N_4
REMARK    4  A    between atoms: C_11  and  C_14
REMARK                            x       y       z     vdW  Elec       q    Type
REMARK                         _______ _______ _______ _____ _____    ______ ____
ROOT
ATOM      1  N   UNL     1       0.738  -1.962  -1.265  0.00  0.00    -0.224 N 
ATOM      2  C   UNL     1       1.717  -2.710  -0.716  0.00  0.00    +0.247 C 
ATOM      3  O   UNL     1       2.710  -2.314  -0.143  0.00  0.00    -0.273 OA
ATOM      4  C   UNL     1       1.315  -4.146  -0.963  0.00  0.00    +0.113 C 
ATOM      5  C   UNL     1       2.362  -4.851  -1.820  0.00  0.00    +0.035 C 
ATOM      6  C   UNL     1       1.921  -6.293  -2.084  0.00  0.00    +0.003 C 
ATOM      7  C   UNL     1       1.751  -7.025  -0.751  0.00  0.00    +0.003 C 
ATOM      8  C   UNL     1       0.682  -6.321   0.086  0.00  0.00    -0.012 C 
ATOM      9  C   UNL     1       1.118  -4.879   0.359  0.00  0.00    +0.038 C 
ATOM     10  C   UNL     1       0.505  -7.060   1.414  0.00  0.00    +0.007 C 
ATOM     11  N   UNL     1       0.043  -4.040  -1.688  0.00  0.00    -0.285 N 
ATOM     12  C   UNL     1      -0.216  -2.725  -1.813  0.00  0.00    +0.309 C 
ATOM     13  O   UNL     1      -1.203  -2.279  -2.365  0.00  0.00    -0.252 OA
ATOM     14  H   UNL     1      -0.505  -4.773  -2.011  0.00  0.00    +0.151 HD
ENDROOT
BRANCH   1  15
ATOM     15  C   UNL     1       0.718  -0.497  -1.257  0.00  0.00    +0.118 C 
BRANCH  15  17
ATOM     16  C   UNL     1      -0.019   1.526   0.010  0.00  0.00    +0.005 C 
ATOM     17  C   UNL     1       0.002  -0.004   0.002  0.00  0.00    +0.016 C 
ENDBRANCH  15  17
ENDBRANCH   1  15
TORSDOF 2
