REMARK  Name = ZINC19484423
REMARK  4 active torsions:
REMARK  status: ('A' for Active; 'I' for Inactive)
REMARK    1  A    between atoms: C_1  and  C_2
REMARK    2  A    between atoms: C_4  and  N_8
REMARK    3  A    between atoms: N_5  and  C_7
REMARK    4  A    between atoms: C_9  and  C_11
REMARK                            x       y       z     vdW  Elec       q    Type
REMARK                         _______ _______ _______ _____ _____    ______ ____
ROOT
ATOM      1  N   UNL     1      -2.446   1.421   0.021  0.00  0.00    -0.269 N 
ATOM      2  C   UNL     1      -2.715   0.100   0.016  0.00  0.00    +0.239 C 
ATOM      3  O   UNL     1      -1.807  -0.704   0.008  0.00  0.00    -0.273 OA
ATOM      4  H   UNL     1      -3.270   2.150   0.027  0.00  0.00    +0.156 HD
ENDROOT
BRANCH   2   5
ATOM      5  C   UNL     1      -4.145  -0.378   0.020  0.00  0.00    +0.157 C 
ATOM      6  C   UNL     1      -4.698  -0.350   1.451  0.00  0.00    +0.036 C 
ATOM      7  C   UNL     1      -6.167  -0.772   1.420  0.00  0.00    +0.039 C 
ATOM      8  C   UNL     1      -6.327  -2.069   0.672  0.00  0.00    -0.026 A 
ATOM      9  C   UNL     1      -7.464  -2.830   0.888  0.00  0.00    +0.005 A 
ATOM     10  C   UNL     1      -7.643  -4.021   0.212  0.00  0.00    +0.000 A 
ATOM     11  C   UNL     1      -6.688  -4.461  -0.686  0.00  0.00    +0.002 A 
ATOM     12  C   UNL     1      -5.552  -3.709  -0.906  0.00  0.00    +0.023 A 
ATOM     13  C   UNL     1      -5.368  -2.511  -0.225  0.00  0.00    +0.031 A 
ATOM     14  N   UNL     1      -4.207  -1.765  -0.459  0.00  0.00    -0.333 N 
ATOM     15  H   UNL     1      -3.350  -2.202  -0.992  0.00  0.00    +0.147 HD
ENDBRANCH   2   5
BRANCH   1  19
ATOM     16  C   UNL     1       2.544   1.466  -0.014  0.00  0.00    +0.067 C 
ATOM     17  C   UNL     1       1.105   1.914   0.002  0.00  0.00    +0.062 A 
ATOM     18  C   UNL     1      -0.013   1.076   0.008  0.00  0.00    +0.068 A 
ATOM     19  C   UNL     1      -1.123   1.863   0.017  0.00  0.00    +0.123 A 
ATOM     20  N   UNL     1      -0.711   3.151   0.024  0.00  0.00    -0.253 N 
ATOM     21  N   UNL     1       0.690   3.155   0.012  0.00  0.00    -0.175 NA
ATOM     22  C   UNL     1      -1.577   4.333   0.038  0.00  0.00    +0.174 C 
ENDBRANCH   1  19
TORSDOF 2
