REMARK  Name = ZINC05742266
REMARK  4 active torsions:
REMARK  status: ('A' for Active; 'I' for Inactive)
REMARK    1  A    between atoms: C_1  and  C_2
REMARK    2  A    between atoms: C_2  and  C_26
REMARK    3  A    between atoms: C_12  and  C_14
REMARK    4  A    between atoms: C_14  and  C_16
REMARK                            x       y       z     vdW  Elec       q    Type
REMARK                         _______ _______ _______ _____ _____    ______ ____
ROOT
ATOM      1  C   UNL     1       7.342   1.740  -1.144  0.00  0.00    +0.036 C 
ATOM      2  C   UNL     1       6.823   0.840  -0.020  0.00  0.00    +0.060 C 
ATOM      3  C   UNL     1       7.394  -0.556  -0.203  0.00  0.00    +0.017 C 
ATOM      4  C   UNL     1       7.528  -0.947  -1.664  0.00  0.00    +0.010 C 
ATOM      5  C   UNL     1       6.159  -1.084  -2.332  0.00  0.00    +0.031 C 
ATOM      6  C   UNL     1       5.287  -1.979  -1.475  0.00  0.00    -0.068 C 
ATOM      7  C   UNL     1       4.689  -3.036  -1.966  0.00  0.00    +0.008 C 
ATOM      8  C   UNL     1       5.141  -1.578  -0.047  0.00  0.00    +0.067 C 
ATOM      9  C   UNL     1       6.551  -1.576   0.562  0.00  0.00    +0.020 C 
ATOM     10  C   UNL     1       4.617  -0.162  -0.041  0.00  0.00    +0.091 C 
ATOM     11  N   UNL     1       5.370   0.850  -0.042  0.00  0.00    -0.277 NA
ATOM     12  C   UNL     1       7.302   1.398   1.322  0.00  0.00    +0.036 C 
ENDROOT
BRANCH  10  13
ATOM     13  C   UNL     1       3.151   0.048  -0.026  0.00  0.00    +0.209 C 
ATOM     14  O   UNL     1       2.399  -0.908  -0.025  0.00  0.00    -0.285 OA
BRANCH  13  15
ATOM     15  C   UNL     1       2.606   1.408  -0.014  0.00  0.00    +0.048 A 
ATOM     16  C   UNL     1       3.321   2.587  -0.015  0.00  0.00    +0.095 A 
ATOM     17  N   UNL     1       2.472   3.632  -0.002  0.00  0.00    -0.360 N 
ATOM     18  H   UNL     1       2.743   4.563   0.000  0.00  0.00    +0.165 HD
ATOM     19  C   UNL     1       1.162   3.195   0.008  0.00  0.00    +0.047 A 
ATOM     20  C   UNL     1       1.181   1.792   0.000  0.00  0.00    +0.011 A 
ATOM     21  C   UNL     1      -0.013   1.076   0.008  0.00  0.00    +0.011 A 
ATOM     22  C   UNL     1      -1.214   1.752   0.017  0.00  0.00    +0.001 A 
ATOM     23  C   UNL     1      -1.235   3.139   0.030  0.00  0.00    +0.002 A 
ATOM     24  C   UNL     1      -0.060   3.860   0.022  0.00  0.00    +0.026 A 
ENDBRANCH  13  15
ENDBRANCH  10  13
TORSDOF 2
