REMARK  Name = ZINC20763243
REMARK  6 active torsions:
REMARK  status: ('A' for Active; 'I' for Inactive)
REMARK    1  A    between atoms: C_1  and  O_2
REMARK    2  A    between atoms: O_2  and  C_3
REMARK    3  A    between atoms: C_3  and  C_5
REMARK    4  A    between atoms: C_8  and  C_11
REMARK    5  A    between atoms: C_19  and  C_22
REMARK    6  A    between atoms: C_22  and  N_23
REMARK                            x       y       z     vdW  Elec       q    Type
REMARK                         _______ _______ _______ _____ _____    ______ ____
ROOT
ATOM      1  C   UNL     1       4.522   4.668  -4.170  0.00  0.00    +0.058 C 
ATOM      2  C   UNL     1       4.426   4.618  -2.818  0.00  0.00    +0.176 C 
ATOM      3  C   UNL     1       5.473   5.002  -1.855  0.00  0.00    +0.231 C 
ATOM      4  O   UNL     1       6.590   5.425  -2.096  0.00  0.00    -0.283 OA
ATOM      5  C   UNL     1       4.866   4.759  -0.534  0.00  0.00    +0.068 A 
ATOM      6  C   UNL     1       5.328   4.919   0.773  0.00  0.00    +0.019 A 
ATOM      7  C   UNL     1       4.517   4.603   1.826  0.00  0.00    +0.052 A 
ATOM      8  C   UNL     1       3.229   4.125   1.597  0.00  0.00    +0.184 A 
ATOM      9  C   UNL     1       2.759   3.956   0.305  0.00  0.00    +0.026 A 
ATOM     10  C   UNL     1       3.571   4.274  -0.777  0.00  0.00    +0.144 A 
ATOM     11  O   UNL     1       3.350   4.205  -2.108  0.00  0.00    -0.451 OA
ATOM     12  O   UNL     1       2.429   3.818   2.650  0.00  0.00    -0.288 OA
ENDROOT
BRANCH   1  16
ATOM     13  C   UNL     1       1.374   3.162  -6.578  0.00  0.00    +0.059 A 
ATOM     14  C   UNL     1       1.222   3.228  -5.190  0.00  0.00    +0.015 A 
ATOM     15  C   UNL     1       2.239   3.715  -4.410  0.00  0.00    +0.009 A 
ATOM     16  C   UNL     1       3.431   4.146  -5.004  0.00  0.00    -0.021 A 
ATOM     17  C   UNL     1       3.581   4.084  -6.395  0.00  0.00    +0.009 A 
ATOM     18  C   UNL     1       2.564   3.592  -7.172  0.00  0.00    +0.015 A 
BRANCH  13  19
ATOM     19  C   UNL     1       0.278   2.637  -7.417  0.00  0.00    +0.339 C 
ATOM     20  O   UNL     1      -0.756   2.263  -6.900  0.00  0.00    -0.245 OA
BRANCH  19  22
ATOM     21  C   UNL     1      -0.694   2.047  -9.516  0.00  0.00    +0.280 C 
ATOM     22  O   UNL     1       0.424   2.573  -8.754  0.00  0.00    -0.464 OA
ENDBRANCH  19  22
ENDBRANCH  13  19
ENDBRANCH   1  16
BRANCH   9  23
ATOM     23  C   UNL     1       1.364   3.434   0.073  0.00  0.00    -0.035 C 
BRANCH  23  24
ATOM     24  N   UNL     1       1.399   1.968  -0.017  0.00  0.00    +0.383 N 
ATOM     25  C   UNL     1       0.044   1.409  -0.006  0.00  0.00    -0.073 C 
ATOM     26  C   UNL     1       0.079  -0.112  -0.038  0.00  0.00    -0.007 C 
ATOM     27  C   UNL     1       0.885  -0.611  -1.240  0.00  0.00    +0.011 C 
ATOM     28  C   UNL     1       2.287   0.001  -1.143  0.00  0.00    +0.020 C 
ATOM     29  C   UNL     1       2.144   1.531  -1.208  0.00  0.00    -0.069 C 
ATOM     30  C   UNL     1       2.888  -0.344   0.201  0.00  0.00    +0.023 A 
ATOM     31  C   UNL     1       4.242  -0.435   0.278  0.00  0.00    +0.022 A 
ATOM     32  C   UNL     1       4.868  -0.686   1.504  0.00  0.00    +0.007 A 
ATOM     33  C   UNL     1       4.099  -0.813   2.623  0.00  0.00    +0.070 A 
ATOM     34  C   UNL     1       2.705  -0.710   2.509  0.00  0.00    +0.251 A 
ATOM     35  O   UNL     1       2.011  -0.760   3.512  0.00  0.00    -0.268 OA
ATOM     36  N   UNL     1       2.121  -0.556   1.295  0.00  0.00    -0.312 N 
ATOM     37  C   UNL     1       0.665  -0.691   1.239  0.00  0.00    +0.126 C 
ATOM     38  H   UNL     1       1.925   1.586   0.870  0.00  0.00    -0.081 HD
ENDBRANCH  23  24
ENDBRANCH   9  23
TORSDOF 5
