REMARK  Name = ZINC55843377
REMARK  10 active torsions:
REMARK  status: ('A' for Active; 'I' for Inactive)
REMARK    1  A    between atoms: C_1  and  C_2
REMARK    2  A    between atoms: C_4  and  C_27
REMARK    3  A    between atoms: C_5  and  N_9
REMARK    4  A    between atoms: C_6  and  C_8
REMARK    5  A    between atoms: C_10  and  C_12
REMARK    6  A    between atoms: C_12  and  N_13
REMARK    7  A    between atoms: N_13  and  C_14
REMARK    8  A    between atoms: C_16  and  N_24
REMARK    9  A    between atoms: C_19  and  O_20
REMARK   10  A    between atoms: O_20  and  C_21
REMARK                            x       y       z     vdW  Elec       q    Type
REMARK                         _______ _______ _______ _____ _____    ______ ____
ROOT
ATOM      1  N   UNL     1       0.858  -6.983   2.265  0.00  0.00    -0.332 N 
ATOM      2  H   UNL     1       1.071  -6.364   2.981  0.00  0.00    +0.147 HD
ENDROOT
BRANCH   1   3
ATOM      3  C   UNL     1       0.989  -8.362   2.470  0.00  0.00    +0.072 A 
ATOM      4  C   UNL     1       0.691  -9.249   1.445  0.00  0.00    +0.059 A 
ATOM      5  C   UNL     1       0.821 -10.609   1.650  0.00  0.00    +0.128 A 
ATOM      6  C   UNL     1       1.248 -11.090   2.874  0.00  0.00    +0.036 A 
ATOM      7  C   UNL     1       1.547 -10.212   3.899  0.00  0.00    +0.050 A 
ATOM      8  C   UNL     1       1.425  -8.847   3.700  0.00  0.00    +0.148 A 
BRANCH   5   9
ATOM      9  N   UNL     1       0.502 -11.554   0.556  0.00  0.00    +0.056 N 
ATOM     10  O   UNL     1       0.127 -11.136  -0.514  0.00  0.00    -0.126 OA
ATOM     11  O   UNL     1       0.615 -12.745   0.734  0.00  0.00    -0.126 OA
ENDBRANCH   5   9
BRANCH   8  12
ATOM     12  O   UNL     1       1.725  -7.982   4.706  0.00  0.00    -0.432 OA
BRANCH  12  13
ATOM     13  C   UNL     1       2.167  -8.550   5.941  0.00  0.00    +0.541 C 
ATOM     14  F   UNL     1       1.169  -9.389   6.451  0.00  0.00    -0.166 F 
ATOM     15  F   UNL     1       3.333  -9.292   5.723  0.00  0.00    -0.166 F 
ENDBRANCH  12  13
ENDBRANCH   8  12
ENDBRANCH   1   3
BRANCH   1  16
ATOM     16  C   UNL     1       0.399  -6.476   0.969  0.00  0.00    +0.198 C 
BRANCH  16  18
ATOM     17  N   UNL     1      -0.052  -4.280  -0.077  0.00  0.00    -0.284 N 
ATOM     18  C   UNL     1       0.345  -4.970   1.011  0.00  0.00    +0.234 C 
ATOM     19  O   UNL     1       0.659  -4.380   2.022  0.00  0.00    -0.274 OA
ATOM     20  H   UNL     1      -0.370  -4.753  -0.862  0.00  0.00    +0.155 HD
BRANCH  17  25
ATOM     21  C   UNL     1       0.136   1.390  -0.065  0.00  0.00    +0.044 C 
ATOM     22  C   UNL     1       0.086  -0.116  -0.068  0.00  0.00    -0.050 A 
ATOM     23  C   UNL     1       0.759  -0.827  -1.045  0.00  0.00    +0.008 A 
ATOM     24  C   UNL     1       0.715  -2.207  -1.051  0.00  0.00    -0.029 A 
ATOM     25  C   UNL     1      -0.005  -2.882  -0.074  0.00  0.00    +0.039 A 
ATOM     26  C   UNL     1      -0.679  -2.165   0.906  0.00  0.00    -0.029 A 
ATOM     27  C   UNL     1      -0.628  -0.785   0.909  0.00  0.00    +0.008 A 
ATOM     28  C   UNL     1      -1.463  -2.893   1.968  0.00  0.00    +0.045 C 
ATOM     29  C   UNL     1       1.448  -2.981  -2.117  0.00  0.00    +0.045 C 
ENDBRANCH  17  25
ENDBRANCH  16  18
ENDBRANCH   1  16
TORSDOF 7
