REMARK  Name = ZINC50287569
REMARK  6 active torsions:
REMARK  status: ('A' for Active; 'I' for Inactive)
REMARK    1  A    between atoms: C_1  and  C_2
REMARK    2  A    between atoms: C_2  and  N_3
REMARK    3  A    between atoms: N_3  and  C_4
REMARK    4  A    between atoms: C_4  and  C_6
REMARK    5  A    between atoms: C_4  and  C_17
REMARK    6  A    between atoms: N_15  and  C_16
REMARK                            x       y       z     vdW  Elec       q    Type
REMARK                         _______ _______ _______ _____ _____    ______ ____
ROOT
ATOM      1  C   UNL     1       0.063  -1.642  -1.702  0.00  0.00    +0.047 C 
ENDROOT
BRANCH   1   2
ATOM      2  C   UNL     1       0.830  -2.210  -2.868  0.00  0.00    -0.052 A 
ATOM      3  C   UNL     1       1.918  -1.525  -3.378  0.00  0.00    +0.004 A 
ATOM      4  C   UNL     1       2.619  -2.045  -4.447  0.00  0.00    +0.023 A 
ATOM      5  C   UNL     1       2.233  -3.256  -5.010  0.00  0.00    +0.033 A 
ATOM      6  C   UNL     1       1.145  -3.944  -4.497  0.00  0.00    -0.026 A 
ATOM      7  C   UNL     1       0.448  -3.417  -3.422  0.00  0.00    +0.008 A 
ATOM      8  C   UNL     1       0.704  -5.264  -5.074  0.00  0.00    +0.038 C 
ATOM      9  C   UNL     1       1.236  -5.429  -6.497  0.00  0.00    +0.024 C 
ATOM     10  C   UNL     1       2.746  -5.162  -6.497  0.00  0.00    +0.105 C 
ATOM     11  N   UNL     1       2.954  -3.764  -6.096  0.00  0.00    -0.333 N 
ATOM     12  C   UNL     1       3.901  -2.914  -6.823  0.00  0.00    +0.129 C 
ENDBRANCH   1   2
BRANCH   1  13
ATOM     13  C   UNL     1       0.806  -1.932  -0.423  0.00  0.00    +0.201 C 
ATOM     14  O   UNL     1       1.182  -1.018   0.280  0.00  0.00    -0.277 OA
ATOM     15  N   UNL     1       1.052  -3.207  -0.061  0.00  0.00    -0.330 N 
ATOM     16  H   UNL     1       0.751  -3.938  -0.624  0.00  0.00    +0.145 HD
ATOM     17  H   UNL     1       1.530  -3.393   0.762  0.00  0.00    +0.145 HD
ENDBRANCH   1  13
BRANCH   1  18
ATOM     18  N   UNL     1      -0.077  -0.190  -1.869  0.00  0.00    +0.389 N 
ATOM     19  H   UNL     1      -0.500   0.007  -2.763  0.00  0.00    -0.084 HD
ATOM     20  H   UNL     1       0.834   0.243  -1.825  0.00  0.00    -0.084 HD
BRANCH  18  22
ATOM     21  C   UNL     1      -1.071   1.860  -0.970  0.00  0.00    -0.017 C 
ATOM     22  C   UNL     1      -0.925   0.347  -0.796  0.00  0.00    -0.085 C 
ENDBRANCH  18  22
ENDBRANCH   1  18
TORSDOF 4
