REMARK  Name = ZINC65868536
REMARK  8 active torsions:
REMARK  status: ('A' for Active; 'I' for Inactive)
REMARK    1  A    between atoms: C_1  and  C_2
REMARK    2  A    between atoms: C_2  and  C_3
REMARK    3  A    between atoms: C_2  and  N_4
REMARK    4  A    between atoms: N_7  and  C_8
REMARK    5  A    between atoms: C_13  and  N_14
REMARK    6  A    between atoms: C_15  and  C_17
REMARK    7  A    between atoms: C_17  and  C_18
REMARK    8  A    between atoms: N_20  and  C_27
REMARK                            x       y       z     vdW  Elec       q    Type
REMARK                         _______ _______ _______ _____ _____    ______ ____
ROOT
ATOM      1  C   UNL     1      -3.153  -3.452  -1.077  0.00  0.00    +0.056 A 
ATOM      2  C   UNL     1      -2.101  -4.211  -1.568  0.00  0.00    +0.025 A 
ATOM      3  C   UNL     1      -2.350  -5.434  -2.163  0.00  0.00    +0.002 A 
ATOM      4  C   UNL     1      -3.646  -5.904  -2.269  0.00  0.00    +0.002 A 
ATOM      5  C   UNL     1      -4.700  -5.155  -1.783  0.00  0.00    +0.025 A 
ATOM      6  C   UNL     1      -4.459  -3.929  -1.179  0.00  0.00    +0.055 A 
ENDROOT
BRANCH   1  10
ATOM      7  N   UNL     1      -1.422  -0.735   0.561  0.00  0.00    -0.297 N 
ATOM      8  C   UNL     1      -1.701  -1.963   0.082  0.00  0.00    +0.304 C 
ATOM      9  O   UNL     1      -0.868  -2.846   0.150  0.00  0.00    -0.253 OA
ATOM     10  N   UNL     1      -2.903  -2.212  -0.474  0.00  0.00    -0.268 N 
ATOM     11  H   UNL     1      -2.086  -0.030   0.507  0.00  0.00    +0.151 HD
ATOM     12  H   UNL     1      -3.596  -1.533  -0.456  0.00  0.00    +0.156 HD
BRANCH   7  14
ATOM     13  C   UNL     1       0.198   1.030   1.056  0.00  0.00    +0.027 C 
ATOM     14  C   UNL     1      -0.115  -0.464   1.165  0.00  0.00    +0.068 C 
ATOM     15  C   UNL     1      -0.139  -0.874   2.639  0.00  0.00    +0.027 C 
ENDBRANCH   7  14
ENDBRANCH   1  10
BRANCH   6  16
ATOM     16  N   UNL     1      -5.526  -3.171  -0.679  0.00  0.00    -0.284 N 
ATOM     17  C   UNL     1      -6.764  -3.333  -1.186  0.00  0.00    +0.222 C 
ATOM     18  O   UNL     1      -6.938  -4.060  -2.142  0.00  0.00    -0.275 OA
ATOM     19  H   UNL     1      -5.373  -2.529   0.032  0.00  0.00    +0.155 HD
BRANCH  17  20
ATOM     20  C   UNL     1      -7.932  -2.611  -0.566  0.00  0.00    +0.133 C 
BRANCH  20  21
ATOM     21  C   UNL     1      -9.193  -2.961  -1.314  0.00  0.00    -0.013 A 
ATOM     22  C   UNL     1      -9.745  -2.262  -2.319  0.00  0.00    +0.090 A 
ATOM     23  N   UNL     1     -10.884  -2.886  -2.749  0.00  0.00    -0.349 N 
ATOM     24  C   UNL     1     -11.098  -4.030  -2.014  0.00  0.00    +0.049 A 
ATOM     25  C   UNL     1     -10.045  -4.130  -1.087  0.00  0.00    +0.003 A 
ATOM     26  C   UNL     1      -9.997  -5.208  -0.201  0.00  0.00    +0.010 A 
ATOM     27  C   UNL     1     -10.973  -6.164  -0.242  0.00  0.00    +0.001 A 
ATOM     28  C   UNL     1     -12.012  -6.072  -1.157  0.00  0.00    +0.002 A 
ATOM     29  C   UNL     1     -12.084  -5.011  -2.034  0.00  0.00    +0.026 A 
ATOM     30  C   UNL     1     -11.748  -2.408  -3.832  0.00  0.00    +0.149 C 
ENDBRANCH  20  21
ENDBRANCH  17  20
ENDBRANCH   6  16
TORSDOF 5
