REMARK  Name = ZINC02193421
REMARK  7 active torsions:
REMARK  status: ('A' for Active; 'I' for Inactive)
REMARK    1  A    between atoms: C_1  and  N_2
REMARK    2  A    between atoms: C_3  and  C_21
REMARK    3  A    between atoms: C_6  and  S_7
REMARK    4  A    between atoms: S_7  and  C_8
REMARK    5  A    between atoms: C_8  and  C_9
REMARK    6  A    between atoms: N_11  and  N_12
REMARK    7  A    between atoms: C_13  and  C_14
REMARK                            x       y       z     vdW  Elec       q    Type
REMARK                         _______ _______ _______ _____ _____    ______ ____
ROOT
ATOM      1  S   UNL     1      -1.103  -2.321  -0.562  0.00  0.00    -0.077 S 
ENDROOT
BRANCH   1   7
ATOM      2  C   UNL     1      -1.846  -5.503  -0.060  0.00  0.00    +0.153 C 
ATOM      3  N   UNL     1      -2.850  -4.436  -0.017  0.00  0.00    -0.305 N 
ATOM      4  C   UNL     1      -4.197  -4.572   0.227  0.00  0.00    +0.165 A 
ATOM      5  N   UNL     1      -4.722  -3.370   0.173  0.00  0.00    -0.128 NA
ATOM      6  N   UNL     1      -3.808  -2.503  -0.078  0.00  0.00    -0.122 NA
ATOM      7  C   UNL     1      -2.644  -3.100  -0.210  0.00  0.00    +0.192 A 
BRANCH   4   8
ATOM      8  C   UNL     1      -4.918  -5.835   0.498  0.00  0.00    +0.021 A 
ATOM      9  C   UNL     1      -4.221  -6.957   0.948  0.00  0.00    +0.011 A 
ATOM     10  C   UNL     1      -4.899  -8.132   1.200  0.00  0.00    +0.002 A 
ATOM     11  C   UNL     1      -6.268  -8.200   1.007  0.00  0.00    +0.020 A 
ATOM     12  C   UNL     1      -6.965  -7.090   0.561  0.00  0.00    +0.042 A 
ATOM     13  C   UNL     1      -6.299  -5.907   0.310  0.00  0.00    +0.031 A 
ATOM     14 CL   UNL     1      -8.682  -7.185   0.322  0.00  0.00    -0.084 Cl
ENDBRANCH   4   8
ENDBRANCH   1   7
BRANCH   1  15
ATOM     15  C   UNL     1      -1.642  -0.597  -0.675  0.00  0.00    +0.174 C 
BRANCH  15  16
ATOM     16  C   UNL     1      -0.456   0.281  -0.980  0.00  0.00    +0.242 C 
ATOM     17  O   UNL     1       0.646  -0.210  -1.107  0.00  0.00    -0.273 OA
ATOM     18  N   UNL     1      -0.619   1.613  -1.109  0.00  0.00    -0.206 N 
ATOM     19  H   UNL     1      -1.500   2.006  -1.011  0.00  0.00    +0.177 HD
BRANCH  18  20
ATOM     20  N   UNL     1       0.484   2.429  -1.392  0.00  0.00    -0.188 NA
ATOM     21  C   UNL     1       0.328   3.711  -1.517  0.00  0.00    +0.138 C 
BRANCH  21  22
ATOM     22  C   UNL     1       1.489   4.570  -1.815  0.00  0.00    -0.005 A 
ATOM     23  C   UNL     1       2.759   4.008  -1.958  0.00  0.00    +0.012 A 
ATOM     24  C   UNL     1       3.840   4.816  -2.240  0.00  0.00    +0.039 A 
ATOM     25  C   UNL     1       3.670   6.185  -2.373  0.00  0.00    +0.123 A 
ATOM     26  C   UNL     1       2.412   6.749  -2.228  0.00  0.00    +0.039 A 
ATOM     27  C   UNL     1       1.323   5.951  -1.950  0.00  0.00    +0.012 A 
ATOM     28  F   UNL     1       4.734   6.972  -2.645  0.00  0.00    -0.205 F 
ENDBRANCH  21  22
ENDBRANCH  18  20
ENDBRANCH  15  16
ENDBRANCH   1  15
TORSDOF 6
