REMARK  Name = ZINC15411373
REMARK  9 active torsions:
REMARK  status: ('A' for Active; 'I' for Inactive)
REMARK    1  A    between atoms: C_2  and  C_3
REMARK    2  A    between atoms: C_3  and  N_45
REMARK    3  A    between atoms: C_4  and  C_5
REMARK    4  A    between atoms: C_4  and  N_45
REMARK    5  A    between atoms: C_11  and  C_12
REMARK    6  A    between atoms: C_11  and  N_45
REMARK    7  A    between atoms: N_14  and  C_15
REMARK    8  A    between atoms: C_15  and  C_16
REMARK    9  A    between atoms: N_18  and  C_19
REMARK                            x       y       z     vdW  Elec       q    Type
REMARK                         _______ _______ _______ _____ _____    ______ ____
ROOT
ATOM      1  C   UNL     1       4.142   0.925   0.359  0.00  0.00    +0.197 C 
ATOM      2  O   UNL     1       4.650   2.023   0.444  0.00  0.00    -0.278 OA
ATOM      3  N   UNL     1       2.827   0.769   0.611  0.00  0.00    -0.308 N 
ATOM      4  H   UNL     1       2.421  -0.109   0.543  0.00  0.00    +0.149 HD
ENDROOT
BRANCH   1   5
ATOM      5  C   UNL     1       4.981  -0.265  -0.030  0.00  0.00    +0.019 C 
BRANCH   5   6
ATOM      6  N   UNL     1       6.368   0.186  -0.268  0.00  0.00    +0.391 N 
ATOM      7  H   UNL     1       6.353   0.976  -0.924  0.00  0.00    -0.080 HD
BRANCH   6   8
ATOM      8  C   UNL     1       6.980   0.629   1.003  0.00  0.00    -0.051 C 
BRANCH   8  10
ATOM      9  C   UNL     1       8.175  -0.835   2.548  0.00  0.00    +0.002 C 
ATOM     10  C   UNL     1       7.037  -0.510   1.987  0.00  0.00    -0.053 C 
ENDBRANCH   8  10
ENDBRANCH   6   8
BRANCH   6  11
ATOM     11  C   UNL     1       7.163  -0.913  -0.855  0.00  0.00    -0.034 C 
BRANCH  11  12
ATOM     12  C   UNL     1       8.504  -0.371  -1.277  0.00  0.00    -0.025 A 
ATOM     13  C   UNL     1       9.683  -0.398  -0.610  0.00  0.00    +0.011 A 
ATOM     14  C   UNL     1      10.800   0.167  -1.198  0.00  0.00    +0.028 A 
ATOM     15  C   UNL     1      10.681   0.733  -2.425  0.00  0.00    +0.078 A 
ATOM     16  S   UNL     1       8.953   0.467  -2.788  0.00  0.00    -0.084 S 
ATOM     17 CL   UNL     1      11.895   1.508  -3.394  0.00  0.00    -0.076 Cl
ENDBRANCH  11  12
ENDBRANCH   6  11
ENDBRANCH   5   6
ENDBRANCH   1   5
BRANCH   3  18
ATOM     18  C   UNL     1       2.012   1.927   0.988  0.00  0.00    +0.200 C 
BRANCH  18  19
ATOM     19  C   UNL     1       0.588   1.486   1.214  0.00  0.00    +0.234 C 
ATOM     20  O   UNL     1       0.285   0.320   1.073  0.00  0.00    -0.274 OA
ATOM     21  N   UNL     1      -0.349   2.388   1.566  0.00  0.00    -0.283 N 
ATOM     22  H   UNL     1      -0.093   3.306   1.750  0.00  0.00    +0.155 HD
BRANCH  21  23
ATOM     23  C   UNL     1      -1.690   2.001   1.668  0.00  0.00    +0.047 A 
ATOM     24  C   UNL     1      -2.014   0.724   2.104  0.00  0.00    +0.024 A 
ATOM     25  C   UNL     1      -3.339   0.347   2.209  0.00  0.00    +0.002 A 
ATOM     26  C   UNL     1      -4.342   1.236   1.868  0.00  0.00    +0.001 A 
ATOM     27  C   UNL     1      -4.023   2.507   1.428  0.00  0.00    +0.017 A 
ATOM     28  C   UNL     1      -2.699   2.893   1.327  0.00  0.00    +0.039 A 
ATOM     29 BR   UNL     1      -2.264   4.631   0.723  0.00  0.00    -0.048 Br
ENDBRANCH  21  23
ENDBRANCH  18  19
ENDBRANCH   3  18
TORSDOF 9
