REMARK  Name = ZINC36588399
REMARK  15 active torsions:
REMARK  status: ('A' for Active; 'I' for Inactive)
REMARK    1  A    between atoms: C_1  and  C_2
REMARK    2  A    between atoms: C_2  and  C_3
REMARK    3  A    between atoms: C_2  and  C_4
REMARK    4  A    between atoms: C_2  and  N_5
REMARK    5  A    between atoms: C_6  and  C_8
REMARK    6  A    between atoms: C_8  and  C_10
REMARK    7  A    between atoms: C_8  and  N_23
REMARK    8  A    between atoms: C_10  and  C_11
REMARK    9  A    between atoms: C_10  and  C_17
REMARK   10  A    between atoms: N_23  and  C_36
REMARK   11  A    between atoms: C_24  and  C_26
REMARK   12  A    between atoms: C_26  and  C_27
REMARK   13  A    between atoms: C_36  and  C_37
REMARK   14  A    between atoms: C_36  and  C_38
REMARK   15  A    between atoms: C_36  and  C_39
REMARK                            x       y       z     vdW  Elec       q    Type
REMARK                         _______ _______ _______ _____ _____    ______ ____
ROOT
ATOM      1  C   UNL     1       1.797  -0.924  -2.793  0.00  0.00    +0.174 C 
ENDROOT
BRANCH   1   3
ATOM      2  N   UNL     1       0.235  -0.981  -0.875  0.00  0.00    -0.309 N 
ATOM      3  C   UNL     1       1.424  -0.586  -1.372  0.00  0.00    +0.235 C 
ATOM      4  O   UNL     1       2.195   0.041  -0.676  0.00  0.00    -0.274 OA
ATOM      5  H   UNL     1      -0.349  -1.544  -1.406  0.00  0.00    +0.149 HD
BRANCH   2   7
ATOM      6  C   UNL     1      -0.205   0.969   0.535  0.00  0.00    +0.031 C 
ATOM      7  C   UNL     1      -0.174  -0.559   0.467  0.00  0.00    +0.026 C 
ATOM      8  C   UNL     1       0.823  -1.095   1.496  0.00  0.00    +0.031 C 
ATOM      9  C   UNL     1      -1.568  -1.111   0.772  0.00  0.00    +0.031 C 
ENDBRANCH   2   7
ENDBRANCH   1   3
BRANCH   1  10
ATOM     10  N   UNL     1       3.212  -0.615  -3.013  0.00  0.00    -0.284 N 
ATOM     11  C   UNL     1       3.634   0.665  -2.984  0.00  0.00    +0.221 C 
ATOM     12  O   UNL     1       2.862   1.552  -2.689  0.00  0.00    -0.275 OA
BRANCH  10  13
ATOM     13  C   UNL     1       4.167  -1.696  -3.265  0.00  0.00    +0.030 C 
ATOM     14  C   UNL     1       3.407  -2.999  -3.519  0.00  0.00    +0.031 C 
ATOM     15  C   UNL     1       5.014  -1.353  -4.492  0.00  0.00    +0.031 C 
ATOM     16  C   UNL     1       5.079  -1.865  -2.048  0.00  0.00    +0.031 C 
ENDBRANCH  10  13
BRANCH  11  17
ATOM     17  C   UNL     1       5.067   0.993  -3.318  0.00  0.00    +0.131 C 
BRANCH  17  18
ATOM     18  C   UNL     1       5.312   2.462  -3.088  0.00  0.00    -0.035 A 
ATOM     19  C   UNL     1       5.102   3.365  -4.114  0.00  0.00    +0.008 A 
ATOM     20  C   UNL     1       5.325   4.714  -3.908  0.00  0.00    +0.050 A 
ATOM     21  C   UNL     1       5.761   5.164  -2.672  0.00  0.00    +0.166 A 
ATOM     22  C   UNL     1       5.973   4.254  -1.639  0.00  0.00    +0.166 A 
ATOM     23  C   UNL     1       5.741   2.904  -1.851  0.00  0.00    +0.053 A 
ATOM     24  O   UNL     1       6.395   4.937  -0.535  0.00  0.00    -0.453 OA
ATOM     25  C   UNL     1       6.831   6.221  -1.021  0.00  0.00    +0.466 C 
ATOM     26  O   UNL     1       6.051   6.417  -2.216  0.00  0.00    -0.453 OA
ENDBRANCH  17  18
ENDBRANCH  11  17
ENDBRANCH   1  10
BRANCH   1  27
ATOM     27  C   UNL     1       0.939  -0.100  -3.755  0.00  0.00    +0.078 C 
BRANCH  27  28
ATOM     28  C   UNL     1       1.429  -0.303  -5.165  0.00  0.00    -0.038 A 
ATOM     29  C   UNL     1       1.400  -1.563  -5.732  0.00  0.00    +0.004 A 
ATOM     30  C   UNL     1       1.850  -1.749  -7.026  0.00  0.00    +0.000 A 
ATOM     31  C   UNL     1       2.329  -0.675  -7.753  0.00  0.00    +0.000 A 
ATOM     32  C   UNL     1       2.357   0.585  -7.186  0.00  0.00    +0.000 A 
ATOM     33  C   UNL     1       1.903   0.772  -5.893  0.00  0.00    +0.004 A 
ENDBRANCH  27  28
BRANCH  27  34
ATOM     34  C   UNL     1      -0.497  -0.545  -3.654  0.00  0.00    -0.038 A 
ATOM     35  C   UNL     1      -0.808  -1.892  -3.684  0.00  0.00    +0.004 A 
ATOM     36  C   UNL     1      -2.125  -2.300  -3.591  0.00  0.00    +0.000 A 
ATOM     37  C   UNL     1      -3.132  -1.361  -3.467  0.00  0.00    +0.000 A 
ATOM     38  C   UNL     1      -2.822  -0.015  -3.436  0.00  0.00    +0.000 A 
ATOM     39  C   UNL     1      -1.504   0.393  -3.525  0.00  0.00    +0.004 A 
ENDBRANCH  27  34
ENDBRANCH   1  27
TORSDOF 9
