REMARK  Name = ZINC22849455
REMARK  13 active torsions:
REMARK  status: ('A' for Active; 'I' for Inactive)
REMARK    1  A    between atoms: C_1  and  C_2
REMARK    2  A    between atoms: C_2  and  C_3
REMARK    3  A    between atoms: C_3  and  C_5
REMARK    4  A    between atoms: C_3  and  N_6
REMARK    5  A    between atoms: N_6  and  C_7
REMARK    6  A    between atoms: C_7  and  C_8
REMARK    7  A    between atoms: N_10  and  C_11
REMARK    8  A    between atoms: C_15  and  C_18
REMARK    9  A    between atoms: C_16  and  C_17
REMARK   10  A    between atoms: C_19  and  C_21
REMARK   11  A    between atoms: C_21  and  N_22
REMARK   12  A    between atoms: N_25  and  C_28
REMARK   13  A    between atoms: C_28  and  C_29
REMARK                            x       y       z     vdW  Elec       q    Type
REMARK                         _______ _______ _______ _____ _____    ______ ____
ROOT
ATOM      1  N   UNL     1      -0.954   2.640   1.595  0.00  0.00    -0.291 N 
ATOM      2  C   UNL     1      -2.072   3.388   1.679  0.00  0.00    +0.200 C 
ATOM      3  O   UNL     1      -2.009   4.591   1.540  0.00  0.00    -0.278 OA
ENDROOT
BRANCH   1   4
ATOM      4  C   UNL     1      -1.030   1.187   1.763  0.00  0.00    +0.073 C 
ATOM      5  C   UNL     1      -0.049   0.747   2.851  0.00  0.00    +0.028 C 
BRANCH   4   7
ATOM      6  C   UNL     1      -1.740   0.816  -0.604  0.00  0.00    +0.005 C 
ATOM      7  C   UNL     1      -0.670   0.501   0.444  0.00  0.00    +0.019 C 
ENDBRANCH   4   7
ENDBRANCH   1   4
BRANCH   1   8
ATOM      8  C   UNL     1       0.338   3.280   1.335  0.00  0.00    +0.204 C 
BRANCH   8   9
ATOM      9  C   UNL     1       0.507   3.486  -0.148  0.00  0.00    +0.235 C 
ATOM     10  O   UNL     1      -0.404   3.224  -0.904  0.00  0.00    -0.274 OA
ATOM     11  N   UNL     1       1.671   3.962  -0.634  0.00  0.00    -0.284 N 
ATOM     12  H   UNL     1       2.525   4.120   0.041  0.00  0.00    +0.155 HD
BRANCH  11  13
ATOM     13  C   UNL     1       1.793   4.254  -1.997  0.00  0.00    +0.037 A 
ATOM     14  C   UNL     1       1.036   3.555  -2.929  0.00  0.00    +0.023 A 
ATOM     15  C   UNL     1       1.159   3.846  -4.273  0.00  0.00    +0.002 A 
ATOM     16  C   UNL     1       2.034   4.832  -4.692  0.00  0.00    +0.004 A 
ATOM     17  C   UNL     1       2.789   5.529  -3.767  0.00  0.00    -0.046 A 
ATOM     18  C   UNL     1       2.666   5.247  -2.420  0.00  0.00    -0.026 A 
ATOM     19  C   UNL     1       3.485   6.012  -1.411  0.00  0.00    +0.046 C 
ATOM     20  C   UNL     1       3.741   6.602  -4.227  0.00  0.00    +0.044 C 
ENDBRANCH  11  13
ENDBRANCH   8   9
ENDBRANCH   1   8
BRANCH   2  21
ATOM     21  C   UNL     1      -3.401   2.729   1.946  0.00  0.00    +0.019 C 
BRANCH  21  22
ATOM     22  N   UNL     1      -4.454   3.752   1.991  0.00  0.00    +0.387 N 
ATOM     23  C   UNL     1      -4.272   4.645   3.144  0.00  0.00    -0.063 C 
ATOM     24  C   UNL     1      -5.340   5.741   3.110  0.00  0.00    +0.066 C 
ATOM     25  N   UNL     1      -6.673   5.124   3.132  0.00  0.00    -0.298 NA
ATOM     26  C   UNL     1      -6.855   4.231   1.979  0.00  0.00    +0.066 C 
ATOM     27  C   UNL     1      -5.788   3.135   2.012  0.00  0.00    -0.063 C 
ATOM     28  H   UNL     1      -4.375   4.358   1.076  0.00  0.00    -0.081 HD
BRANCH  25  29
ATOM     29  C   UNL     1      -7.727   6.146   3.176  0.00  0.00    +0.180 C 
BRANCH  29  30
ATOM     30  C   UNL     1      -7.656   6.883   4.489  0.00  0.00    +0.230 C 
ATOM     31  O   UNL     1      -6.811   6.586   5.307  0.00  0.00    -0.274 OA
ATOM     32  N   UNL     1      -8.531   7.873   4.755  0.00  0.00    -0.300 N 
ATOM     33  C   UNL     1      -9.556   8.249   3.772  0.00  0.00    +0.108 C 
ATOM     34  C   UNL     1     -10.931   8.201   4.456  0.00  0.00    +0.019 C 
ATOM     35  C   UNL     1     -10.903   9.085   5.705  0.00  0.00    +0.003 C 
ATOM     36  C   UNL     1      -9.857   8.552   6.687  0.00  0.00    +0.019 C 
ATOM     37  C   UNL     1      -8.475   8.601   6.030  0.00  0.00    +0.108 C 
ENDBRANCH  29  30
ENDBRANCH  25  29
ENDBRANCH  21  22
ENDBRANCH   2  21
TORSDOF 9
