REMARK  Name = ZINC35691200
REMARK  4 active torsions:
REMARK  status: ('A' for Active; 'I' for Inactive)
REMARK    1  A    between atoms: C_1  and  C_2
REMARK    2  A    between atoms: C_2  and  C_4
REMARK    3  A    between atoms: C_2  and  N_11
REMARK    4  A    between atoms: N_14  and  C_15
REMARK                            x       y       z     vdW  Elec       q    Type
REMARK                         _______ _______ _______ _____ _____    ______ ____
ROOT
ATOM      1  N   UNL     1       0.711  -0.489   1.189  0.00  0.00    -0.298 N 
ATOM      2  C   UNL     1       2.054  -0.600   1.174  0.00  0.00    +0.300 C 
ATOM      3  O   UNL     1       2.677  -0.297   0.175  0.00  0.00    -0.253 OA
ATOM      4  N   UNL     1       2.706  -1.046   2.266  0.00  0.00    -0.297 N 
ATOM      5  H   UNL     1       0.213  -0.731   1.986  0.00  0.00    +0.150 HD
ATOM      6  H   UNL     1       2.208  -1.288   3.062  0.00  0.00    +0.151 HD
ENDROOT
BRANCH   4   7
ATOM      7  C   UNL     1       4.166  -1.166   2.249  0.00  0.00    +0.074 C 
ATOM      8  C   UNL     1       4.560  -2.515   1.643  0.00  0.00    +0.022 C 
ATOM      9  C   UNL     1       6.084  -2.640   1.626  0.00  0.00    +0.002 C 
ATOM     10  C   UNL     1       6.620  -2.548   3.056  0.00  0.00    +0.000 C 
ATOM     11  C   UNL     1       6.226  -1.200   3.662  0.00  0.00    +0.002 C 
ATOM     12  C   UNL     1       4.701  -1.074   3.679  0.00  0.00    +0.022 C 
ENDBRANCH   4   7
BRANCH   1  14
ATOM     13  C   UNL     1      -0.019   1.526   0.010  0.00  0.00    +0.026 C 
ATOM     14  C   UNL     1       0.002  -0.004   0.002  0.00  0.00    +0.057 C 
BRANCH  14  15
ATOM     15  C   UNL     1      -1.433  -0.534   0.013  0.00  0.00    -0.051 C 
ATOM     16  C   UNL     1      -1.412  -2.064   0.006  0.00  0.00    -0.014 C 
ATOM     17  C   UNL     1      -2.850  -2.589   0.017  0.00  0.00    -0.003 C 
ATOM     18  C   UNL     1      -3.603  -2.014  -1.186  0.00  0.00    -0.019 C 
ATOM     19  C   UNL     1      -3.543  -0.485  -1.135  0.00  0.00    -0.082 C 
ATOM     20  N   UNL     1      -2.143  -0.046  -1.176  0.00  0.00    +0.382 N 
ATOM     21  H   UNL     1      -2.109   0.962  -1.196  0.00  0.00    -0.085 HD
ATOM     22  H   UNL     1      -1.700  -0.412  -2.005  0.00  0.00    -0.085 HD
ENDBRANCH  14  15
ENDBRANCH   1  14
TORSDOF 3
