REMARK  Name = ZINC36066426
REMARK  12 active torsions:
REMARK  status: ('A' for Active; 'I' for Inactive)
REMARK    1  A    between atoms: C_1  and  C_2
REMARK    2  A    between atoms: C_8  and  N_10
REMARK    3  A    between atoms: C_11  and  C_13
REMARK    4  A    between atoms: C_21  and  C_33
REMARK    5  A    between atoms: N_27  and  C_28
REMARK    6  A    between atoms: C_28  and  C_29
REMARK    7  A    between atoms: C_29  and  C_30
REMARK    8  A    between atoms: C_30  and  C_31
REMARK    9  A    between atoms: C_30  and  C_32
REMARK   10  A    between atoms: N_35  and  C_36
REMARK   11  A    between atoms: C_40  and  O_42
REMARK   12  A    between atoms: O_42  and  C_43
REMARK                            x       y       z     vdW  Elec       q    Type
REMARK                         _______ _______ _______ _____ _____    ______ ____
ROOT
ATOM      1  C   UNL     1       3.960   0.072   2.273  0.00  0.00    +0.198 C 
ATOM      2  C   UNL     1       5.107  -0.874   2.095  0.00  0.00    +0.127 C 
ATOM      3  C   UNL     1       4.979  -2.122   2.949  0.00  0.00    +0.009 C 
ATOM      4  C   UNL     1       6.050  -2.855   2.678  0.00  0.00    +0.004 C 
ATOM      5  C   UNL     1       6.868  -2.012   1.692  0.00  0.00    +0.155 C 
ATOM      6  O   UNL     1       5.790  -1.310   0.943  0.00  0.00    -0.358 OA
ATOM      7  C   UNL     1       7.444  -0.876   2.625  0.00  0.00    +0.123 C 
ATOM      8  C   UNL     1       6.231   0.049   2.716  0.00  0.00    +0.128 C 
ATOM      9  C   UNL     1       5.552   0.499   3.945  0.00  0.00    +0.223 C 
ATOM     10  O   UNL     1       6.074   0.727   5.016  0.00  0.00    -0.275 OA
ATOM     11  N   UNL     1       4.215   0.613   3.645  0.00  0.00    -0.287 N 
ENDROOT
BRANCH   1  13
ATOM     12  N   UNL     1       1.960  -0.732   1.059  0.00  0.00    -0.311 N 
ATOM     13  C   UNL     1       2.644  -0.660   2.219  0.00  0.00    +0.237 C 
ATOM     14  O   UNL     1       2.201  -1.186   3.218  0.00  0.00    -0.274 OA
ATOM     15  H   UNL     1       2.315  -0.311   0.260  0.00  0.00    +0.149 HD
BRANCH  12  22
ATOM     16  C   UNL     1      -0.419   0.603   0.087  0.00  0.00    +0.009 C 
ATOM     17  C   UNL     1      -0.164  -0.888  -0.142  0.00  0.00    +0.006 C 
ATOM     18  C   UNL     1      -1.500  -1.632  -0.197  0.00  0.00    +0.005 C 
ATOM     19  C   UNL     1      -1.245  -3.123  -0.426  0.00  0.00    +0.000 C 
ATOM     20  C   UNL     1      -0.400  -3.678   0.722  0.00  0.00    +0.002 C 
ATOM     21  C   UNL     1       0.936  -2.934   0.777  0.00  0.00    +0.022 C 
ATOM     22  C   UNL     1       0.681  -1.443   1.006  0.00  0.00    +0.076 C 
ENDBRANCH  12  22
ENDBRANCH   1  13
BRANCH   7  23
ATOM     23  C   UNL     1       7.830  -1.427   3.973  0.00  0.00    +0.224 C 
ATOM     24  O   UNL     1       7.281  -1.019   4.975  0.00  0.00    -0.275 OA
ATOM     25  N   UNL     1       8.784  -2.375   4.066  0.00  0.00    -0.285 N 
ATOM     26  H   UNL     1       9.170  -2.755   3.262  0.00  0.00    +0.155 HD
BRANCH  25  27
ATOM     27  C   UNL     1       9.218  -2.809   5.323  0.00  0.00    +0.037 A 
ATOM     28  C   UNL     1       9.616  -4.128   5.504  0.00  0.00    +0.023 A 
ATOM     29  C   UNL     1      10.044  -4.557   6.745  0.00  0.00    +0.005 A 
ATOM     30  C   UNL     1      10.079  -3.676   7.810  0.00  0.00    +0.046 A 
ATOM     31  C   UNL     1       9.683  -2.358   7.635  0.00  0.00    +0.122 A 
ATOM     32  C   UNL     1       9.258  -1.922   6.389  0.00  0.00    +0.069 A 
BRANCH  31  33
ATOM     33  O   UNL     1       9.717  -1.493   8.683  0.00  0.00    -0.495 OA
ATOM     34  C   UNL     1      10.171  -2.010   9.935  0.00  0.00    +0.277 C 
ENDBRANCH  31  33
ENDBRANCH  25  27
ENDBRANCH   7  23
BRANCH  11  35
ATOM     35  C   UNL     1       3.196   1.176   4.533  0.00  0.00    +0.109 C 
BRANCH  35  36
ATOM     36  C   UNL     1       3.014   2.663   4.223  0.00  0.00    +0.022 C 
BRANCH  36  37
ATOM     37  C   UNL     1       2.046   3.281   5.234  0.00  0.00    -0.016 C 
ATOM     38  C   UNL     1       1.962   4.791   5.002  0.00  0.00    +0.007 C 
ATOM     39  C   UNL     1       0.660   2.659   5.058  0.00  0.00    +0.007 C 
ENDBRANCH  36  37
ENDBRANCH  35  36
ENDBRANCH  11  35
TORSDOF 8
