REMARK  Name = ZINC63225286
REMARK  10 active torsions:
REMARK  status: ('A' for Active; 'I' for Inactive)
REMARK    1  A    between atoms: C_1  and  C_2
REMARK    2  A    between atoms: C_8  and  C_37
REMARK    3  A    between atoms: C_9  and  O_36
REMARK    4  A    between atoms: C_19  and  C_21
REMARK    5  A    between atoms: C_21  and  N_22
REMARK    6  A    between atoms: N_22  and  C_23
REMARK    7  A    between atoms: C_23  and  C_24
REMARK    8  A    between atoms: C_24  and  C_25
REMARK    9  A    between atoms: C_28  and  O_34
REMARK   10  A    between atoms: O_34  and  C_35
REMARK                            x       y       z     vdW  Elec       q    Type
REMARK                         _______ _______ _______ _____ _____    ______ ____
ROOT
ATOM      1  C   UNL     1      -0.019   1.546   0.011  0.00  0.00    +0.008 C 
ATOM      2  C   UNL     1       0.002  -0.004   0.002  0.00  0.00    -0.001 C 
ATOM      3  C   UNL     1      -1.386  -0.509  -0.179  0.00  0.00    +0.008 C 
ATOM      4  C   UNL     1      -1.282  -2.013  -0.445  0.00  0.00    +0.027 C 
ATOM      5  C   UNL     1      -0.652  -2.617   0.754  0.00  0.00    -0.027 C 
ATOM      6  C   UNL     1       0.231  -2.015   1.446  0.00  0.00    -0.061 C 
ATOM      7  C   UNL     1       0.730  -0.537   1.251  0.00  0.00    +0.018 C 
ATOM      8  C   UNL     1       0.497   0.273   2.451  0.00  0.00    +0.132 C 
ATOM      9  C   UNL     1       0.905  -0.452   3.735  0.00  0.00    +0.071 C 
ATOM     10  C   UNL     1       0.475  -1.970   3.866  0.00  0.00    +0.187 C 
ATOM     11  C   UNL     1       0.893  -2.672   2.672  0.00  0.00    +0.076 C 
ATOM     12  O   UNL     1       1.363  -2.369   4.928  0.00  0.00    -0.460 OA
ATOM     13  C   UNL     1       2.638  -1.888   4.699  0.00  0.00    +0.309 C 
ATOM     14  O   UNL     1       3.760  -2.368   4.786  0.00  0.00    -0.251 OA
ATOM     15  C   UNL     1       2.370  -0.472   4.182  0.00  0.00    +0.090 C 
ATOM     16  C   UNL     1       2.241  -0.645   0.805  0.00  0.00    +0.018 C 
ENDROOT
BRANCH   8  17
ATOM     17  O   UNL     1       1.404   1.377   2.430  0.00  0.00    -0.391 OA
ATOM     18  H   UNL     1       1.320   1.969   3.190  0.00  0.00    +0.210 HD
ENDBRANCH   8  17
BRANCH  15  19
ATOM     19  C   UNL     1       2.569   0.572   5.274  0.00  0.00    -0.067 C 
BRANCH  19  20
ATOM     20  N   UNL     1       3.993   0.646   5.627  0.00  0.00    +0.380 N 
ATOM     21  H   UNL     1       4.304  -0.253   5.961  0.00  0.00    -0.086 HD
ATOM     22  H   UNL     1       4.528   0.906   4.812  0.00  0.00    -0.086 HD
BRANCH  20  23
ATOM     23  C   UNL     1       4.184   1.653   6.680  0.00  0.00    -0.078 C 
BRANCH  23  24
ATOM     24  C   UNL     1       5.667   1.731   7.048  0.00  0.00    +0.014 C 
BRANCH  24  25
ATOM     25  C   UNL     1       5.863   2.763   8.128  0.00  0.00    -0.043 C 
ATOM     26  C   UNL     1       5.920   2.544   9.461  0.00  0.00    +0.002 A 
ATOM     27  C   UNL     1       5.820   1.328  10.275  0.00  0.00    +0.055 A 
ATOM     28  C   UNL     1       5.916   1.418  11.623  0.00  0.00    +0.121 A 
ATOM     29  C   UNL     1       6.109   2.645  12.281  0.00  0.00    +0.047 A 
ATOM     30  C   UNL     1       6.213   3.817  11.619  0.00  0.00    +0.029 A 
ATOM     31  C   UNL     1       6.124   3.837  10.156  0.00  0.00    +0.043 A 
ATOM     32  N   UNL     1       6.190   4.814   9.287  0.00  0.00    -0.380 N 
ATOM     33  C   UNL     1       6.042   4.253   7.939  0.00  0.00    +0.144 C 
ATOM     34  H   UNL     1       6.319   5.752   9.499  0.00  0.00    +0.160 HD
BRANCH  28  35
ATOM     35  O   UNL     1       5.821   0.283  12.365  0.00  0.00    -0.495 OA
ATOM     36  C   UNL     1       5.928   0.424  13.783  0.00  0.00    +0.277 C 
ENDBRANCH  28  35
ENDBRANCH  24  25
ENDBRANCH  23  24
ENDBRANCH  20  23
ENDBRANCH  19  20
ENDBRANCH  15  19
TORSDOF 7
