REMARK  Name = ZINC09433781
REMARK  14 active torsions:
REMARK  status: ('A' for Active; 'I' for Inactive)
REMARK    1  A    between atoms: C_1  and  C_2
REMARK    2  A    between atoms: C_2  and  C_3
REMARK    3  A    between atoms: C_3  and  C_5
REMARK    4  A    between atoms: C_3  and  N_69
REMARK    5  A    between atoms: C_6  and  C_7
REMARK    6  A    between atoms: C_6  and  N_69
REMARK    7  A    between atoms: C_7  and  C_8
REMARK    8  A    between atoms: C_8  and  N_9
REMARK    9  A    between atoms: C_10  and  C_12
REMARK   10  A    between atoms: N_14  and  C_23
REMARK   11  A    between atoms: C_26  and  O_29
REMARK   12  A    between atoms: O_29  and  C_30
REMARK   13  A    between atoms: C_31  and  C_32
REMARK   14  A    between atoms: C_31  and  N_69
REMARK                            x       y       z     vdW  Elec       q    Type
REMARK                         _______ _______ _______ _____ _____    ______ ____
ROOT
ATOM      1  N   UNL     1       4.582   6.034   2.715  0.00  0.00    -0.311 N 
ATOM      2  C   UNL     1       4.866   7.233   3.261  0.00  0.00    +0.246 C 
ATOM      3  O   UNL     1       5.094   8.189   2.544  0.00  0.00    -0.270 OA
ATOM      4  H   UNL     1       4.327   5.290   3.283  0.00  0.00    +0.149 HD
ENDROOT
BRANCH   2   5
ATOM      5  C   UNL     1       4.902   7.385   4.723  0.00  0.00    +0.061 A 
ATOM      6  C   UNL     1       4.777   6.297   5.534  0.00  0.00    +0.108 A 
ATOM      7  N   UNL     1       4.810   6.396   6.887  0.00  0.00    -0.283 N 
ATOM      8  C   UNL     1       4.957   7.574   7.523  0.00  0.00    +0.263 A 
ATOM      9  O   UNL     1       4.975   7.615   8.739  0.00  0.00    -0.267 OA
ATOM     10  C   UNL     1       5.093   8.809   6.741  0.00  0.00    +0.048 A 
ATOM     11  C   UNL     1       5.066   8.717   5.332  0.00  0.00    +0.001 A 
ATOM     12  C   UNL     1       5.195   9.868   4.561  0.00  0.00    +0.009 A 
ATOM     13  C   UNL     1       5.347  11.089   5.182  0.00  0.00    +0.001 A 
ATOM     14  C   UNL     1       5.373  11.181   6.567  0.00  0.00    +0.001 A 
ATOM     15  C   UNL     1       5.248  10.053   7.349  0.00  0.00    +0.014 A 
BRANCH   7  16
ATOM     16  C   UNL     1       4.680   5.229   7.651  0.00  0.00    +0.050 A 
ATOM     17  C   UNL     1       5.715   4.828   8.486  0.00  0.00    +0.030 A 
ATOM     18  C   UNL     1       5.585   3.680   9.243  0.00  0.00    +0.047 A 
ATOM     19  C   UNL     1       4.425   2.923   9.162  0.00  0.00    +0.120 A 
ATOM     20  C   UNL     1       3.394   3.320   8.323  0.00  0.00    +0.047 A 
ATOM     21  C   UNL     1       3.520   4.470   7.570  0.00  0.00    +0.030 A 
BRANCH  19  22
ATOM     22  O   UNL     1       4.300   1.790   9.903  0.00  0.00    -0.495 OA
ATOM     23  C   UNL     1       5.401   1.441  10.745  0.00  0.00    +0.277 C 
ENDBRANCH  19  22
ENDBRANCH   7  16
ENDBRANCH   2   5
BRANCH   1  24
ATOM     24  C   UNL     1       4.657   5.854   1.263  0.00  0.00    +0.102 C 
BRANCH  24  25
ATOM     25  C   UNL     1       4.288   4.412   0.908  0.00  0.00    +0.000 C 
BRANCH  25  26
ATOM     26  C   UNL     1       4.367   4.223  -0.608  0.00  0.00    -0.076 C 
BRANCH  26  27
ATOM     27  N   UNL     1       3.868   2.874  -0.946  0.00  0.00    +0.386 N 
ATOM     28  H   UNL     1       2.996   2.702  -0.431  0.00  0.00    -0.081 HD
BRANCH  27  29
ATOM     29  C   UNL     1       4.864   1.854  -0.554  0.00  0.00    -0.071 C 
ATOM     30  C   UNL     1       4.134   0.539  -0.279  0.00  0.00    -0.013 C 
BRANCH  29  32
ATOM     31  C   UNL     1       6.650   2.948  -1.917  0.00  0.00    +0.002 C 
ATOM     32  C   UNL     1       5.884   1.646  -1.676  0.00  0.00    -0.019 C 
ENDBRANCH  29  32
ENDBRANCH  27  29
BRANCH  27  33
ATOM     33  C   UNL     1       3.596   2.784  -2.396  0.00  0.00    -0.003 C 
BRANCH  33  34
ATOM     34  C   UNL     1       2.693   1.604  -2.645  0.00  0.00    +0.089 A 
ATOM     35  C   UNL     1       1.355   1.595  -2.508  0.00  0.00    +0.042 A 
ATOM     36  C   UNL     1       0.917   0.292  -2.842  0.00  0.00    +0.041 A 
ATOM     37  C   UNL     1       2.014  -0.416  -3.164  0.00  0.00    +0.195 A 
ATOM     38  O   UNL     1       3.087   0.383  -3.043  0.00  0.00    -0.470 OA
ENDBRANCH  33  34
ENDBRANCH  27  33
ENDBRANCH  26  27
ENDBRANCH  25  26
ENDBRANCH  24  25
ENDBRANCH   1  24
TORSDOF 11
