REMARK  Name = ZINC39636031
REMARK  6 active torsions:
REMARK  status: ('A' for Active; 'I' for Inactive)
REMARK    1  A    between atoms: C_1  and  C_2
REMARK    2  A    between atoms: C_8  and  N_10
REMARK    3  A    between atoms: C_11  and  C_13
REMARK    4  A    between atoms: C_24  and  C_26
REMARK    5  A    between atoms: C_31  and  S_32
REMARK    6  A    between atoms: S_32  and  C_33
REMARK                            x       y       z     vdW  Elec       q    Type
REMARK                         _______ _______ _______ _____ _____    ______ ____
ROOT
ATOM      1  C   UNL     1      -0.255   0.280   5.301  0.00  0.00    +0.100 C 
ATOM      2  C   UNL     1      -0.584   1.741   4.922  0.00  0.00    +0.121 C 
ATOM      3  N   UNL     1      -0.264   2.524   6.139  0.00  0.00    -0.296 N 
ATOM      4  C   UNL     1       0.974   1.900   6.664  0.00  0.00    +0.115 C 
ATOM      5  C   UNL     1       0.768   0.388   6.444  0.00  0.00    -0.004 C 
ATOM      6  C   UNL     1       2.084  -0.270   6.039  0.00  0.00    -0.010 C 
ATOM      7  C   UNL     1       3.066  -0.201   7.212  0.00  0.00    -0.082 C 
ATOM      8  N   UNL     1       2.490  -0.887   8.375  0.00  0.00    +0.379 N 
ATOM      9  C   UNL     1       1.274  -0.192   8.815  0.00  0.00    -0.082 C 
ATOM     10  C   UNL     1       0.217  -0.260   7.710  0.00  0.00    -0.010 C 
ATOM     11  C   UNL     1      -0.945   3.567   6.652  0.00  0.00    +0.249 C 
ATOM     12  O   UNL     1      -0.502   4.171   7.611  0.00  0.00    -0.270 OA
ATOM     13  H   UNL     1       2.261  -1.837   8.125  0.00  0.00    -0.086 HD
ATOM     14  H   UNL     1       3.163  -0.893   9.127  0.00  0.00    -0.086 HD
ENDROOT
BRANCH  11  15
ATOM     15  C   UNL     1      -2.228   3.977   6.053  0.00  0.00    +0.069 A 
ATOM     16  C   UNL     1      -2.428   3.889   4.670  0.00  0.00    +0.017 A 
ATOM     17  C   UNL     1      -3.650   4.286   4.157  0.00  0.00    +0.020 A 
ATOM     18  C   UNL     1      -4.630   4.755   5.014  0.00  0.00    +0.112 A 
ATOM     19  N   UNL     1      -4.422   4.831   6.314  0.00  0.00    -0.248 NA
ATOM     20  C   UNL     1      -3.273   4.459   6.859  0.00  0.00    +0.114 A 
BRANCH  20  21
ATOM     21  S   UNL     1      -3.053   4.576   8.603  0.00  0.00    -0.069 S 
BRANCH  21  22
ATOM     22  C   UNL     1      -4.525   5.363   9.167  0.00  0.00    +0.014 A 
ATOM     23  C   UNL     1      -5.593   4.598   9.623  0.00  0.00    +0.015 A 
ATOM     24  C   UNL     1      -6.745   5.219  10.064  0.00  0.00    +0.001 A 
ATOM     25  C   UNL     1      -6.837   6.598  10.053  0.00  0.00    +0.000 A 
ATOM     26  C   UNL     1      -5.777   7.362   9.600  0.00  0.00    +0.001 A 
ATOM     27  C   UNL     1      -4.619   6.749   9.163  0.00  0.00    +0.015 A 
ENDBRANCH  21  22
ENDBRANCH  20  21
ENDBRANCH  11  15
BRANCH   1  29
ATOM     28  N   UNL     1       0.182  -1.776   3.996  0.00  0.00    -0.312 N 
ATOM     29  C   UNL     1       0.347  -0.445   4.124  0.00  0.00    +0.218 C 
ATOM     30  O   UNL     1       0.981   0.171   3.293  0.00  0.00    -0.275 OA
ATOM     31  H   UNL     1      -0.325  -2.268   4.660  0.00  0.00    +0.149 HD
BRANCH  28  38
ATOM     32  C   UNL     1      -1.480  -3.401   2.268  0.00  0.00    +0.009 C 
ATOM     33  C   UNL     1      -0.026  -3.759   2.580  0.00  0.00    +0.006 C 
ATOM     34  C   UNL     1       0.585  -4.494   1.385  0.00  0.00    +0.005 C 
ATOM     35  C   UNL     1       2.040  -4.853   1.697  0.00  0.00    +0.000 C 
ATOM     36  C   UNL     1       2.833  -3.574   1.970  0.00  0.00    +0.002 C 
ATOM     37  C   UNL     1       2.222  -2.838   3.164  0.00  0.00    +0.022 C 
ATOM     38  C   UNL     1       0.767  -2.480   2.852  0.00  0.00    +0.076 C 
ENDBRANCH  28  38
ENDBRANCH   1  29
TORSDOF 5
