REMARK  Name = ZINC59884569
REMARK  11 active torsions:
REMARK  status: ('A' for Active; 'I' for Inactive)
REMARK    1  A    between atoms: C_2  and  C_3
REMARK    2  A    between atoms: C_3  and  N_4
REMARK    3  A    between atoms: C_5  and  C_25
REMARK    4  A    between atoms: C_8  and  S_9
REMARK    5  A    between atoms: S_9  and  C_10
REMARK    6  A    between atoms: C_10  and  C_11
REMARK    7  A    between atoms: N_13  and  N_14
REMARK    8  A    between atoms: C_15  and  C_16
REMARK    9  A    between atoms: C_21  and  N_22
REMARK   10  A    between atoms: C_25  and  N_26
REMARK   11  A    between atoms: N_26  and  C_27
REMARK                            x       y       z     vdW  Elec       q    Type
REMARK                         _______ _______ _______ _____ _____    ______ ____
ROOT
ATOM      1  N   UNL     1       1.611  -1.750   1.020  0.00  0.00    -0.301 N 
ATOM      2  C   UNL     1       2.080  -1.500   2.280  0.00  0.00    +0.152 A 
ATOM      3  N   UNL     1       1.915  -2.587   2.979  0.00  0.00    -0.132 NA
ATOM      4  N   UNL     1       1.377  -3.501   2.253  0.00  0.00    -0.122 NA
ATOM      5  C   UNL     1       1.164  -3.040   1.042  0.00  0.00    +0.192 A 
ENDROOT
BRANCH   1   6
ATOM      6  C   UNL     1       1.586  -0.825  -0.115  0.00  0.00    +0.152 C 
BRANCH   6   8
ATOM      7  C   UNL     1       0.306   1.254  -0.114  0.00  0.00    +0.005 C 
ATOM      8  C   UNL     1       0.290  -0.055  -0.108  0.00  0.00    -0.013 C 
ENDBRANCH   6   8
ENDBRANCH   1   6
BRANCH   5   9
ATOM      9  S   UNL     1       0.440  -3.921  -0.301  0.00  0.00    -0.077 S 
BRANCH   9  10
ATOM     10  C   UNL     1       0.078  -5.558   0.392  0.00  0.00    +0.174 C 
BRANCH  10  11
ATOM     11  C   UNL     1      -0.553  -6.424  -0.668  0.00  0.00    +0.242 C 
ATOM     12  O   UNL     1      -0.740  -5.981  -1.781  0.00  0.00    -0.273 OA
ATOM     13  N   UNL     1      -0.909  -7.691  -0.378  0.00  0.00    -0.206 N 
ATOM     14  H   UNL     1      -0.760  -8.046   0.512  0.00  0.00    +0.177 HD
BRANCH  13  15
ATOM     15  N   UNL     1      -1.496  -8.496  -1.364  0.00  0.00    -0.188 NA
ATOM     16  C   UNL     1      -1.839  -9.716  -1.085  0.00  0.00    +0.140 C 
BRANCH  16  17
ATOM     17  C   UNL     1      -2.457 -10.564  -2.122  0.00  0.00    +0.025 A 
ATOM     18  C   UNL     1      -2.785 -10.022  -3.368  0.00  0.00    +0.012 A 
ATOM     19  C   UNL     1      -3.362 -10.820  -4.333  0.00  0.00    +0.001 A 
ATOM     20  C   UNL     1      -3.616 -12.155  -4.070  0.00  0.00    +0.002 A 
ATOM     21  C   UNL     1      -3.294 -12.698  -2.839  0.00  0.00    +0.033 A 
ATOM     22  C   UNL     1      -2.710 -11.913  -1.866  0.00  0.00    +0.135 A 
BRANCH  22  23
ATOM     23  N   UNL     1      -2.360 -12.498  -0.552  0.00  0.00    +0.057 N 
ATOM     24  O   UNL     1      -2.479 -13.687  -0.369  0.00  0.00    -0.126 OA
ATOM     25  O   UNL     1      -1.955 -11.786   0.337  0.00  0.00    -0.126 OA
ENDBRANCH  22  23
ENDBRANCH  16  17
ENDBRANCH  13  15
ENDBRANCH  10  11
ENDBRANCH   9  10
ENDBRANCH   5   9
BRANCH   2  26
ATOM     26  C   UNL     1       2.679  -0.205   2.769  0.00  0.00    +0.178 C 
BRANCH  26  27
ATOM     27  N   UNL     1       1.618   0.650   3.308  0.00  0.00    -0.336 N 
ATOM     28  H   UNL     1       0.699   0.341   3.307  0.00  0.00    +0.147 HD
BRANCH  27  29
ATOM     29  C   UNL     1       1.931   1.906   3.822  0.00  0.00    +0.035 A 
ATOM     30  C   UNL     1       3.235   2.353   3.822  0.00  0.00    +0.023 A 
ATOM     31  C   UNL     1       3.558   3.607   4.333  0.00  0.00    +0.002 A 
ATOM     32  C   UNL     1       2.598   4.425   4.847  0.00  0.00    +0.008 A 
ATOM     33  C   UNL     1       1.256   4.007   4.866  0.00  0.00    -0.016 A 
ATOM     34  C   UNL     1       0.914   2.735   4.344  0.00  0.00    +0.003 A 
ATOM     35  C   UNL     1      -0.427   2.321   4.359  0.00  0.00    +0.010 A 
ATOM     36  C   UNL     1      -1.381   3.147   4.870  0.00  0.00    +0.001 A 
ATOM     37  C   UNL     1      -1.046   4.401   5.379  0.00  0.00    +0.001 A 
ATOM     38  C   UNL     1       0.245   4.830   5.391  0.00  0.00    +0.008 A 
ENDBRANCH  27  29
ENDBRANCH  26  27
ENDBRANCH   2  26
TORSDOF 11
