REMARK  Name = ZINC23041824
REMARK  8 active torsions:
REMARK  status: ('A' for Active; 'I' for Inactive)
REMARK    1  A    between atoms: C_1  and  C_2
REMARK    2  A    between atoms: C_5  and  C_16
REMARK    3  A    between atoms: C_7  and  N_8
REMARK    4  A    between atoms: C_9  and  C_11
REMARK    5  A    between atoms: C_21  and  C_24
REMARK    6  A    between atoms: C_24  and  C_25
REMARK    7  A    between atoms: N_31  and  C_32
REMARK    8  A    between atoms: C_32  and  C_33
REMARK                            x       y       z     vdW  Elec       q    Type
REMARK                         _______ _______ _______ _____ _____    ______ ____
ROOT
ATOM      1  C   UNL     1       0.093  -4.263  -0.028  0.00  0.00    +0.250 C 
ATOM      2  O   UNL     1       0.088  -4.866  -1.084  0.00  0.00    -0.270 OA
ATOM      3  N   UNL     1       0.122  -4.942   1.135  0.00  0.00    -0.261 N 
ATOM      4  C   UNL     1       0.147  -6.331   1.129  0.00  0.00    +0.165 A 
ATOM      5  N   UNL     1       0.182  -7.164   2.150  0.00  0.00    -0.229 NA
ATOM      6  C   UNL     1       0.197  -8.470   1.967  0.00  0.00    +0.058 A 
ATOM      7  C   UNL     1       0.188  -8.944   0.697  0.00  0.00    +0.072 A 
ATOM      8  S   UNL     1       0.148  -7.415  -0.228  0.00  0.00    -0.060 S 
ATOM      9  H   UNL     1       0.125  -4.397   2.091  0.00  0.00    +0.157 HD
ENDROOT
BRANCH   1  14
ATOM     10  C   UNL     1      -0.014   1.495   0.015  0.00  0.00    +0.045 C 
ATOM     11  C   UNL     1       0.014  -0.012   0.002  0.00  0.00    -0.029 A 
ATOM     12  C   UNL     1       0.045  -0.711   1.194  0.00  0.00    +0.006 A 
ATOM     13  C   UNL     1       0.070  -2.090   1.190  0.00  0.00    +0.013 A 
ATOM     14  C   UNL     1       0.066  -2.785  -0.021  0.00  0.00    +0.039 A 
ATOM     15  C   UNL     1       0.035  -2.080  -1.224  0.00  0.00    +0.036 A 
ATOM     16  C   UNL     1       0.004  -0.694  -1.209  0.00  0.00    +0.037 A 
BRANCH  16  17
ATOM     17  N   UNL     1      -0.033   0.018  -2.412  0.00  0.00    -0.279 N 
ATOM     18  C   UNL     1      -0.530  -0.561  -3.523  0.00  0.00    +0.284 C 
ATOM     19  O   UNL     1      -1.038  -1.665  -3.458  0.00  0.00    -0.266 OA
ATOM     20  H   UNL     1       0.344   1.051  -2.452  0.00  0.00    +0.155 HD
BRANCH  18  21
ATOM     21  C   UNL     1      -0.458   0.138  -4.810  0.00  0.00    +0.189 A 
ATOM     22  C   UNL     1      -0.921  -0.332  -6.006  0.00  0.00    +0.054 A 
ATOM     23  C   UNL     1      -0.646   0.658  -6.962  0.00  0.00    +0.042 A 
ATOM     24  C   UNL     1      -0.036   1.676  -6.316  0.00  0.00    +0.196 A 
ATOM     25  O   UNL     1       0.071   1.361  -5.019  0.00  0.00    -0.458 OA
ENDBRANCH  18  21
ENDBRANCH  16  17
ENDBRANCH   1  14
BRANCH   6  26
ATOM     26  C   UNL     1       0.231  -9.413   3.142  0.00  0.00    +0.132 C 
BRANCH  26  27
ATOM     27  C   UNL     1       1.401  -9.071   4.028  0.00  0.00    +0.138 A 
ATOM     28  N   UNL     1       2.592  -9.566   3.925  0.00  0.00    -0.158 NA
ATOM     29  N   UNL     1       3.389  -8.994   4.927  0.00  0.00    -0.254 N 
ATOM     30  H   UNL     1       4.449  -9.275   5.014  0.00  0.00    +0.191 HD
ATOM     31  C   UNL     1       2.607  -8.147   5.628  0.00  0.00    +0.176 A 
ATOM     32  S   UNL     1       3.088  -7.195   6.966  0.00  0.00    -0.011 S 
ATOM     33  N   UNL     1       1.376  -8.188   5.079  0.00  0.00    -0.303 N 
BRANCH  33  34
ATOM     34  C   UNL     1       0.211  -7.421   5.527  0.00  0.00    +0.152 C 
BRANCH  34  35
ATOM     35  C   UNL     1      -0.546  -8.216   6.561  0.00  0.00    -0.013 C 
ATOM     36  C   UNL     1      -0.795  -7.692   7.735  0.00  0.00    +0.005 C 
ENDBRANCH  34  35
ENDBRANCH  33  34
ENDBRANCH  26  27
ENDBRANCH   6  26
TORSDOF 7
