REMARK  Name = ZINC40291437
REMARK  9 active torsions:
REMARK  status: ('A' for Active; 'I' for Inactive)
REMARK    1  A    between atoms: C_1  and  C_2
REMARK    2  A    between atoms: C_3  and  C_23
REMARK    3  A    between atoms: C_6  and  O_11
REMARK    4  A    between atoms: C_7  and  C_8
REMARK    5  A    between atoms: C_8  and  N_10
REMARK    6  A    between atoms: O_11  and  C_12
REMARK    7  A    between atoms: C_15  and  C_22
REMARK    8  A    between atoms: C_18  and  C_20
REMARK    9  A    between atoms: C_18  and  C_21
REMARK                            x       y       z     vdW  Elec       q    Type
REMARK                         _______ _______ _______ _____ _____    ______ ____
ROOT
ATOM      1  C   UNL     1      -0.106   1.505   0.023  0.00  0.00    +0.046 C 
ATOM      2  C   UNL     1      -0.040   0.000   0.006  0.00  0.00    -0.013 A 
ATOM      3  C   UNL     1      -0.137  -0.707  -1.181  0.00  0.00    +0.064 A 
ATOM      4  N   UNL     1      -0.077  -2.024  -1.173  0.00  0.00    -0.151 NA
ATOM      5  N   UNL     1       0.071  -2.704  -0.096  0.00  0.00    -0.111 NA
ATOM      6  C   UNL     1       0.174  -2.131   1.093  0.00  0.00    +0.245 A 
ATOM      7  C   UNL     1       0.127  -0.729   1.191  0.00  0.00    +0.071 A 
ATOM      8  C   UNL     1      -0.311   0.031  -2.483  0.00  0.00    +0.068 C 
ENDROOT
BRANCH   7   9
ATOM      9  C   UNL     1       0.245  -0.051   2.496  0.00  0.00    +0.082 C 
ATOM     10  S   UNL     1       1.777   0.476   3.052  0.00  0.00    -0.035 S 
BRANCH   9  11
ATOM     11  N   UNL     1      -0.852   0.155   3.251  0.00  0.00    -0.352 N 
ATOM     12  H   UNL     1      -1.707  -0.209   2.972  0.00  0.00    +0.143 HD
ATOM     13  H   UNL     1      -0.787   0.666   4.073  0.00  0.00    +0.143 HD
ENDBRANCH   9  11
ENDBRANCH   7   9
BRANCH   6  14
ATOM     14  O   UNL     1       0.329  -2.889   2.205  0.00  0.00    -0.472 OA
BRANCH  14  15
ATOM     15  C   UNL     1       0.373  -4.306   2.024  0.00  0.00    +0.176 C 
ATOM     16  C   UNL     1       1.821  -4.747   1.804  0.00  0.00    +0.048 C 
ATOM     17  C   UNL     1       1.868  -6.264   1.610  0.00  0.00    -0.010 C 
ATOM     18  C   UNL     1       1.308  -6.955   2.855  0.00  0.00    +0.010 C 
ATOM     19  C   UNL     1      -0.141  -6.513   3.075  0.00  0.00    -0.031 C 
ATOM     20  C   UNL     1      -0.188  -4.996   3.269  0.00  0.00    +0.051 C 
ATOM     21  C   UNL     1      -0.701  -7.204   4.320  0.00  0.00    +0.011 C 
ATOM     22  C   UNL     1      -0.982  -6.898   1.856  0.00  0.00    +0.011 C 
ATOM     23  C   UNL     1       3.317  -6.705   1.390  0.00  0.00    +0.007 C 
ENDBRANCH  14  15
ENDBRANCH   6  14
TORSDOF 4
