REMARK  Name = ZINC20905214
REMARK  12 active torsions:
REMARK  status: ('A' for Active; 'I' for Inactive)
REMARK    1  A    between atoms: C_1  and  C_2
REMARK    2  A    between atoms: C_3  and  C_11
REMARK    3  A    between atoms: C_4  and  C_10
REMARK    4  A    between atoms: N_5  and  C_7
REMARK    5  A    between atoms: C_7  and  C_8
REMARK    6  A    between atoms: C_7  and  C_9
REMARK    7  A    between atoms: N_12  and  N_13
REMARK    8  A    between atoms: C_16  and  S_19
REMARK    9  A    between atoms: S_19  and  C_20
REMARK   10  A    between atoms: C_20  and  C_21
REMARK   11  A    between atoms: C_29  and  O_33
REMARK   12  A    between atoms: O_33  and  C_34
REMARK                            x       y       z     vdW  Elec       q    Type
REMARK                         _______ _______ _______ _____ _____    ______ ____
ROOT
ATOM      1  N   UNL     1       1.754  -1.722  -0.023  0.00  0.00    -0.205 N 
ATOM      2  C   UNL     1       1.308  -0.409  -0.013  0.00  0.00    +0.232 A 
ATOM      3  N   UNL     1       0.002  -0.004   0.002  0.00  0.00    -0.186 NA
ATOM      4  C   UNL     1      -0.017   1.362   0.009  0.00  0.00    +0.211 A 
ATOM      5  N   UNL     1       1.225   1.784  -0.000  0.00  0.00    -0.144 NA
ATOM      6  N   UNL     1       2.064   0.662  -0.014  0.00  0.00    -0.245 N 
ATOM      7  H   UNL     1       1.030  -2.550  -0.020  0.00  0.00    +0.177 HD
ATOM      8  H   UNL     1       3.159   0.562  -0.025  0.00  0.00    +0.192 HD
ENDROOT
BRANCH   1  10
ATOM      9  C   UNL     1       3.546  -3.223  -0.048  0.00  0.00    +0.141 C 
ATOM     10  N   UNL     1       3.129  -1.995  -0.038  0.00  0.00    -0.187 NA
BRANCH   9  13
ATOM     11  C   UNL     1       5.866  -1.061  -0.059  0.00  0.00    +0.068 C 
ATOM     12  C   UNL     1       6.036  -2.558  -0.068  0.00  0.00    +0.069 A 
ATOM     13  C   UNL     1       4.994  -3.510  -0.063  0.00  0.00    +0.038 A 
ATOM     14  C   UNL     1       5.580  -4.758  -0.069  0.00  0.00    +0.045 A 
ATOM     15  N   UNL     1       6.916  -4.576  -0.087  0.00  0.00    -0.265 N 
ATOM     16  N   UNL     1       7.173  -3.200  -0.083  0.00  0.00    -0.175 NA
ATOM     17  C   UNL     1       4.859  -6.081  -0.062  0.00  0.00    +0.066 C 
BRANCH  15  18
ATOM     18  C   UNL     1       7.926  -5.637  -0.103  0.00  0.00    +0.101 C 
ATOM     19  C   UNL     1       8.788  -5.503  -1.359  0.00  0.00    +0.032 C 
ATOM     20  C   UNL     1       8.811  -5.516   1.139  0.00  0.00    +0.032 C 
ENDBRANCH  15  18
ENDBRANCH   9  13
ENDBRANCH   1  10
BRANCH   4  21
ATOM     21  S   UNL     1      -1.456   2.378   0.022  0.00  0.00    -0.075 S 
BRANCH  21  22
ATOM     22  C   UNL     1      -0.799   4.069   0.028  0.00  0.00    +0.173 C 
BRANCH  22  23
ATOM     23  C   UNL     1      -1.942   5.052   0.039  0.00  0.00    +0.229 C 
ATOM     24  O   UNL     1      -3.086   4.651   0.043  0.00  0.00    -0.275 OA
ATOM     25  N   UNL     1      -1.692   6.376   0.045  0.00  0.00    -0.264 N 
ATOM     26  C   UNL     1      -2.743   7.280   0.055  0.00  0.00    +0.165 A 
ATOM     27  N   UNL     1      -4.033   7.041   0.061  0.00  0.00    -0.225 NA
ATOM     28  C   UNL     1      -4.955   8.030   0.071  0.00  0.00    +0.081 A 
ATOM     29  C   UNL     1      -6.363   7.909   0.079  0.00  0.00    +0.032 A 
ATOM     30  C   UNL     1      -7.163   9.021   0.090  0.00  0.00    +0.048 A 
ATOM     31  C   UNL     1      -6.623  10.304   0.094  0.00  0.00    +0.121 A 
ATOM     32  C   UNL     1      -5.245  10.458   0.087  0.00  0.00    +0.063 A 
ATOM     33  C   UNL     1      -4.439   9.346   0.076  0.00  0.00    +0.044 A 
ATOM     34  S   UNL     1      -2.685   9.066   0.072  0.00  0.00    -0.052 S 
ATOM     35  H   UNL     1      -0.654   6.740   0.042  0.00  0.00    +0.157 HD
BRANCH  31  36
ATOM     36  O   UNL     1      -7.437  11.393   0.105  0.00  0.00    -0.495 OA
ATOM     37  C   UNL     1      -8.845  11.150   0.112  0.00  0.00    +0.277 C 
ENDBRANCH  31  36
ENDBRANCH  22  23
ENDBRANCH  21  22
ENDBRANCH   4  21
TORSDOF 7
