REMARK  Name = ZINC00679488
REMARK  5 active torsions:
REMARK  status: ('A' for Active; 'I' for Inactive)
REMARK    1  A    between atoms: C_4  and  C_7
REMARK    2  A    between atoms: C_8  and  C_24
REMARK    3  A    between atoms: C_9  and  C_15
REMARK    4  A    between atoms: C_18  and  O_22
REMARK    5  A    between atoms: C_24  and  C_26
REMARK                            x       y       z     vdW  Elec       q    Type
REMARK                         _______ _______ _______ _____ _____    ______ ____
ROOT
ATOM      1  C   UNL     1      -1.589   2.738  -0.779  0.00  0.00    +0.049 C 
ATOM      2  C   UNL     1      -0.787   1.723  -1.225  0.00  0.00    +0.046 C 
ATOM      3  C   UNL     1      -0.090   0.870  -0.184  0.00  0.00    +0.138 C 
ATOM      4  N   UNL     1      -0.336   1.206   1.228  0.00  0.00    -0.315 N 
ATOM      5  C   UNL     1      -1.152   2.237   1.516  0.00  0.00    +0.135 C 
ATOM      6  S   UNL     1      -1.438   2.628   3.158  0.00  0.00    -0.019 S 
ATOM      7  N   UNL     1      -1.749   2.966   0.565  0.00  0.00    -0.296 N 
ATOM      8  H   UNL     1       0.083   0.694   1.938  0.00  0.00    +0.149 HD
ATOM      9  H   UNL     1      -2.325   3.696   0.841  0.00  0.00    +0.154 HD
ENDROOT
BRANCH   3  10
ATOM     10  C   UNL     1      -0.510  -0.561  -0.400  0.00  0.00    -0.020 A 
ATOM     11  C   UNL     1      -1.724  -1.006   0.089  0.00  0.00    +0.029 A 
ATOM     12  C   UNL     1      -2.114  -2.317  -0.113  0.00  0.00    +0.084 A 
ATOM     13  C   UNL     1      -1.280  -3.190  -0.798  0.00  0.00    +0.149 A 
ATOM     14  C   UNL     1      -0.059  -2.742  -1.282  0.00  0.00    +0.061 A 
ATOM     15  C   UNL     1       0.323  -1.429  -1.083  0.00  0.00    +0.024 A 
ATOM     16 BR   UNL     1       1.081  -3.928  -2.215  0.00  0.00    -0.046 Br
ATOM     17 CL   UNL     1      -3.642  -2.873   0.495  0.00  0.00    -0.080 Cl
BRANCH  13  18
ATOM     18  O   UNL     1      -1.658  -4.481  -0.993  0.00  0.00    -0.504 OA
ATOM     19  H   UNL     1      -1.382  -5.083  -0.289  0.00  0.00    +0.292 HD
ENDBRANCH  13  18
ENDBRANCH   3  10
BRANCH   1  23
ATOM     20  C   UNL     1      -3.603   5.209  -3.583  0.00  0.00    +0.000 A 
ATOM     21  C   UNL     1      -4.301   4.665  -2.518  0.00  0.00    +0.001 A 
ATOM     22  C   UNL     1      -3.653   3.861  -1.604  0.00  0.00    +0.010 A 
ATOM     23  C   UNL     1      -2.289   3.597  -1.754  0.00  0.00    -0.003 A 
ATOM     24  C   UNL     1      -1.591   4.154  -2.828  0.00  0.00    +0.010 A 
ATOM     25  C   UNL     1      -2.253   4.951  -3.738  0.00  0.00    +0.001 A 
ENDBRANCH   1  23
BRANCH   2  26
ATOM     26  C   UNL     1      -0.616   1.479  -2.602  0.00  0.00    +0.193 C 
ATOM     27  O   UNL     1      -1.561   1.113  -3.278  0.00  0.00    -0.287 OA
BRANCH  26  28
ATOM     28  C   UNL     1       0.712   1.668  -3.227  0.00  0.00    +0.022 A 
ATOM     29  C   UNL     1       1.765   2.208  -2.487  0.00  0.00    +0.012 A 
ATOM     30  C   UNL     1       3.002   2.376  -3.074  0.00  0.00    +0.001 A 
ATOM     31  C   UNL     1       3.197   2.022  -4.397  0.00  0.00    +0.000 A 
ATOM     32  C   UNL     1       2.156   1.492  -5.138  0.00  0.00    +0.001 A 
ATOM     33  C   UNL     1       0.916   1.313  -4.561  0.00  0.00    +0.012 A 
ENDBRANCH  26  28
ENDBRANCH   2  26
TORSDOF 5
