REMARK  Name = ZINC08076280
REMARK  5 active torsions:
REMARK  status: ('A' for Active; 'I' for Inactive)
REMARK    1  A    between atoms: C_8  and  C_10
REMARK    2  A    between atoms: C_15  and  C_16
REMARK    3  A    between atoms: C_15  and  N_55
REMARK    4  A    between atoms: N_18  and  C_19
REMARK    5  A    between atoms: C_19  and  C_20
REMARK                            x       y       z     vdW  Elec       q    Type
REMARK                         _______ _______ _______ _____ _____    ______ ____
ROOT
ATOM      1  C   UNL     1      -3.170  -4.733   0.005  0.00  0.00    +0.019 C 
ENDROOT
BRANCH   1   7
ATOM      2  C   UNL     1      -1.217  -0.934   0.204  0.00  0.00    +0.041 C 
ATOM      3  C   UNL     1      -0.945  -1.979   1.290  0.00  0.00    -0.009 C 
ATOM      4  C   UNL     1      -2.083  -3.002   1.303  0.00  0.00    -0.078 C 
ATOM      5  C   UNL     1      -2.487  -2.670  -1.063  0.00  0.00    -0.078 C 
ATOM      6  C   UNL     1      -1.360  -1.638  -1.148  0.00  0.00    -0.009 C 
ATOM      7  N   UNL     1      -2.152  -3.661  -0.019  0.00  0.00    +0.385 N 
ATOM      8  H   UNL     1      -1.237  -4.075  -0.233  0.00  0.00    -0.081 HD
BRANCH   2  16
ATOM      9  C   UNL     1       4.303   1.769  -0.360  0.00  0.00    +0.002 A 
ATOM     10  C   UNL     1       3.789   3.031  -0.096  0.00  0.00    +0.001 A 
ATOM     11  C   UNL     1       2.438   3.175   0.155  0.00  0.00    +0.017 A 
ATOM     12  C   UNL     1       1.627   2.066   0.139  0.00  0.00    +0.039 A 
ATOM     13  C   UNL     1       2.123   0.769  -0.127  0.00  0.00    +0.078 A 
ATOM     14  C   UNL     1       3.509   0.665  -0.379  0.00  0.00    +0.029 A 
ATOM     15  N   UNL     1       1.187  -0.203  -0.103  0.00  0.00    -0.244 NA
ATOM     16  C   UNL     1      -0.069   0.041   0.145  0.00  0.00    +0.082 A 
ATOM     17  S   UNL     1      -0.103   1.759   0.391  0.00  0.00    -0.072 S 
ENDBRANCH   2  16
ENDBRANCH   1   7
BRANCH   1  18
ATOM     18  C   UNL     1      -3.058  -5.535  -1.266  0.00  0.00    +0.197 C 
ATOM     19  O   UNL     1      -2.162  -5.307  -2.051  0.00  0.00    -0.278 OA
ATOM     20  N   UNL     1      -3.953  -6.507  -1.530  0.00  0.00    -0.313 N 
ATOM     21  H   UNL     1      -4.670  -6.690  -0.902  0.00  0.00    +0.149 HD
BRANCH  20  22
ATOM     22  C   UNL     1      -3.845  -7.288  -2.765  0.00  0.00    +0.152 C 
BRANCH  22  23
ATOM     23  C   UNL     1      -4.975  -8.317  -2.819  0.00  0.00    +0.228 C 
ATOM     24  C   UNL     1      -4.849  -9.158  -4.097  0.00  0.00    +0.275 C 
ATOM     25  O   UNL     1      -5.912 -10.117  -4.109  0.00  0.00    -0.485 OA
ATOM     26  C   UNL     1      -6.133 -10.799  -2.952  0.00  0.00    +0.162 A 
ATOM     27  C   UNL     1      -6.879 -11.968  -2.983  0.00  0.00    +0.049 A 
ATOM     28  C   UNL     1      -7.115 -12.670  -1.817  0.00  0.00    +0.004 A 
ATOM     29  C   UNL     1      -6.608 -12.210  -0.616  0.00  0.00    +0.004 A 
ATOM     30  C   UNL     1      -5.862 -11.047  -0.578  0.00  0.00    +0.049 A 
ATOM     31  C   UNL     1      -5.621 -10.338  -1.745  0.00  0.00    +0.163 A 
ATOM     32  O   UNL     1      -4.882  -9.196  -1.693  0.00  0.00    -0.480 OA
ENDBRANCH  22  23
ENDBRANCH  20  22
ENDBRANCH   1  18
TORSDOF 5
