REMARK  Name = ZINC64002183
REMARK  8 active torsions:
REMARK  status: ('A' for Active; 'I' for Inactive)
REMARK    1  A    between atoms: C_1  and  C_2
REMARK    2  A    between atoms: C_7  and  S_12
REMARK    3  A    between atoms: S_12  and  C_13
REMARK    4  A    between atoms: C_13  and  C_14
REMARK    5  A    between atoms: N_16  and  C_17
REMARK    6  A    between atoms: C_17  and  C_18
REMARK    7  A    between atoms: C_23  and  C_28
REMARK    8  A    between atoms: C_29  and  C_34
REMARK                            x       y       z     vdW  Elec       q    Type
REMARK                         _______ _______ _______ _____ _____    ______ ____
ROOT
ATOM      1  C   UNL     1       4.241  -4.802   1.804  0.00  0.00    +0.223 C 
ATOM      2  O   UNL     1       4.268  -5.870   2.379  0.00  0.00    -0.275 OA
ATOM      3  N   UNL     1       5.393  -4.186   1.474  0.00  0.00    -0.311 N 
ATOM      4  H   UNL     1       5.372  -3.332   1.014  0.00  0.00    +0.149 HD
ENDROOT
BRANCH   1   5
ATOM      5  C   UNL     1       2.920  -4.166   1.458  0.00  0.00    +0.168 C 
BRANCH   5   6
ATOM      6  S   UNL     1       1.567  -5.231   2.029  0.00  0.00    -0.106 S 
BRANCH   6  13
ATOM      7  C   UNL     1      -0.018   1.503   0.010  0.00  0.00    +0.044 C 
ATOM      8  C   UNL     1       0.002  -0.004   0.002  0.00  0.00    -0.048 A 
ATOM      9  C   UNL     1       0.005  -0.672  -1.235  0.00  0.00    +0.005 A 
ATOM     10  C   UNL     1       0.022  -2.017  -1.335  0.00  0.00    +0.028 A 
ATOM     11  C   UNL     1       0.040  -2.834  -0.114  0.00  0.00    +0.061 A 
ATOM     12  N   UNL     1       0.057  -4.120   0.090  0.00  0.00    -0.355 N 
ATOM     13  C   UNL     1       0.067  -4.335   1.542  0.00  0.00    +0.236 C 
ATOM     14  N   UNL     1       0.053  -3.002   2.159  0.00  0.00    -0.355 N 
ATOM     15  C   UNL     1       0.037  -2.127   1.195  0.00  0.00    +0.061 A 
ATOM     16  C   UNL     1       0.022  -0.657   1.181  0.00  0.00    +0.030 A 
ATOM     17  H   UNL     1       0.062  -4.809  -0.593  0.00  0.00    +0.162 HD
ATOM     18  H   UNL     1       0.055  -2.810   3.109  0.00  0.00    +0.162 HD
ENDBRANCH   6  13
ENDBRANCH   5   6
ENDBRANCH   1   5
BRANCH   3  19
ATOM     19  C   UNL     1       6.678  -4.804   1.810  0.00  0.00    +0.149 C 
BRANCH  19  20
ATOM     20  C   UNL     1       7.818  -3.906   1.328  0.00  0.00    +0.195 C 
ATOM     21  C   UNL     1       9.190  -4.561   1.613  0.00  0.00    +0.085 C 
ATOM     22  C   UNL     1      10.043  -3.360   1.972  0.00  0.00    -0.002 A 
ATOM     23  C   UNL     1      11.405  -3.191   2.065  0.00  0.00    +0.017 A 
ATOM     24  C   UNL     1      11.928  -1.947   2.416  0.00  0.00    +0.001 A 
ATOM     25  C   UNL     1      11.062  -0.884   2.670  0.00  0.00    +0.013 A 
ATOM     26  C   UNL     1       9.701  -1.062   2.578  0.00  0.00    +0.046 A 
ATOM     27  C   UNL     1       9.174  -2.306   2.231  0.00  0.00    +0.124 A 
ATOM     28  O   UNL     1       7.873  -2.694   2.101  0.00  0.00    -0.487 OA
BRANCH  24  29
ATOM     29  C   UNL     1      13.395  -1.756   2.518  0.00  0.00    +0.074 A 
ATOM     30  C   UNL     1      13.961  -0.536   2.150  0.00  0.00    -0.024 A 
ATOM     31  C   UNL     1      15.331  -0.373   2.251  0.00  0.00    +0.007 A 
ATOM     32  C   UNL     1      16.093  -1.436   2.718  0.00  0.00    +0.020 A 
ATOM     33  C   UNL     1      15.466  -2.618   3.066  0.00  0.00    +0.111 A 
ATOM     34  N   UNL     1      14.158  -2.745   2.964  0.00  0.00    -0.255 NA
ATOM     35  C   UNL     1      13.092   0.588   1.648  0.00  0.00    +0.046 C 
ENDBRANCH  24  29
ENDBRANCH  19  20
ENDBRANCH   3  19
TORSDOF 6
