REMARK  Name = ZINC09754668
REMARK  8 active torsions:
REMARK  status: ('A' for Active; 'I' for Inactive)
REMARK    1  A    between atoms: C_1  and  C_2
REMARK    2  A    between atoms: C_6  and  C_13
REMARK    3  A    between atoms: C_13  and  C_15
REMARK    4  A    between atoms: C_15  and  S_16
REMARK    5  A    between atoms: S_16  and  C_17
REMARK    6  A    between atoms: C_20  and  C_29
REMARK    7  A    between atoms: N_21  and  C_22
REMARK    8  A    between atoms: C_22  and  C_23
REMARK                            x       y       z     vdW  Elec       q    Type
REMARK                         _______ _______ _______ _____ _____    ______ ____
ROOT
ATOM      1  C   UNL     1       3.071  -2.022  -8.894  0.00  0.00    +0.192 A 
ATOM      2  N   UNL     1       4.151  -2.676  -8.529  0.00  0.00    -0.122 NA
ATOM      3  N   UNL     1       4.644  -3.308  -9.533  0.00  0.00    -0.128 NA
ATOM      4  C   UNL     1       3.910  -3.096 -10.601  0.00  0.00    +0.165 A 
ATOM      5  N   UNL     1       2.877  -2.270 -10.223  0.00  0.00    -0.300 N 
ENDROOT
BRANCH   4   6
ATOM      6  C   UNL     1       4.146  -3.646 -11.953  0.00  0.00    +0.019 A 
ATOM      7  C   UNL     1       3.522  -3.071 -13.061  0.00  0.00    +0.013 A 
ATOM      8  C   UNL     1       3.746  -3.588 -14.320  0.00  0.00    +0.021 A 
ATOM      9  C   UNL     1       4.588  -4.676 -14.486  0.00  0.00    +0.041 A 
ATOM     10  C   UNL     1       5.209  -5.250 -13.389  0.00  0.00    +0.021 A 
ATOM     11  C   UNL     1       4.998  -4.738 -12.126  0.00  0.00    +0.013 A 
ATOM     12 CL   UNL     1       4.865  -5.321 -16.073  0.00  0.00    -0.084 Cl
ENDBRANCH   4   6
BRANCH   1  13
ATOM     13  S   UNL     1       2.058  -1.018  -7.859  0.00  0.00    -0.078 S 
BRANCH  13  14
ATOM     14  C   UNL     1       2.862  -1.110  -6.236  0.00  0.00    +0.157 C 
BRANCH  14  15
ATOM     15  C   UNL     1       2.086  -0.283  -5.243  0.00  0.00    +0.173 C 
ATOM     16  O   UNL     1       1.088   0.310  -5.597  0.00  0.00    -0.291 OA
BRANCH  15  21
ATOM     17  C   UNL     1       1.718   2.877  -0.630  0.00  0.00    +0.022 C 
ATOM     18  C   UNL     1       1.723   1.364  -0.401  0.00  0.00    +0.104 C 
ATOM     19  C   UNL     1       2.251   0.645  -1.621  0.00  0.00    -0.014 A 
ATOM     20  C   UNL     1       1.819   0.573  -2.921  0.00  0.00    +0.017 A 
ATOM     21  C   UNL     1       2.536  -0.195  -3.849  0.00  0.00    +0.019 A 
ATOM     22  C   UNL     1       3.687  -0.878  -3.434  0.00  0.00    +0.013 A 
ATOM     23  C   UNL     1       4.106  -0.798  -2.139  0.00  0.00    +0.024 A 
ATOM     24  C   UNL     1       3.395  -0.035  -1.209  0.00  0.00    +0.037 A 
ATOM     25  N   UNL     1       3.627   0.192   0.142  0.00  0.00    -0.285 N 
ATOM     26  C   UNL     1       2.700   0.996   0.695  0.00  0.00    +0.224 C 
ATOM     27  O   UNL     1       2.654   1.358   1.852  0.00  0.00    -0.275 OA
ATOM     28  H   UNL     1       4.373  -0.188   0.632  0.00  0.00    +0.155 HD
ENDBRANCH  15  21
ENDBRANCH  14  15
ENDBRANCH  13  14
ENDBRANCH   1  13
BRANCH   5  29
ATOM     29  C   UNL     1       1.796  -1.760 -11.070  0.00  0.00    +0.157 C 
BRANCH  29  30
ATOM     30  C   UNL     1       2.153  -0.355 -11.561  0.00  0.00    +0.138 C 
ATOM     31  C   UNL     1       1.014   0.194 -12.448  0.00  0.00    +0.035 C 
ATOM     32  C   UNL     1       1.796   0.932 -13.569  0.00  0.00    +0.031 C 
ATOM     33  C   UNL     1       3.046   0.026 -13.701  0.00  0.00    +0.160 C 
ATOM     34  O   UNL     1       3.340  -0.407 -12.361  0.00  0.00    -0.375 OA
ENDBRANCH  29  30
ENDBRANCH   5  29
TORSDOF 7
