REMARK  Name = ZINC08989882
REMARK  9 active torsions:
REMARK  status: ('A' for Active; 'I' for Inactive)
REMARK    1  A    between atoms: C_1  and  C_2
REMARK    2  A    between atoms: C_12  and  C_14
REMARK    3  A    between atoms: C_14  and  C_16
REMARK    4  A    between atoms: C_14  and  N_26
REMARK    5  A    between atoms: C_16  and  C_17
REMARK    6  A    between atoms: C_20  and  N_23
REMARK    7  A    between atoms: C_27  and  O_29
REMARK    8  A    between atoms: O_29  and  C_30
REMARK    9  A    between atoms: C_30  and  C_31
REMARK                            x       y       z     vdW  Elec       q    Type
REMARK                         _______ _______ _______ _____ _____    ______ ____
ROOT
ATOM      1  C   UNL     1       1.199  -2.169  -0.021  0.00  0.00    +0.167 C 
ENDROOT
BRANCH   1  13
ATOM      2  C   UNL     1      -0.195   7.761   0.045  0.00  0.00    +0.044 C 
ATOM      3  C   UNL     1       0.153   6.295   0.034  0.00  0.00    -0.049 A 
ATOM      4  C   UNL     1       1.480   5.889   0.020  0.00  0.00    +0.005 A 
ATOM      5  C   UNL     1       1.823   4.563   0.009  0.00  0.00    +0.029 A 
ATOM      6  C   UNL     1       0.827   3.558   0.013  0.00  0.00    +0.080 A 
ATOM      7  C   UNL     1      -0.513   4.008   0.029  0.00  0.00    +0.041 A 
ATOM      8  C   UNL     1      -0.847   5.340   0.039  0.00  0.00    +0.020 A 
ATOM      9  S   UNL     1      -1.424   2.483   0.021  0.00  0.00    -0.052 S 
ATOM     10  C   UNL     1      -0.017   1.381   0.010  0.00  0.00    +0.165 A 
ATOM     11  N   UNL     1       0.994   2.218   0.004  0.00  0.00    -0.225 NA
ATOM     12  N   UNL     1       0.002  -0.004   0.002  0.00  0.00    -0.263 N 
ATOM     13  C   UNL     1       1.178  -0.662  -0.012  0.00  0.00    +0.239 C 
ATOM     14  O   UNL     1       2.220  -0.041  -0.018  0.00  0.00    -0.273 OA
ATOM     15  H   UNL     1      -0.831  -0.500   0.007  0.00  0.00    +0.157 HD
ENDBRANCH   1  13
BRANCH   1  16
ATOM     16  N   UNL     1       2.586  -2.638  -0.036  0.00  0.00    -0.269 N 
ATOM     17  C   UNL     1       2.881  -3.854  -0.538  0.00  0.00    +0.401 C 
ATOM     18  O   UNL     1       1.996  -4.560  -0.979  0.00  0.00    -0.226 OA
ATOM     19  H   UNL     1       3.293  -2.075   0.316  0.00  0.00    +0.153 HD
BRANCH  17  20
ATOM     20  O   UNL     1       4.156  -4.285  -0.552  0.00  0.00    -0.446 OA
BRANCH  20  21
ATOM     21  C   UNL     1       4.400  -5.604  -1.108  0.00  0.00    +0.269 C 
BRANCH  21  22
ATOM     22  C   UNL     1       5.873  -5.914  -1.040  0.00  0.00    -0.010 A 
ATOM     23  C   UNL     1       6.700  -5.576  -2.095  0.00  0.00    +0.007 A 
ATOM     24  C   UNL     1       8.052  -5.856  -2.030  0.00  0.00    +0.000 A 
ATOM     25  C   UNL     1       8.576  -6.482  -0.915  0.00  0.00    +0.000 A 
ATOM     26  C   UNL     1       7.748  -6.825   0.138  0.00  0.00    +0.000 A 
ATOM     27  C   UNL     1       6.397  -6.541   0.075  0.00  0.00    +0.007 A 
ENDBRANCH  21  22
ENDBRANCH  20  21
ENDBRANCH  17  20
ENDBRANCH   1  16
BRANCH   1  28
ATOM     28  C   UNL     1       0.496  -2.695   1.232  0.00  0.00    +0.067 C 
BRANCH  28  29
ATOM     29  C   UNL     1       0.407  -4.198   1.165  0.00  0.00    -0.045 A 
ATOM     30  C   UNL     1      -0.692  -4.800   0.583  0.00  0.00    +0.006 A 
ATOM     31  C   UNL     1      -0.771  -6.179   0.517  0.00  0.00    +0.033 A 
ATOM     32  C   UNL     1       0.245  -6.955   1.041  0.00  0.00    +0.126 A 
ATOM     33  C   UNL     1       1.343  -6.353   1.628  0.00  0.00    +0.033 A 
ATOM     34  C   UNL     1       1.424  -4.975   1.690  0.00  0.00    +0.006 A 
BRANCH  32  35
ATOM     35  N   UNL     1       0.159  -8.431   0.974  0.00  0.00    +0.056 N 
ATOM     36  O   UNL     1       1.054  -9.116   1.436  0.00  0.00    -0.126 OA
ATOM     37  O   UNL     1      -0.808  -8.962   0.457  0.00  0.00    -0.126 OA
ENDBRANCH  32  35
ENDBRANCH  28  29
ENDBRANCH   1  28
TORSDOF 8
