REMARK  Name = ZINC62582480
REMARK  4 active torsions:
REMARK  status: ('A' for Active; 'I' for Inactive)
REMARK    1  A    between atoms: C_1  and  C_2
REMARK    2  A    between atoms: C_2  and  C_3
REMARK    3  A    between atoms: C_12  and  C_14
REMARK    4  A    between atoms: N_17  and  C_19
REMARK                            x       y       z     vdW  Elec       q    Type
REMARK                         _______ _______ _______ _____ _____    ______ ____
ROOT
ATOM      1  C   UNL     1      -1.440  -0.451   0.026  0.00  0.00    -0.026 A 
ATOM      2  C   UNL     1      -2.014  -0.854   1.213  0.00  0.00    +0.005 A 
ATOM      3  C   UNL     1      -3.306  -1.345   1.230  0.00  0.00    +0.001 A 
ATOM      4  C   UNL     1      -4.025  -1.430   0.051  0.00  0.00    +0.005 A 
ATOM      5  C   UNL     1      -3.454  -1.026  -1.140  0.00  0.00    -0.024 A 
ATOM      6  C   UNL     1      -2.161  -0.528  -1.167  0.00  0.00    +0.043 A 
ATOM      7  N   UNL     1      -1.773  -0.171  -2.461  0.00  0.00    -0.267 N 
ATOM      8  C   UNL     1      -2.866  -0.430  -3.402  0.00  0.00    +0.119 C 
ATOM      9  C   UNL     1      -4.004  -1.011  -2.548  0.00  0.00    +0.056 C 
ATOM     10  C   UNL     1      -0.570   0.337  -2.795  0.00  0.00    +0.254 C 
ATOM     11  O   UNL     1       0.316   0.399  -1.964  0.00  0.00    -0.270 OA
ENDROOT
BRANCH  10  12
ATOM     12  C   UNL     1      -0.328   0.817  -4.167  0.00  0.00    +0.075 A 
ATOM     13  C   UNL     1      -1.256   0.815  -5.233  0.00  0.00    +0.147 A 
ATOM     14  N   UNL     1      -0.667   1.318  -6.283  0.00  0.00    -0.174 NA
ATOM     15  N   UNL     1       0.646   1.662  -5.946  0.00  0.00    -0.239 N 
ATOM     16  C   UNL     1       0.847   1.358  -4.651  0.00  0.00    +0.127 A 
BRANCH  15  17
ATOM     17  C   UNL     1       1.592   2.231  -6.810  0.00  0.00    +0.065 A 
ATOM     18  C   UNL     1       2.870   2.520  -6.350  0.00  0.00    +0.029 A 
ATOM     19  C   UNL     1       3.800   3.081  -7.203  0.00  0.00    +0.022 A 
ATOM     20  C   UNL     1       3.459   3.355  -8.516  0.00  0.00    +0.041 A 
ATOM     21  C   UNL     1       2.186   3.068  -8.977  0.00  0.00    +0.022 A 
ATOM     22  C   UNL     1       1.254   2.502  -8.129  0.00  0.00    +0.029 A 
ATOM     23 CL   UNL     1       4.630   4.060  -9.586  0.00  0.00    -0.084 Cl
ENDBRANCH  15  17
ENDBRANCH  10  12
BRANCH   1  25
ATOM     24  C   UNL     1      -0.053   1.580  -0.291  0.00  0.00    +0.009 C 
ATOM     25  C   UNL     1      -0.030   0.082   0.018  0.00  0.00    +0.033 C 
ENDBRANCH   1  25
TORSDOF 3
