REMARK  Name = ZINC35523342
REMARK  9 active torsions:
REMARK  status: ('A' for Active; 'I' for Inactive)
REMARK    1  A    between atoms: C_1  and  C_2
REMARK    2  A    between atoms: C_2  and  C_4
REMARK    3  A    between atoms: C_2  and  N_7
REMARK    4  A    between atoms: C_4  and  C_5
REMARK    5  A    between atoms: C_4  and  C_6
REMARK    6  A    between atoms: C_8  and  C_10
REMARK    7  A    between atoms: C_13  and  C_15
REMARK    8  A    between atoms: C_15  and  N_16
REMARK    9  A    between atoms: C_24  and  C_26
REMARK                            x       y       z     vdW  Elec       q    Type
REMARK                         _______ _______ _______ _____ _____    ______ ____
ROOT
ATOM      1  N   UNL     1      -6.305  -3.870   0.690  0.00  0.00    +0.394 N 
ATOM      2  C   UNL     1      -5.035  -4.173   1.363  0.00  0.00    -0.055 C 
ATOM      3  C   UNL     1      -4.742  -5.676   1.273  0.00  0.00    +0.103 C 
ATOM      4  N   UNL     1      -5.937  -6.399   1.727  0.00  0.00    -0.353 N 
ATOM      5  C   UNL     1      -6.040  -7.700   2.099  0.00  0.00    +0.086 A 
ATOM      6  C   UNL     1      -7.323  -7.937   2.449  0.00  0.00    +0.019 A 
ATOM      7  C   UNL     1      -8.037  -6.731   2.283  0.00  0.00    +0.021 A 
ATOM      8  C   UNL     1      -7.169  -5.810   1.839  0.00  0.00    +0.009 A 
ATOM      9  C   UNL     1      -7.432  -4.364   1.499  0.00  0.00    +0.012 C 
ATOM     10  H   UNL     1      -6.319  -4.319  -0.213  0.00  0.00    -0.080 HD
ENDROOT
BRANCH   9  11
ATOM     11  C   UNL     1      -8.711  -4.251   0.711  0.00  0.00    -0.037 A 
ATOM     12  C   UNL     1      -8.675  -4.256  -0.671  0.00  0.00    +0.004 A 
ATOM     13  C   UNL     1      -9.848  -4.153  -1.395  0.00  0.00    +0.000 A 
ATOM     14  C   UNL     1     -11.059  -4.045  -0.737  0.00  0.00    +0.001 A 
ATOM     15  C   UNL     1     -11.097  -4.040   0.645  0.00  0.00    +0.020 A 
ATOM     16  C   UNL     1      -9.924  -4.149   1.369  0.00  0.00    +0.043 A 
ATOM     17 CL   UNL     1      -9.971  -4.149   3.105  0.00  0.00    -0.083 Cl
ENDBRANCH   9  11
BRANCH   1  18
ATOM     18  C   UNL     1      -6.429  -2.417   0.514  0.00  0.00    -0.002 C 
BRANCH  18  22
ATOM     19  C   UNL     1      -3.427  -1.150  -1.134  0.00  0.00    +0.189 A 
ATOM     20  C   UNL     1      -4.221  -1.337  -2.229  0.00  0.00    +0.055 A 
ATOM     21  C   UNL     1      -5.447  -1.835  -1.758  0.00  0.00    +0.043 A 
ATOM     22  C   UNL     1      -5.347  -1.929  -0.414  0.00  0.00    +0.090 A 
ATOM     23  O   UNL     1      -4.127  -1.520  -0.042  0.00  0.00    -0.457 OA
BRANCH  19  25
ATOM     24  N   UNL     1      -1.372  -0.511   0.012  0.00  0.00    -0.306 N 
ATOM     25  C   UNL     1      -2.051  -0.643  -1.145  0.00  0.00    +0.280 C 
ATOM     26  O   UNL     1      -1.522  -0.340  -2.198  0.00  0.00    -0.267 OA
ATOM     27  H   UNL     1      -1.794  -0.752   0.852  0.00  0.00    +0.149 HD
BRANCH  24  29
ATOM     28  C   UNL     1      -0.019   1.526   0.010  0.00  0.00    +0.028 C 
ATOM     29  C   UNL     1       0.002  -0.004   0.002  0.00  0.00    +0.073 C 
BRANCH  29  30
ATOM     30  C   UNL     1       0.742  -0.511   1.242  0.00  0.00    +0.003 C 
ATOM     31  C   UNL     1       2.178   0.019   1.231  0.00  0.00    +0.009 C 
ATOM     32  C   UNL     1       0.026  -0.018   2.500  0.00  0.00    +0.009 C 
ENDBRANCH  29  30
ENDBRANCH  24  29
ENDBRANCH  19  25
ENDBRANCH  18  22
ENDBRANCH   1  18
TORSDOF 6
