REMARK  Name = ZINC11730316
REMARK  4 active torsions:
REMARK  status: ('A' for Active; 'I' for Inactive)
REMARK    1  A    between atoms: C_5  and  O_7
REMARK    2  A    between atoms: O_7  and  C_8
REMARK    3  A    between atoms: C_8  and  C_9
REMARK    4  A    between atoms: C_12  and  C_14
REMARK                            x       y       z     vdW  Elec       q    Type
REMARK                         _______ _______ _______ _____ _____    ______ ____
ROOT
ATOM      1  C   UNL     1       1.170   2.088   0.002  0.00  0.00    +0.004 A 
ATOM      2  C   UNL     1      -0.017   1.377   0.010  0.00  0.00    +0.006 A 
ATOM      3  C   UNL     1       0.002  -0.004   0.002  0.00  0.00    -0.022 A 
ATOM      4  C   UNL     1       1.213  -0.681  -0.013  0.00  0.00    +0.079 A 
ATOM      5  C   UNL     1       2.407   0.034  -0.020  0.00  0.00    +0.142 A 
ATOM      6  C   UNL     1       2.380   1.420  -0.012  0.00  0.00    +0.047 A 
ATOM      7  N   UNL     1       1.230  -2.081  -0.022  0.00  0.00    -0.282 N 
ATOM      8  C   UNL     1       0.135  -2.775  -0.384  0.00  0.00    +0.218 C 
ATOM      9  O   UNL     1       0.162  -3.987  -0.373  0.00  0.00    -0.275 OA
ATOM     10  C   UNL     1      -1.122  -2.062  -0.804  0.00  0.00    +0.101 C 
ATOM     11  C   UNL     1      -1.290  -0.779   0.010  0.00  0.00    +0.046 C 
ATOM     12  H   UNL     1       2.037  -2.555   0.235  0.00  0.00    +0.155 HD
ENDROOT
BRANCH   5  13
ATOM     13  O   UNL     1       3.597  -0.624  -0.035  0.00  0.00    -0.482 OA
BRANCH  13  14
ATOM     14  C   UNL     1       4.781   0.175  -0.042  0.00  0.00    +0.303 C 
BRANCH  14  15
ATOM     15  C   UNL     1       5.992  -0.721  -0.059  0.00  0.00    +0.143 A 
ATOM     16  C   UNL     1       6.614  -1.183  -1.166  0.00  0.00    +0.049 A 
ATOM     17  C   UNL     1       7.689  -1.977  -0.736  0.00  0.00    +0.057 A 
ATOM     18  C   UNL     1       7.668  -1.960   0.630  0.00  0.00    +0.216 A 
ATOM     19  O   UNL     1       6.633  -1.187   1.021  0.00  0.00    -0.450 OA
BRANCH  18  20
ATOM     20  C   UNL     1       8.607  -2.654   1.514  0.00  0.00    +0.421 C 
ATOM     21  O   UNL     1       9.507  -3.321   1.042  0.00  0.00    -0.237 OA
ATOM     22  O   UNL     1       8.473  -2.553   2.853  0.00  0.00    -0.237 OA
ENDBRANCH  18  20
ENDBRANCH  14  15
ENDBRANCH  13  14
ENDBRANCH   5  13
TORSDOF 4
