REMARK  Name = ZINC22345129
REMARK  14 active torsions:
REMARK  status: ('A' for Active; 'I' for Inactive)
REMARK    1  A    between atoms: C_1  and  C_2
REMARK    2  A    between atoms: C_2  and  C_3
REMARK    3  A    between atoms: N_9  and  C_10
REMARK    4  A    between atoms: C_10  and  C_11
REMARK    5  A    between atoms: C_11  and  C_12
REMARK    6  A    between atoms: C_12  and  N_13
REMARK    7  A    between atoms: C_14  and  C_16
REMARK    8  A    between atoms: C_16  and  N_17
REMARK    9  A    between atoms: N_17  and  C_18
REMARK   10  A    between atoms: N_17  and  S_25
REMARK   11  A    between atoms: C_21  and  C_24
REMARK   12  A    between atoms: S_25  and  C_28
REMARK   13  A    between atoms: C_31  and  S_34
REMARK   14  A    between atoms: S_34  and  C_35
REMARK                            x       y       z     vdW  Elec       q    Type
REMARK                         _______ _______ _______ _____ _____    ______ ____
ROOT
ATOM      1  N   UNL     1      -9.694   1.016   4.139  0.00  0.00    -0.194 N 
ENDROOT
BRANCH   1   2
ATOM      2  C   UNL     1     -10.462   2.041   3.581  0.00  0.00    +0.052 A 
ATOM      3  C   UNL     1     -11.844   1.915   3.507  0.00  0.00    +0.025 A 
ATOM      4  C   UNL     1     -12.600   2.932   2.959  0.00  0.00    +0.005 A 
ATOM      5  C   UNL     1     -11.982   4.070   2.473  0.00  0.00    -0.050 A 
ATOM      6  C   UNL     1     -10.607   4.197   2.540  0.00  0.00    +0.005 A 
ATOM      7  C   UNL     1      -9.845   3.186   3.092  0.00  0.00    +0.025 A 
ATOM      8  C   UNL     1     -12.811   5.175   1.870  0.00  0.00    +0.044 C 
ENDBRANCH   1   2
BRANCH   1   9
ATOM      9  S   UNL     1     -10.261  -0.540   4.134  0.00  0.00    +0.075 S 
ATOM     10  O   UNL     1     -11.210  -0.623   3.080  0.00  0.00    -0.150 OA
ATOM     11  O   UNL     1      -9.123  -1.387   4.203  0.00  0.00    -0.150 OA
BRANCH   9  12
ATOM     12  C   UNL     1     -11.154  -0.774   5.635  0.00  0.00    +0.109 A 
ATOM     13  C   UNL     1     -10.479  -1.115   6.793  0.00  0.00    +0.030 A 
ATOM     14  C   UNL     1     -11.175  -1.294   7.972  0.00  0.00    +0.016 A 
ATOM     15  C   UNL     1     -12.556  -1.141   7.992  0.00  0.00    +0.008 A 
ATOM     16  C   UNL     1     -13.232  -0.803   6.825  0.00  0.00    +0.016 A 
ATOM     17  C   UNL     1     -12.529  -0.621   5.651  0.00  0.00    +0.030 A 
BRANCH  15  18
ATOM     18  S   UNL     1     -13.449  -1.375   9.493  0.00  0.00    -0.129 S 
ATOM     19  C   UNL     1     -12.167  -1.792  10.706  0.00  0.00    +0.090 C 
ENDBRANCH  15  18
ENDBRANCH   9  12
ENDBRANCH   1   9
BRANCH   1  20
ATOM     20  C   UNL     1      -8.388   1.318   4.729  0.00  0.00    +0.227 C 
BRANCH  20  22
ATOM     21  N   UNL     1      -6.051   1.576   3.960  0.00  0.00    -0.314 N 
ATOM     22  C   UNL     1      -7.337   1.320   3.649  0.00  0.00    +0.232 C 
ATOM     23  O   UNL     1      -7.649   1.092   2.499  0.00  0.00    -0.274 OA
ATOM     24  H   UNL     1      -5.768   1.782   5.003  0.00  0.00    +0.149 HD
BRANCH  21  25
ATOM     25  C   UNL     1      -5.030   1.578   2.910  0.00  0.00    +0.102 C 
BRANCH  25  26
ATOM     26  C   UNL     1      -3.665   1.893   3.526  0.00  0.00    +0.000 C 
BRANCH  26  27
ATOM     27  C   UNL     1      -2.598   1.895   2.430  0.00  0.00    -0.077 C 
BRANCH  27  33
ATOM     28  C   UNL     1      -0.223   2.109   2.015  0.00  0.00    -0.069 C 
ATOM     29  C   UNL     1       1.101   2.571   2.629  0.00  0.00    -0.015 C 
ATOM     30  C   UNL     1       1.435   1.685   3.832  0.00  0.00    -0.003 C 
ATOM     31  C   UNL     1       0.288   1.757   4.844  0.00  0.00    -0.019 C 
ATOM     32  C   UNL     1      -1.012   1.319   4.165  0.00  0.00    -0.078 C 
ATOM     33  N   UNL     1      -1.288   2.198   3.022  0.00  0.00    +0.382 N 
ATOM     34  H   UNL     1      -1.314   3.233   3.392  0.00  0.00    -0.081 HD
BRANCH  28  36
ATOM     35  C   UNL     1       0.470   2.814  -0.280  0.00  0.00    +0.002 C 
ATOM     36  C   UNL     1      -0.572   3.005   0.824  0.00  0.00    -0.019 C 
ENDBRANCH  28  36
ENDBRANCH  27  33
ENDBRANCH  26  27
ENDBRANCH  25  26
ENDBRANCH  21  25
ENDBRANCH  20  22
ENDBRANCH   1  20
TORSDOF 11
