REMARK  Name = ZINC63695056
REMARK  4 active torsions:
REMARK  status: ('A' for Active; 'I' for Inactive)
REMARK    1  A    between atoms: C_14  and  C_17
REMARK    2  A    between atoms: N_19  and  C_20
REMARK    3  A    between atoms: C_20  and  C_21
REMARK    4  A    between atoms: C_21  and  C_22
REMARK                            x       y       z     vdW  Elec       q    Type
REMARK                         _______ _______ _______ _____ _____    ______ ____
ROOT
ATOM      1  C   UNL     1      -0.017   1.374   0.010  0.00  0.00    +0.002 A 
ATOM      2  C   UNL     1       1.169   2.094   0.002  0.00  0.00    +0.002 A 
ATOM      3  C   UNL     1       2.383   1.441  -0.013  0.00  0.00    +0.028 A 
ATOM      4  C   UNL     1       2.420   0.049  -0.021  0.00  0.00    +0.065 A 
ATOM      5  C   UNL     1       1.219  -0.679  -0.013  0.00  0.00    +0.065 A 
ATOM      6  C   UNL     1       0.002  -0.004   0.002  0.00  0.00    +0.028 A 
ATOM      7  N   UNL     1       1.568  -2.004  -0.024  0.00  0.00    -0.327 N 
ATOM      8  H   UNL     1       0.951  -2.753  -0.022  0.00  0.00    +0.169 HD
ATOM      9  C   UNL     1       2.896  -2.090  -0.037  0.00  0.00    +0.174 A 
ATOM     10  N   UNL     1       3.434  -0.872  -0.035  0.00  0.00    -0.327 N 
ATOM     11  N   UNL     1       3.610  -3.265  -0.050  0.00  0.00    -0.303 N 
ATOM     12  C   UNL     1       5.075  -3.253   0.052  0.00  0.00    +0.108 C 
ATOM     13  C   UNL     1       5.658  -4.046  -1.121  0.00  0.00    +0.032 C 
ATOM     14  C   UNL     1       5.041  -5.447  -1.141  0.00  0.00    +0.078 C 
ATOM     15  C   UNL     1       3.528  -5.337  -1.337  0.00  0.00    +0.032 C 
ATOM     16  C   UNL     1       2.920  -4.558  -0.161  0.00  0.00    +0.108 C 
ATOM     17  H   UNL     1       4.383  -0.671  -0.044  0.00  0.00    +0.169 HD
ENDROOT
BRANCH  14  18
ATOM     18  C   UNL     1       5.638  -6.242  -2.274  0.00  0.00    +0.216 C 
ATOM     19  O   UNL     1       6.474  -5.738  -2.994  0.00  0.00    -0.276 OA
ATOM     20  N   UNL     1       5.242  -7.513  -2.487  0.00  0.00    -0.315 N 
ATOM     21  H   UNL     1       4.574  -7.916  -1.911  0.00  0.00    +0.149 HD
BRANCH  20  22
ATOM     22  C   UNL     1       5.822  -8.286  -3.588  0.00  0.00    +0.108 C 
BRANCH  22  23
ATOM     23  C   UNL     1       5.206  -9.686  -3.608  0.00  0.00    +0.052 C 
BRANCH  23  24
ATOM     24  C   UNL     1       5.802 -10.481  -4.741  0.00  0.00    -0.040 C 
ATOM     25  C   UNL     1       6.845 -11.340  -4.671  0.00  0.00    +0.000 A 
ATOM     26  C   UNL     1       7.703 -11.773  -3.562  0.00  0.00    +0.030 A 
ATOM     27  C   UNL     1       8.690 -12.666  -3.807  0.00  0.00    +0.042 A 
ATOM     28  C   UNL     1       8.913 -13.185  -5.091  0.00  0.00    +0.022 A 
ATOM     29  C   UNL     1       8.166 -12.835  -6.159  0.00  0.00    +0.027 A 
ATOM     30  C   UNL     1       7.101 -11.903  -6.016  0.00  0.00    +0.043 A 
ATOM     31  N   UNL     1       6.250 -11.412  -6.884  0.00  0.00    -0.380 N 
ATOM     32  C   UNL     1       5.352 -10.485  -6.185  0.00  0.00    +0.144 C 
ATOM     33 CL   UNL     1       9.707 -13.181  -2.498  0.00  0.00    -0.084 Cl
ATOM     34  H   UNL     1       6.216 -11.628  -7.829  0.00  0.00    +0.160 HD
ENDBRANCH  23  24
ENDBRANCH  22  23
ENDBRANCH  20  22
ENDBRANCH  14  18
TORSDOF 4
