REMARK  Name = ZINC25416995
REMARK  15 active torsions:
REMARK  status: ('A' for Active; 'I' for Inactive)
REMARK    1  A    between atoms: C_1  and  C_2
REMARK    2  A    between atoms: C_2  and  N_3
REMARK    3  A    between atoms: N_3  and  C_4
REMARK    4  A    between atoms: N_3  and  S_6
REMARK    5  A    between atoms: C_4  and  C_5
REMARK    6  A    between atoms: S_6  and  C_9
REMARK    7  A    between atoms: C_13  and  C_15
REMARK    8  A    between atoms: N_17  and  C_18
REMARK    9  A    between atoms: C_18  and  C_20
REMARK   10  A    between atoms: C_18  and  C_23
REMARK   11  A    between atoms: C_20  and  C_21
REMARK   12  A    between atoms: C_20  and  C_22
REMARK   13  A    between atoms: N_25  and  N_26
REMARK   14  A    between atoms: C_27  and  C_29
REMARK   15  A    between atoms: C_29  and  C_30
REMARK                            x       y       z     vdW  Elec       q    Type
REMARK                         _______ _______ _______ _____ _____    ______ ____
ROOT
ATOM      1  C   UNL     1       0.102  -4.150   4.634  0.00  0.00    +0.163 C 
ENDROOT
BRANCH   1   4
ATOM      2  C   UNL     1      -0.352  -6.301   5.685  0.00  0.00    +0.245 C 
ATOM      3  O   UNL     1      -0.796  -5.705   6.646  0.00  0.00    -0.270 OA
ATOM      4  N   UNL     1       0.122  -5.615   4.626  0.00  0.00    -0.300 N 
ATOM      5  H   UNL     1       0.524  -6.155   3.756  0.00  0.00    +0.150 HD
BRANCH   2  10
ATOM      6  C   UNL     1      -0.799  -9.873   6.758  0.00  0.00    +0.106 A 
ATOM      7  C   UNL     1      -0.293 -10.549   5.662  0.00  0.00    +0.028 A 
ATOM      8  C   UNL     1       0.194  -9.847   4.573  0.00  0.00    +0.003 A 
ATOM      9  C   UNL     1       0.177  -8.468   4.574  0.00  0.00    +0.013 A 
ATOM     10  C   UNL     1      -0.332  -7.780   5.677  0.00  0.00    +0.039 A 
ATOM     11  C   UNL     1      -0.817  -8.493   6.774  0.00  0.00    +0.041 A 
BRANCH   6  12
ATOM     12  S   UNL     1      -1.415 -10.775   8.140  0.00  0.00    +0.061 S 
ATOM     13  O   UNL     1      -2.334  -9.920   8.807  0.00  0.00    -0.153 OA
ATOM     14  O   UNL     1      -1.784 -12.059   7.655  0.00  0.00    -0.153 OA
BRANCH  12  15
ATOM     15  N   UNL     1      -0.146 -11.009   9.178  0.00  0.00    -0.177 NA
BRANCH  15  17
ATOM     16  C   UNL     1      -0.537 -10.457  11.528  0.00  0.00    +0.022 C 
ATOM     17  C   UNL     1       0.135 -10.023  10.224  0.00  0.00    +0.106 C 
ENDBRANCH  15  17
BRANCH  15  18
ATOM     18  C   UNL     1       0.695 -12.201   9.050  0.00  0.00    +0.106 C 
ATOM     19  C   UNL     1       1.924 -11.870   8.202  0.00  0.00    +0.022 C 
ENDBRANCH  15  18
ENDBRANCH  12  15
ENDBRANCH   6  12
ENDBRANCH   2  10
ENDBRANCH   1   4
BRANCH   1  20
ATOM     20  C   UNL     1       0.082  -3.640   3.216  0.00  0.00    +0.250 C 
ATOM     21  O   UNL     1       0.084  -4.424   2.290  0.00  0.00    -0.272 OA
ATOM     22  N   UNL     1       0.062  -2.314   2.977  0.00  0.00    -0.233 N 
ATOM     23  H   UNL     1       0.060  -1.604   3.817  0.00  0.00    +0.173 HD
BRANCH  22  24
ATOM     24  N   UNL     1       0.043  -1.840   1.659  0.00  0.00    -0.234 N 
ATOM     25  C   UNL     1       0.022  -0.514   1.420  0.00  0.00    +0.233 C 
ATOM     26  O   UNL     1       0.021   0.269   2.346  0.00  0.00    -0.274 OA
ATOM     27  H   UNL     1       0.044  -2.550   0.819  0.00  0.00    +0.173 HD
BRANCH  25  28
ATOM     28  C   UNL     1       0.002  -0.004   0.002  0.00  0.00    +0.132 C 
BRANCH  28  29
ATOM     29  C   UNL     1      -0.018   1.503   0.010  0.00  0.00    -0.039 A 
ATOM     30  C   UNL     1      -1.225   2.178   0.020  0.00  0.00    +0.004 A 
ATOM     31  C   UNL     1      -1.244   3.560   0.032  0.00  0.00    +0.000 A 
ATOM     32  C   UNL     1      -0.056   4.267   0.025  0.00  0.00    +0.000 A 
ATOM     33  C   UNL     1       1.151   3.592   0.010  0.00  0.00    +0.000 A 
ATOM     34  C   UNL     1       1.169   2.210   0.003  0.00  0.00    +0.004 A 
ENDBRANCH  28  29
ENDBRANCH  25  28
ENDBRANCH  22  24
ENDBRANCH   1  20
BRANCH   1  35
ATOM     35  C   UNL     1       1.351  -3.627   5.346  0.00  0.00    +0.012 C 
ATOM     36  C   UNL     1       1.372  -4.145   6.786  0.00  0.00    +0.009 C 
ATOM     37  C   UNL     1       2.601  -4.116   4.611  0.00  0.00    +0.009 C 
ENDBRANCH   1  35
TORSDOF 11
