REMARK  Name = ZINC21721968
REMARK  5 active torsions:
REMARK  status: ('A' for Active; 'I' for Inactive)
REMARK    1  A    between atoms: C_1  and  C_2
REMARK    2  A    between atoms: C_7  and  N_8
REMARK    3  A    between atoms: C_9  and  C_11
REMARK    4  A    between atoms: C_11  and  N_12
REMARK    5  A    between atoms: C_22  and  C_24
REMARK                            x       y       z     vdW  Elec       q    Type
REMARK                         _______ _______ _______ _____ _____    ______ ____
ROOT
ATOM      1  N   UNL     1       1.342  -0.544   0.006  0.00  0.00    -0.305 N 
ATOM      2  C   UNL     1       2.158  -0.208  -1.072  0.00  0.00    +0.052 A 
ATOM      3  C   UNL     1       2.421  -1.110  -2.096  0.00  0.00    +0.025 A 
ATOM      4  C   UNL     1       3.277  -0.718  -3.114  0.00  0.00    +0.002 A 
ATOM      5  C   UNL     1       3.853   0.540  -3.100  0.00  0.00    +0.002 A 
ATOM      6  C   UNL     1       3.568   1.433  -2.079  0.00  0.00    +0.025 A 
ATOM      7  C   UNL     1       2.693   1.030  -1.077  0.00  0.00    +0.052 A 
ATOM      8  N   UNL     1       2.305   1.899  -0.053  0.00  0.00    -0.316 N 
ATOM      9  C   UNL     1       1.028   2.372  -0.017  0.00  0.00    +0.017 C 
ATOM     10  C   UNL     1      -0.026   1.516  -0.018  0.00  0.00    +0.040 C 
ATOM     11  C   UNL     1      -0.003  -0.009  -0.025  0.00  0.00    +0.175 C 
ATOM     12  C   UNL     1      -1.337   2.050  -0.007  0.00  0.00    +0.163 C 
ATOM     13  O   UNL     1      -2.280   1.284  -0.022  0.00  0.00    -0.292 OA
ATOM     14  C   UNL     1      -1.605   3.524   0.019  0.00  0.00    +0.080 C 
ATOM     15  C   UNL     1      -0.450   4.224   0.745  0.00  0.00    +0.014 C 
ATOM     16  C   UNL     1       0.843   3.868   0.011  0.00  0.00    +0.051 C 
ATOM     17  H   UNL     1       3.030   2.199   0.718  0.00  0.00    +0.152 HD
ENDROOT
BRANCH  11  18
ATOM     18  C   UNL     1      -0.756  -0.513   1.179  0.00  0.00    +0.130 A 
ATOM     19  C   UNL     1      -2.024  -0.961   1.183  0.00  0.00    +0.047 A 
ATOM     20  C   UNL     1      -2.323  -1.333   2.514  0.00  0.00    +0.041 A 
ATOM     21  C   UNL     1      -1.222  -1.082   3.246  0.00  0.00    +0.195 A 
ATOM     22  O   UNL     1      -0.276  -0.585   2.432  0.00  0.00    -0.466 OA
ENDBRANCH  11  18
BRANCH   1  23
ATOM     23  C   UNL     1       1.326  -1.997   0.221  0.00  0.00    +0.202 C 
BRANCH  23  25
ATOM     24  N   UNL     1       2.936  -3.873   0.148  0.00  0.00    -0.284 N 
ATOM     25  C   UNL     1       2.710  -2.553   0.005  0.00  0.00    +0.235 C 
ATOM     26  O   UNL     1       3.620  -1.811  -0.299  0.00  0.00    -0.274 OA
ATOM     27  H   UNL     1       2.133  -4.532   0.511  0.00  0.00    +0.155 HD
BRANCH  24  34
ATOM     28  C   UNL     1       3.724  -6.293   1.422  0.00  0.00    +0.046 C 
ATOM     29  C   UNL     1       4.615  -5.585   0.434  0.00  0.00    -0.028 A 
ATOM     30  C   UNL     1       5.853  -6.112   0.119  0.00  0.00    +0.025 A 
ATOM     31  C   UNL     1       6.675  -5.461  -0.783  0.00  0.00    +0.041 A 
ATOM     32  C   UNL     1       6.257  -4.282  -1.377  0.00  0.00    +0.022 A 
ATOM     33  C   UNL     1       5.018  -3.755  -1.070  0.00  0.00    +0.025 A 
ATOM     34  C   UNL     1       4.192  -4.407  -0.165  0.00  0.00    +0.036 A 
ATOM     35 CL   UNL     1       8.232  -6.122  -1.171  0.00  0.00    -0.084 Cl
ENDBRANCH  24  34
ENDBRANCH  23  25
ENDBRANCH   1  23
TORSDOF 4
