REMARK  Name = ZINC10000708
REMARK  10 active torsions:
REMARK  status: ('A' for Active; 'I' for Inactive)
REMARK    1  A    between atoms: C_1  and  C_2
REMARK    2  A    between atoms: C_2  and  C_3
REMARK    3  A    between atoms: C_2  and  C_4
REMARK    4  A    between atoms: C_4  and  C_6
REMARK    5  A    between atoms: C_4  and  N_26
REMARK    6  A    between atoms: N_8  and  N_9
REMARK    7  A    between atoms: C_10  and  C_11
REMARK    8  A    between atoms: C_13  and  N_23
REMARK    9  A    between atoms: C_16  and  N_17
REMARK   10  A    between atoms: C_27  and  C_29
REMARK                            x       y       z     vdW  Elec       q    Type
REMARK                         _______ _______ _______ _____ _____    ______ ____
ROOT
ATOM      1  C   UNL     1      -3.820  -2.787   0.015  0.00  0.00    +0.253 C 
ATOM      2  O   UNL     1      -2.682  -3.036  -0.324  0.00  0.00    -0.272 OA
ATOM      3  N   UNL     1      -4.773  -3.735  -0.077  0.00  0.00    -0.205 N 
ATOM      4  H   UNL     1      -5.665  -3.561   0.262  0.00  0.00    +0.177 HD
ENDROOT
BRANCH   3   5
ATOM      5  N   UNL     1      -4.475  -4.974  -0.660  0.00  0.00    -0.188 NA
ATOM      6  C   UNL     1      -5.393  -5.887  -0.749  0.00  0.00    +0.140 C 
BRANCH   6   7
ATOM      7  C   UNL     1      -5.080  -7.189  -1.363  0.00  0.00    +0.018 A 
ATOM      8  C   UNL     1      -6.065  -8.175  -1.460  0.00  0.00    +0.044 A 
ATOM      9  C   UNL     1      -5.766  -9.392  -2.035  0.00  0.00    +0.127 A 
ATOM     10  C   UNL     1      -4.492  -9.642  -2.519  0.00  0.00    +0.034 A 
ATOM     11  C   UNL     1      -3.508  -8.677  -2.429  0.00  0.00    +0.026 A 
ATOM     12  C   UNL     1      -3.792  -7.444  -1.858  0.00  0.00    +0.039 A 
BRANCH  12  13
ATOM     13  N   UNL     1      -2.803  -6.467  -1.772  0.00  0.00    -0.329 N 
ATOM     14  C   UNL     1      -2.380  -6.028  -3.108  0.00  0.00    +0.105 C 
ATOM     15  C   UNL     1      -1.403  -4.858  -2.976  0.00  0.00    +0.019 C 
ATOM     16  C   UNL     1      -0.189  -5.303  -2.157  0.00  0.00    +0.003 C 
ATOM     17  C   UNL     1      -0.661  -5.801  -0.788  0.00  0.00    +0.019 C 
ATOM     18  C   UNL     1      -1.660  -6.944  -0.984  0.00  0.00    +0.105 C 
ENDBRANCH  12  13
BRANCH   9  19
ATOM     19  N   UNL     1      -6.810 -10.435  -2.138  0.00  0.00    +0.056 N 
ATOM     20  O   UNL     1      -7.931 -10.218  -1.714  0.00  0.00    -0.126 OA
ATOM     21  O   UNL     1      -6.549 -11.511  -2.646  0.00  0.00    -0.126 OA
ENDBRANCH   9  19
ENDBRANCH   6   7
ENDBRANCH   3   5
BRANCH   1  22
ATOM     22  C   UNL     1      -4.167  -1.417   0.539  0.00  0.00    +0.163 C 
BRANCH  22  23
ATOM     23  N   UNL     1      -3.119  -0.468   0.157  0.00  0.00    -0.300 N 
ATOM     24  C   UNL     1      -3.406   0.845   0.050  0.00  0.00    +0.246 C 
ATOM     25  O   UNL     1      -4.534   1.241   0.271  0.00  0.00    -0.270 OA
ATOM     26  H   UNL     1      -2.219  -0.784  -0.020  0.00  0.00    +0.150 HD
BRANCH  24  27
ATOM     27  C   UNL     1      -2.349   1.802  -0.336  0.00  0.00    +0.055 A 
ATOM     28  C   UNL     1      -1.052   1.351  -0.590  0.00  0.00    +0.016 A 
ATOM     29  C   UNL     1      -0.072   2.248  -0.955  0.00  0.00    +0.021 A 
ATOM     30  C   UNL     1      -0.368   3.597  -1.064  0.00  0.00    +0.042 A 
ATOM     31  C   UNL     1      -1.650   4.053  -0.808  0.00  0.00    +0.040 A 
ATOM     32  C   UNL     1      -2.641   3.165  -0.442  0.00  0.00    +0.054 A 
ATOM     33 CL   UNL     1      -4.248   3.737  -0.122  0.00  0.00    -0.083 Cl
ATOM     34 CL   UNL     1       0.873   4.721  -1.523  0.00  0.00    -0.083 Cl
ENDBRANCH  24  27
ENDBRANCH  22  23
BRANCH  22  36
ATOM     35  C   UNL     1      -2.910  -1.798   2.664  0.00  0.00    +0.009 C 
ATOM     36  C   UNL     1      -4.278  -1.468   2.064  0.00  0.00    +0.012 C 
ATOM     37  C   UNL     1      -4.750  -0.109   2.586  0.00  0.00    +0.009 C 
ENDBRANCH  22  36
ENDBRANCH   1  22
TORSDOF 8
