REMARK  Name = ZINC26637523
REMARK  7 active torsions:
REMARK  status: ('A' for Active; 'I' for Inactive)
REMARK    1  A    between atoms: C_1  and  N_2
REMARK    2  A    between atoms: C_3  and  C_19
REMARK    3  A    between atoms: N_5  and  C_8
REMARK    4  A    between atoms: C_8  and  N_9
REMARK    5  A    between atoms: N_9  and  C_10
REMARK    6  A    between atoms: N_9  and  C_16
REMARK    7  A    between atoms: C_10  and  C_11
REMARK                            x       y       z     vdW  Elec       q    Type
REMARK                         _______ _______ _______ _____ _____    ______ ____
ROOT
ATOM      1  C   UNL     1       3.990  -3.623   1.116  0.00  0.00    +0.153 C 
ATOM      2  N   UNL     1       2.553  -3.862   0.961  0.00  0.00    -0.306 N 
ATOM      3  C   UNL     1       1.554  -2.928   1.147  0.00  0.00    +0.164 A 
ATOM      4  N   UNL     1       0.405  -3.498   0.916  0.00  0.00    -0.152 NA
ATOM      5  N   UNL     1       0.645  -4.837   0.576  0.00  0.00    -0.257 N 
ATOM      6  C   UNL     1       1.980  -5.032   0.615  0.00  0.00    +0.176 A 
ATOM      7  S   UNL     1       2.797  -6.498   0.280  0.00  0.00    -0.011 S 
ENDROOT
BRANCH   3   8
ATOM      8  C   UNL     1       1.753  -1.514   1.538  0.00  0.00    +0.037 A 
ATOM      9  C   UNL     1       2.590  -1.194   2.608  0.00  0.00    +0.013 A 
ATOM     10  C   UNL     1       2.771   0.125   2.967  0.00  0.00    +0.001 A 
ATOM     11  C   UNL     1       2.127   1.131   2.269  0.00  0.00    +0.001 A 
ATOM     12  C   UNL     1       1.296   0.822   1.207  0.00  0.00    +0.021 A 
ATOM     13  C   UNL     1       1.105  -0.495   0.837  0.00  0.00    +0.052 A 
ATOM     14 CL   UNL     1       0.063  -0.883  -0.496  0.00  0.00    -0.083 Cl
ENDBRANCH   3   8
BRANCH   5  15
ATOM     15  C   UNL     1      -0.367  -5.840   0.239  0.00  0.00    +0.072 C 
BRANCH  15  16
ATOM     16  N   UNL     1      -0.614  -5.820  -1.209  0.00  0.00    +0.398 N 
ATOM     17  H   UNL     1      -0.830  -4.781  -1.501  0.00  0.00    -0.078 HD
BRANCH  16  18
ATOM     18  C   UNL     1       0.575  -6.259  -1.952  0.00  0.00    -0.066 C 
ATOM     19  C   UNL     1       1.509  -5.176  -2.495  0.00  0.00    -0.017 C 
ATOM     20  C   UNL     1       0.617  -5.968  -3.454  0.00  0.00    -0.017 C 
ENDBRANCH  16  18
BRANCH  16  21
ATOM     21  C   UNL     1      -1.784  -6.638  -1.555  0.00  0.00    -0.033 C 
BRANCH  21  22
ATOM     22  C   UNL     1      -2.254  -6.281  -2.942  0.00  0.00    -0.027 A 
ATOM     23  C   UNL     1      -1.978  -6.890  -4.121  0.00  0.00    +0.009 A 
ATOM     24  C   UNL     1      -2.530  -6.384  -5.282  0.00  0.00    +0.008 A 
ATOM     25  C   UNL     1      -3.323  -5.287  -5.209  0.00  0.00    +0.045 A 
ATOM     26  S   UNL     1      -3.314  -4.940  -3.458  0.00  0.00    -0.103 S 
ENDBRANCH  21  22
ENDBRANCH  16  21
ENDBRANCH  15  16
ENDBRANCH   5  15
TORSDOF 6
