REMARK  Name = ZINC37291300
REMARK  4 active torsions:
REMARK  status: ('A' for Active; 'I' for Inactive)
REMARK    1  A    between atoms: C_1  and  C_2
REMARK    2  A    between atoms: C_3  and  C_7
REMARK    3  A    between atoms: C_9  and  N_20
REMARK    4  A    between atoms: N_10  and  C_12
REMARK                            x       y       z     vdW  Elec       q    Type
REMARK                         _______ _______ _______ _____ _____    ______ ____
ROOT
ATOM      1  C   UNL     1      -2.518  -0.371  -0.137  0.00  0.00    +0.098 A 
ATOM      2  C   UNL     1      -3.624  -1.241  -0.167  0.00  0.00    +0.073 A 
ATOM      3  C   UNL     1      -4.741  -0.501   0.064  0.00  0.00    +0.120 A 
ATOM      4  N   UNL     1      -4.352   0.793   0.233  0.00  0.00    -0.217 N 
ATOM      5  N   UNL     1      -2.958   0.845   0.108  0.00  0.00    -0.164 NA
ENDROOT
BRANCH   4   6
ATOM      6  C   UNL     1      -5.197   1.880   0.492  0.00  0.00    +0.086 A 
ATOM      7  C   UNL     1      -6.162   1.790   1.486  0.00  0.00    +0.031 A 
ATOM      8  C   UNL     1      -6.994   2.863   1.739  0.00  0.00    +0.022 A 
ATOM      9  C   UNL     1      -6.867   4.028   1.003  0.00  0.00    +0.042 A 
ATOM     10  C   UNL     1      -5.906   4.122   0.011  0.00  0.00    +0.042 A 
ATOM     11  C   UNL     1      -5.067   3.053  -0.242  0.00  0.00    +0.068 A 
ATOM     12 CL   UNL     1      -3.858   3.173  -1.482  0.00  0.00    -0.081 Cl
ATOM     13 CL   UNL     1      -7.915   5.375   1.324  0.00  0.00    -0.083 Cl
ENDBRANCH   4   6
BRANCH   1  16
ATOM     14  C   UNL     1      -0.037   1.542  -0.064  0.00  0.00    +0.087 C 
ATOM     15  C   UNL     1      -0.015   0.056  -0.312  0.00  0.00    +0.111 A 
ATOM     16  C   UNL     1      -1.100  -0.760  -0.341  0.00  0.00    +0.043 A 
ATOM     17  C   UNL     1      -0.581  -2.104  -0.615  0.00  0.00    +0.051 A 
ATOM     18  C   UNL     1       0.752  -1.973  -0.724  0.00  0.00    +0.196 A 
ATOM     19  O   UNL     1       1.079  -0.683  -0.548  0.00  0.00    -0.467 OA
ENDBRANCH   1  16
BRANCH   3  20
ATOM     20  N   UNL     1      -6.048  -0.979   0.116  0.00  0.00    -0.343 N 
ATOM     21  H   UNL     1      -6.217  -1.933   0.068  0.00  0.00    +0.144 HD
ATOM     22  H   UNL     1      -6.788  -0.359   0.201  0.00  0.00    +0.144 HD
ENDBRANCH   3  20
TORSDOF 3
