REMARK  Name = ZINC57643177
REMARK  10 active torsions:
REMARK  status: ('A' for Active; 'I' for Inactive)
REMARK    1  A    between atoms: C_1  and  C_2
REMARK    2  A    between atoms: C_4  and  C_37
REMARK    3  A    between atoms: C_9  and  C_14
REMARK    4  A    between atoms: C_14  and  N_15
REMARK    5  A    between atoms: N_15  and  C_16
REMARK    6  A    between atoms: N_15  and  C_23
REMARK    7  A    between atoms: C_16  and  C_17
REMARK    8  A    between atoms: C_23  and  C_24
REMARK    9  A    between atoms: N_28  and  C_29
REMARK   10  A    between atoms: C_29  and  C_30
REMARK                            x       y       z     vdW  Elec       q    Type
REMARK                         _______ _______ _______ _____ _____    ______ ____
ROOT
ATOM      1  N   UNL     1      -1.439  -5.268   3.526  0.00  0.00    -0.287 NA
ENDROOT
BRANCH   1   2
ATOM      2  C   UNL     1      -0.076  -4.724   3.470  0.00  0.00    +0.125 C 
BRANCH   2  11
ATOM      3  C   UNL     1      -0.050   1.487  -0.658  0.00  0.00    +0.044 C 
ATOM      4  C   UNL     1       0.145  -0.001  -0.521  0.00  0.00    -0.050 A 
ATOM      5  C   UNL     1       0.523  -0.750  -1.628  0.00  0.00    +0.008 A 
ATOM      6  C   UNL     1       0.707  -2.112  -1.526  0.00  0.00    -0.026 A 
ATOM      7  C   UNL     1       0.514  -2.745  -0.302  0.00  0.00    +0.052 A 
ATOM      8  C   UNL     1       0.132  -1.982   0.818  0.00  0.00    -0.001 A 
ATOM      9  C   UNL     1      -0.045  -0.600   0.692  0.00  0.00    +0.013 A 
ATOM     10  C   UNL     1      -0.068  -2.657   2.101  0.00  0.00    +0.020 A 
ATOM     11  C   UNL     1       0.122  -3.998   2.164  0.00  0.00    +0.031 A 
ATOM     12  C   UNL     1       0.506  -4.717   1.012  0.00  0.00    +0.254 A 
ATOM     13  O   UNL     1       0.672  -5.922   1.091  0.00  0.00    -0.268 OA
ATOM     14  N   UNL     1       0.692  -4.105  -0.171  0.00  0.00    -0.322 N 
ATOM     15  H   UNL     1       0.955  -4.630  -0.944  0.00  0.00    +0.169 HD
ATOM     16  C   UNL     1       1.116  -2.912  -2.735  0.00  0.00    +0.046 C 
ENDBRANCH   2  11
ENDBRANCH   1   2
BRANCH   1  17
ATOM     17  C   UNL     1      -1.631  -6.313   2.513  0.00  0.00    +0.120 C 
BRANCH  17  18
ATOM     18  C   UNL     1      -3.077  -6.738   2.496  0.00  0.00    -0.033 A 
ATOM     19  C   UNL     1      -3.480  -7.848   3.215  0.00  0.00    +0.005 A 
ATOM     20  C   UNL     1      -4.806  -8.237   3.200  0.00  0.00    +0.000 A 
ATOM     21  C   UNL     1      -5.730  -7.516   2.466  0.00  0.00    +0.000 A 
ATOM     22  C   UNL     1      -5.327  -6.405   1.748  0.00  0.00    +0.000 A 
ATOM     23  C   UNL     1      -4.002  -6.013   1.767  0.00  0.00    +0.005 A 
ENDBRANCH  17  18
ENDBRANCH   1  17
BRANCH   1  24
ATOM     24  C   UNL     1      -1.749  -5.774   4.870  0.00  0.00    +0.163 C 
BRANCH  24  25
ATOM     25  C   UNL     1      -1.823  -4.620   5.837  0.00  0.00    +0.166 A 
ATOM     26  N   UNL     1      -0.841  -4.142   6.561  0.00  0.00    -0.112 NA
ATOM     27  N   UNL     1      -1.302  -3.160   7.257  0.00  0.00    -0.023 NA
ATOM     28  N   UNL     1      -2.551  -2.999   6.994  0.00  0.00    -0.044 NA
ATOM     29  N   UNL     1      -2.909  -3.877   6.119  0.00  0.00    -0.224 N 
BRANCH  29  30
ATOM     30  C   UNL     1      -4.247  -4.037   5.543  0.00  0.00    +0.182 C 
BRANCH  30  31
ATOM     31  C   UNL     1      -5.075  -4.923   6.437  0.00  0.00    -0.026 A 
ATOM     32  C   UNL     1      -5.075  -6.292   6.244  0.00  0.00    +0.008 A 
ATOM     33  C   UNL     1      -5.834  -7.106   7.062  0.00  0.00    +0.038 A 
ATOM     34  C   UNL     1      -6.595  -6.551   8.077  0.00  0.00    +0.123 A 
ATOM     35  C   UNL     1      -6.595  -5.180   8.269  0.00  0.00    +0.038 A 
ATOM     36  C   UNL     1      -5.831  -4.368   7.452  0.00  0.00    +0.008 A 
ATOM     37  F   UNL     1      -7.338  -7.346   8.877  0.00  0.00    -0.205 F 
ENDBRANCH  30  31
ENDBRANCH  29  30
ENDBRANCH  24  25
ENDBRANCH   1  24
TORSDOF 8
