REMARK  Name = ZINC37350105
REMARK  4 active torsions:
REMARK  status: ('A' for Active; 'I' for Inactive)
REMARK    1  A    between atoms: C_1  and  C_2
REMARK    2  A    between atoms: C_5  and  C_8
REMARK    3  A    between atoms: C_9  and  C_14
REMARK    4  A    between atoms: C_10  and  N_13
REMARK                            x       y       z     vdW  Elec       q    Type
REMARK                         _______ _______ _______ _____ _____    ______ ____
ROOT
ATOM      1  C   UNL     1       0.061  -4.256  -0.021  0.00  0.00    +0.123 A 
ATOM      2  C   UNL     1       0.748  -5.121   0.939  0.00  0.00    +0.071 A 
ATOM      3  C   UNL     1       0.498  -6.422   0.550  0.00  0.00    +0.224 A 
ATOM      4  O   UNL     1      -0.272  -6.384  -0.548  0.00  0.00    -0.339 OA
ATOM      5  N   UNL     1      -0.539  -5.038  -0.887  0.00  0.00    -0.075 NA
ENDROOT
BRANCH   1  10
ATOM      6  C   UNL     1      -0.018   1.503   0.010  0.00  0.00    +0.044 C 
ATOM      7  C   UNL     1       0.002  -0.004   0.002  0.00  0.00    -0.050 A 
ATOM      8  C   UNL     1       0.006  -0.686  -1.201  0.00  0.00    +0.004 A 
ATOM      9  C   UNL     1       0.025  -2.067  -1.215  0.00  0.00    +0.010 A 
ATOM     10  C   UNL     1       0.041  -2.772  -0.013  0.00  0.00    +0.004 A 
ATOM     11  C   UNL     1       0.037  -2.080   1.196  0.00  0.00    +0.010 A 
ATOM     12  C   UNL     1       0.023  -0.700   1.198  0.00  0.00    +0.004 A 
ENDBRANCH   1  10
BRANCH   2  13
ATOM     13  C   UNL     1       1.556  -4.686   2.102  0.00  0.00    -0.011 A 
ATOM     14  C   UNL     1       2.738  -3.973   1.906  0.00  0.00    +0.010 A 
ATOM     15  C   UNL     1       3.486  -3.570   2.993  0.00  0.00    +0.016 A 
ATOM     16  C   UNL     1       3.066  -3.872   4.277  0.00  0.00    +0.018 A 
ATOM     17  C   UNL     1       1.893  -4.580   4.477  0.00  0.00    +0.016 A 
ATOM     18  C   UNL     1       1.134  -4.983   3.398  0.00  0.00    +0.010 A 
ATOM     19 BR   UNL     1       4.096  -3.316   5.761  0.00  0.00    -0.050 Br
ENDBRANCH   2  13
BRANCH   3  20
ATOM     20  N   UNL     1       0.958  -7.560   1.179  0.00  0.00    -0.327 N 
ATOM     21  H   UNL     1       1.513  -7.486   1.971  0.00  0.00    +0.145 HD
ATOM     22  H   UNL     1       0.728  -8.435   0.829  0.00  0.00    +0.145 HD
ENDBRANCH   3  20
TORSDOF 3
