REMARK  Name = ZINC39652652
REMARK  9 active torsions:
REMARK  status: ('A' for Active; 'I' for Inactive)
REMARK    1  A    between atoms: C_1  and  C_2
REMARK    2  A    between atoms: C_2  and  O_3
REMARK    3  A    between atoms: O_3  and  C_4
REMARK    4  A    between atoms: C_9  and  C_10
REMARK    5  A    between atoms: C_10  and  C_11
REMARK    6  A    between atoms: C_11  and  N_12
REMARK    7  A    between atoms: C_13  and  C_15
REMARK    8  A    between atoms: C_26  and  C_28
REMARK    9  A    between atoms: C_31  and  C_35
REMARK                            x       y       z     vdW  Elec       q    Type
REMARK                         _______ _______ _______ _____ _____    ______ ____
ROOT
ATOM      1  C   UNL     1       1.448   1.842   7.511  0.00  0.00    +0.100 C 
ATOM      2  C   UNL     1       2.418   0.900   8.258  0.00  0.00    +0.121 C 
ATOM      3  N   UNL     1       2.226   1.226   9.691  0.00  0.00    -0.296 N 
ATOM      4  C   UNL     1       0.766   1.441   9.828  0.00  0.00    +0.115 C 
ATOM      5  C   UNL     1       0.365   2.194   8.544  0.00  0.00    -0.004 C 
ATOM      6  C   UNL     1       0.346   3.698   8.799  0.00  0.00    -0.010 C 
ATOM      7  C   UNL     1      -0.776   4.030   9.786  0.00  0.00    -0.082 C 
ATOM      8  N   UNL     1      -2.063   3.592   9.233  0.00  0.00    +0.379 N 
ATOM      9  C   UNL     1      -2.070   2.132   9.078  0.00  0.00    -0.082 C 
ATOM     10  C   UNL     1      -1.002   1.720   8.060  0.00  0.00    -0.010 C 
ATOM     11  C   UNL     1       3.167   1.307  10.653  0.00  0.00    +0.249 C 
ATOM     12  O   UNL     1       2.840   1.494  11.809  0.00  0.00    -0.270 OA
ATOM     13  H   UNL     1      -2.807   3.866   9.857  0.00  0.00    -0.086 HD
ATOM     14  H   UNL     1      -2.206   4.025   8.333  0.00  0.00    -0.086 HD
ENDROOT
BRANCH  11  15
ATOM     15  C   UNL     1       4.595   1.170  10.303  0.00  0.00    +0.072 A 
ATOM     16  C   UNL     1       4.987   0.299   9.284  0.00  0.00    +0.016 A 
ATOM     17  C   UNL     1       6.322   0.175   8.962  0.00  0.00    +0.013 A 
ATOM     18  C   UNL     1       7.275   0.912   9.644  0.00  0.00    +0.058 A 
ATOM     19  C   UNL     1       6.897   1.777  10.654  0.00  0.00    +0.051 A 
ATOM     20  C   UNL     1       5.561   1.916  10.985  0.00  0.00    +0.136 A 
ATOM     21  F   UNL     1       5.191   2.766  11.968  0.00  0.00    -0.205 F 
BRANCH  18  22
ATOM     22  C   UNL     1       8.731   0.771   9.285  0.00  0.00    +0.418 C 
ATOM     23  F   UNL     1       9.060   1.701   8.293  0.00  0.00    -0.166 F 
ATOM     24  F   UNL     1       9.516   1.002  10.419  0.00  0.00    -0.166 F 
ATOM     25  F   UNL     1       8.970  -0.523   8.809  0.00  0.00    -0.166 F 
ENDBRANCH  18  22
ENDBRANCH  11  15
BRANCH   1  27
ATOM     26  N   UNL     1       0.455   1.839   5.245  0.00  0.00    -0.315 N 
ATOM     27  C   UNL     1       0.836   1.134   6.330  0.00  0.00    +0.218 C 
ATOM     28  O   UNL     1       0.686  -0.069   6.354  0.00  0.00    -0.275 OA
ATOM     29  H   UNL     1       0.575   2.801   5.225  0.00  0.00    +0.149 HD
BRANCH  26  30
ATOM     30  C   UNL     1      -0.140   1.151   4.097  0.00  0.00    +0.109 C 
BRANCH  30  31
ATOM     31  C   UNL     1      -0.480   2.173   3.010  0.00  0.00    +0.057 C 
BRANCH  31  37
ATOM     32  C   UNL     1      -2.452   1.193   1.811  0.00  0.00    +0.124 A 
ATOM     33  C   UNL     1      -3.014   0.546   0.719  0.00  0.00    +0.046 A 
ATOM     34  C   UNL     1      -2.216   0.170  -0.344  0.00  0.00    +0.004 A 
ATOM     35  C   UNL     1      -0.860   0.438  -0.322  0.00  0.00    +0.000 A 
ATOM     36  C   UNL     1      -0.298   1.082   0.765  0.00  0.00    +0.007 A 
ATOM     37  C   UNL     1      -1.092   1.465   1.829  0.00  0.00    -0.004 A 
BRANCH  32  38
ATOM     38  O   UNL     1      -3.234   1.565   2.858  0.00  0.00    -0.492 OA
BRANCH  38  40
ATOM     39  C   UNL     1      -5.339   1.744   4.033  0.00  0.00    +0.048 C 
ATOM     40  C   UNL     1      -4.626   1.252   2.772  0.00  0.00    +0.225 C 
ENDBRANCH  38  40
ENDBRANCH  32  38
ENDBRANCH  31  37
ENDBRANCH  30  31
ENDBRANCH  26  30
ENDBRANCH   1  27
TORSDOF 8
