REMARK  Name = ZINC34971551
REMARK  10 active torsions:
REMARK  status: ('A' for Active; 'I' for Inactive)
REMARK    1  A    between atoms: C_1  and  C_2
REMARK    2  A    between atoms: C_7  and  N_8
REMARK    3  A    between atoms: N_11  and  C_12
REMARK    4  A    between atoms: C_12  and  C_13
REMARK    5  A    between atoms: C_13  and  C_14
REMARK    6  A    between atoms: C_14  and  N_15
REMARK    7  A    between atoms: N_15  and  C_16
REMARK    8  A    between atoms: N_24  and  C_25
REMARK    9  A    between atoms: C_30  and  O_31
REMARK   10  A    between atoms: O_31  and  C_32
REMARK                            x       y       z     vdW  Elec       q    Type
REMARK                         _______ _______ _______ _____ _____    ______ ____
ROOT
ATOM      1  N   UNL     1      -0.581   0.161   9.757  0.00  0.00    -0.255 N 
ATOM      2  C   UNL     1       0.555   0.562  10.361  0.00  0.00    +0.311 C 
ATOM      3  O   UNL     1       1.586  -0.060  10.192  0.00  0.00    -0.252 OA
ATOM      4  N   UNL     1       0.548   1.653  11.153  0.00  0.00    -0.266 N 
ATOM      5  H   UNL     1      -0.286   2.110  11.341  0.00  0.00    +0.156 HD
ENDROOT
BRANCH   1   6
ATOM      6  C   UNL     1      -1.788   0.813  10.032  0.00  0.00    +0.038 A 
ATOM      7  C   UNL     1      -1.976   2.129   9.628  0.00  0.00    +0.023 A 
ATOM      8  C   UNL     1      -3.168   2.769   9.901  0.00  0.00    +0.002 A 
ATOM      9  C   UNL     1      -4.175   2.103  10.576  0.00  0.00    +0.000 A 
ATOM     10  C   UNL     1      -3.990   0.793  10.979  0.00  0.00    +0.002 A 
ATOM     11  C   UNL     1      -2.802   0.145  10.704  0.00  0.00    +0.023 A 
ENDBRANCH   1   6
BRANCH   4  12
ATOM     12  C   UNL     1       1.747   2.126  11.704  0.00  0.00    +0.077 A 
ATOM     13  C   UNL     1       2.963   1.737  11.162  0.00  0.00    +0.027 A 
ATOM     14  C   UNL     1       4.144   2.205  11.707  0.00  0.00    +0.002 A 
ATOM     15  C   UNL     1       4.116   3.061  12.793  0.00  0.00    +0.004 A 
ATOM     16  C   UNL     1       2.908   3.452  13.339  0.00  0.00    +0.047 A 
ATOM     17  C   UNL     1       1.720   2.993  12.794  0.00  0.00    +0.141 A 
BRANCH  17  18
ATOM     18  O   UNL     1       0.530   3.382  13.326  0.00  0.00    -0.493 OA
ATOM     19  C   UNL     1       0.580   4.272  14.443  0.00  0.00    +0.277 C 
ENDBRANCH  17  18
ENDBRANCH   4  12
BRANCH   1  20
ATOM     20  C   UNL     1      -0.552  -0.957   8.811  0.00  0.00    +0.117 C 
BRANCH  20  21
ATOM     21  C   UNL     1      -0.291  -0.426   7.400  0.00  0.00    +0.038 C 
BRANCH  21  22
ATOM     22  C   UNL     1      -0.260  -1.594   6.412  0.00  0.00    +0.107 C 
BRANCH  22  26
ATOM     23  N   UNL     1       0.288  -1.472   2.779  0.00  0.00    -0.269 N 
ATOM     24  C   UNL     1       0.059  -1.940   4.022  0.00  0.00    +0.304 C 
ATOM     25  O   UNL     1      -0.086  -3.133   4.205  0.00  0.00    -0.253 OA
ATOM     26  N   UNL     1      -0.011  -1.085   5.062  0.00  0.00    -0.299 N 
ATOM     27  H   UNL     1       0.473  -0.529   2.642  0.00  0.00    +0.156 HD
ATOM     28  H   UNL     1       0.105  -0.133   4.916  0.00  0.00    +0.150 HD
BRANCH  23  35
ATOM     29  C   UNL     1      -0.672  -0.480   0.291  0.00  0.00    +0.045 C 
ATOM     30  C   UNL     1      -0.201  -1.902   0.453  0.00  0.00    -0.029 A 
ATOM     31  C   UNL     1      -0.222  -2.765  -0.625  0.00  0.00    +0.005 A 
ATOM     32  C   UNL     1       0.209  -4.070  -0.477  0.00  0.00    +0.000 A 
ATOM     33  C   UNL     1       0.663  -4.516   0.751  0.00  0.00    +0.002 A 
ATOM     34  C   UNL     1       0.687  -3.658   1.833  0.00  0.00    +0.023 A 
ATOM     35  C   UNL     1       0.260  -2.345   1.686  0.00  0.00    +0.038 A 
ENDBRANCH  23  35
ENDBRANCH  22  26
ENDBRANCH  21  22
ENDBRANCH  20  21
ENDBRANCH   1  20
TORSDOF 8
