REMARK  Name = ZINC29811140
REMARK  10 active torsions:
REMARK  status: ('A' for Active; 'I' for Inactive)
REMARK    1  A    between atoms: C_1  and  C_2
REMARK    2  A    between atoms: C_2  and  C_3
REMARK    3  A    between atoms: C_6  and  N_9
REMARK    4  A    between atoms: C_10  and  C_12
REMARK    5  A    between atoms: C_12  and  C_14
REMARK    6  A    between atoms: C_12  and  N_15
REMARK    7  A    between atoms: N_15  and  C_16
REMARK    8  A    between atoms: C_19  and  N_22
REMARK    9  A    between atoms: N_25  and  C_26
REMARK   10  A    between atoms: C_26  and  C_27
REMARK                            x       y       z     vdW  Elec       q    Type
REMARK                         _______ _______ _______ _____ _____    ______ ____
ROOT
ATOM      1  N   UNL     1      -1.064   7.559   0.429  0.00  0.00    -0.333 N 
ATOM      2  H   UNL     1      -2.000   8.127   0.528  0.00  0.00    +0.147 HD
ENDROOT
BRANCH   1   3
ATOM      3  C   UNL     1      -1.101   6.164   0.323  0.00  0.00    +0.028 A 
ATOM      4  C   UNL     1      -2.319   5.498   0.343  0.00  0.00    +0.025 A 
ATOM      5  C   UNL     1      -2.355   4.121   0.239  0.00  0.00    +0.025 A 
ATOM      6  C   UNL     1      -1.173   3.403   0.114  0.00  0.00    +0.035 A 
ATOM      7  C   UNL     1       0.045   4.069   0.099  0.00  0.00    +0.025 A 
ATOM      8  C   UNL     1       0.081   5.446   0.198  0.00  0.00    +0.025 A 
BRANCH   6   9
ATOM      9  N   UNL     1      -1.210   2.006   0.008  0.00  0.00    -0.269 N 
ATOM     10  C   UNL     1      -0.292   1.362  -0.739  0.00  0.00    +0.304 C 
ATOM     11  O   UNL     1       0.508   1.997  -1.399  0.00  0.00    -0.253 OA
ATOM     12  N   UNL     1      -0.264   0.015  -0.760  0.00  0.00    -0.296 N 
ATOM     13  H   UNL     1      -1.988   1.435   0.535  0.00  0.00    +0.156 HD
ATOM     14  H   UNL     1      -0.987  -0.559  -0.163  0.00  0.00    +0.151 HD
BRANCH  12  15
ATOM     15  C   UNL     1       0.731  -0.685  -1.577  0.00  0.00    +0.132 C 
BRANCH  15  16
ATOM     16  C   UNL     1       0.549  -2.173  -1.425  0.00  0.00    -0.016 C 
ATOM     17  C   UNL     1       0.376  -2.924  -2.484  0.00  0.00    +0.005 C 
ENDBRANCH  15  16
ENDBRANCH  12  15
ENDBRANCH   6   9
ENDBRANCH   1   3
BRANCH   1  18
ATOM     18  C   UNL     1       0.221   8.261   0.408  0.00  0.00    +0.154 C 
ATOM     19  C   UNL     1       0.813   8.285   1.819  0.00  0.00    +0.038 C 
BRANCH  18  21
ATOM     20  N   UNL     1       1.064  10.513  -0.175  0.00  0.00    -0.284 N 
ATOM     21  C   UNL     1       0.014   9.674  -0.074  0.00  0.00    +0.237 C 
ATOM     22  O   UNL     1      -1.099  10.056  -0.370  0.00  0.00    -0.273 OA
ATOM     23  H   UNL     1       2.082  10.145   0.020  0.00  0.00    +0.155 HD
BRANCH  20  27
ATOM     24  C   UNL     1       0.454  14.497  -1.229  0.00  0.00    -0.048 A 
ATOM     25  C   UNL     1       1.447  14.166  -0.326  0.00  0.00    +0.005 A 
ATOM     26  C   UNL     1       1.652  12.847   0.025  0.00  0.00    +0.023 A 
ATOM     27  C   UNL     1       0.859  11.851  -0.529  0.00  0.00    +0.033 A 
ATOM     28  C   UNL     1      -0.135  12.185  -1.440  0.00  0.00    +0.023 A 
ATOM     29  C   UNL     1      -0.339  13.508  -1.782  0.00  0.00    +0.005 A 
BRANCH  24  31
ATOM     30  C   UNL     1       1.097  16.282  -2.825  0.00  0.00    +0.009 C 
ATOM     31  C   UNL     1       0.233  15.938  -1.610  0.00  0.00    +0.032 C 
ENDBRANCH  24  31
ENDBRANCH  20  27
ENDBRANCH  18  21
ENDBRANCH   1  18
TORSDOF 8
