REMARK  Name = ZINC35421291
REMARK  6 active torsions:
REMARK  status: ('A' for Active; 'I' for Inactive)
REMARK    1  A    between atoms: C_1  and  O_2
REMARK    2  A    between atoms: O_2  and  C_3
REMARK    3  A    between atoms: C_13  and  C_30
REMARK    4  A    between atoms: C_15  and  C_20
REMARK    5  A    between atoms: C_20  and  C_22
REMARK    6  A    between atoms: C_23  and  C_24
REMARK                            x       y       z     vdW  Elec       q    Type
REMARK                         _______ _______ _______ _____ _____    ______ ____
ROOT
ATOM      1  C   UNL     1       0.302  -0.453   1.356  0.00  0.00    +0.121 A 
ATOM      2  C   UNL     1       0.972   0.268   2.340  0.00  0.00    +0.048 A 
ATOM      3  C   UNL     1       1.668  -0.353   3.329  0.00  0.00    +0.032 A 
ATOM      4  C   UNL     1       1.737  -1.764   3.393  0.00  0.00    +0.081 A 
ATOM      5  C   UNL     1       1.047  -2.471   2.382  0.00  0.00    +0.044 A 
ATOM      6  C   UNL     1       0.341  -1.839   1.388  0.00  0.00    +0.063 A 
ATOM      7  S   UNL     1       1.374  -4.163   2.812  0.00  0.00    -0.052 S 
ATOM      8  C   UNL     1       2.372  -3.839   4.258  0.00  0.00    +0.169 A 
ATOM      9  N   UNL     1       2.381  -2.527   4.304  0.00  0.00    -0.224 NA
ATOM     10  N   UNL     1       2.981  -4.741   5.113  0.00  0.00    -0.232 N 
ATOM     11  C   UNL     1       3.786  -4.405   6.293  0.00  0.00    +0.154 C 
ATOM     12  C   UNL     1       4.226  -5.722   6.890  0.00  0.00    +0.076 C 
ATOM     13  C   UNL     1       3.709  -6.697   6.108  0.00  0.00    +0.250 C 
ATOM     14  C   UNL     1       2.934  -6.082   5.013  0.00  0.00    +0.293 C 
ATOM     15  O   UNL     1       2.343  -6.696   4.147  0.00  0.00    -0.266 OA
ATOM     16  O   UNL     1       3.872  -8.027   6.303  0.00  0.00    -0.282 OA
ENDROOT
BRANCH  11  17
ATOM     17  C   UNL     1       4.987  -3.592   5.886  0.00  0.00    +0.013 A 
ATOM     18  C   UNL     1       5.529  -3.743   4.624  0.00  0.00    +0.008 A 
ATOM     19  C   UNL     1       6.631  -2.997   4.250  0.00  0.00    +0.001 A 
ATOM     20  C   UNL     1       7.193  -2.099   5.139  0.00  0.00    +0.003 A 
ATOM     21  C   UNL     1       6.652  -1.945   6.401  0.00  0.00    +0.039 A 
ATOM     22  C   UNL     1       5.545  -2.688   6.775  0.00  0.00    +0.129 A 
ATOM     23  F   UNL     1       5.013  -2.536   8.007  0.00  0.00    -0.205 F 
ENDBRANCH  11  17
BRANCH   1  25
ATOM     24  C   UNL     1      -0.378   1.622   0.414  0.00  0.00    +0.277 C 
ATOM     25  O   UNL     1      -0.387   0.194   0.378  0.00  0.00    -0.495 OA
ENDBRANCH   1  25
BRANCH  12  26
ATOM     26  C   UNL     1       5.055  -5.907   8.088  0.00  0.00    +0.188 C 
ATOM     27  O   UNL     1       5.367  -4.944   8.767  0.00  0.00    -0.287 OA
BRANCH  26  28
ATOM     28  C   UNL     1       5.506  -7.247   8.465  0.00  0.00    +0.052 C 
ATOM     29  C   UNL     1       6.177  -7.432   9.623  0.00  0.00    +0.011 C 
BRANCH  29  30
ATOM     30  C   UNL     1       6.533  -8.791  10.057  0.00  0.00    -0.025 A 
ATOM     31  C   UNL     1       6.284  -9.885   9.220  0.00  0.00    +0.008 A 
ATOM     32  C   UNL     1       6.621 -11.156   9.634  0.00  0.00    +0.001 A 
ATOM     33  C   UNL     1       7.205 -11.352  10.874  0.00  0.00    +0.000 A 
ATOM     34  C   UNL     1       7.455 -10.275  11.708  0.00  0.00    +0.001 A 
ATOM     35  C   UNL     1       7.129  -8.998  11.306  0.00  0.00    +0.008 A 
ENDBRANCH  29  30
ENDBRANCH  26  28
ENDBRANCH  12  26
TORSDOF 5
