REMARK  Name = ZINC20322919
REMARK  9 active torsions:
REMARK  status: ('A' for Active; 'I' for Inactive)
REMARK    1  A    between atoms: C_1  and  C_2
REMARK    2  A    between atoms: C_2  and  C_3
REMARK    3  A    between atoms: C_2  and  C_4
REMARK    4  A    between atoms: C_2  and  C_5
REMARK    5  A    between atoms: C_14  and  N_18
REMARK    6  A    between atoms: N_18  and  C_19
REMARK    7  A    between atoms: C_19  and  C_20
REMARK    8  A    between atoms: C_20  and  C_21
REMARK    9  A    between atoms: C_21  and  O_22
REMARK                            x       y       z     vdW  Elec       q    Type
REMARK                         _______ _______ _______ _____ _____    ______ ____
ROOT
ATOM      1  C   UNL     1       1.178  -1.044  -0.577  0.00  0.00    -0.000 C 
ATOM      2  C   UNL     1       1.173  -2.557  -0.816  0.00  0.00    +0.009 C 
ATOM      3  C   UNL     1       1.503  -2.852  -2.278  0.00  0.00    +0.037 C 
ATOM      4  C   UNL     1       2.796  -2.132  -2.652  0.00  0.00    -0.025 A 
ATOM      5  C   UNL     1       3.253  -1.105  -1.901  0.00  0.00    -0.004 A 
ATOM      6  S   UNL     1       4.754  -0.579  -2.689  0.00  0.00    -0.073 S 
ATOM      7  C   UNL     1       4.771  -1.734  -4.022  0.00  0.00    +0.114 A 
ATOM      8  C   UNL     1       3.595  -2.498  -3.810  0.00  0.00    +0.051 A 
ATOM      9  C   UNL     1       3.326  -3.537  -4.747  0.00  0.00    +0.130 A 
ATOM     10  N   UNL     1       4.215  -3.677  -5.729  0.00  0.00    -0.220 NA
ATOM     11  C   UNL     1       5.289  -2.926  -5.862  0.00  0.00    +0.224 A 
ATOM     12  N   UNL     1       5.599  -1.942  -5.026  0.00  0.00    -0.228 NA
ATOM     13  C   UNL     1       2.623  -0.533  -0.667  0.00  0.00    +0.046 C 
ENDROOT
BRANCH   1  15
ATOM     14  C   UNL     1       0.627   0.769   1.052  0.00  0.00    +0.011 C 
ATOM     15  C   UNL     1       0.614  -0.742   0.813  0.00  0.00    -0.035 C 
ATOM     16  C   UNL     1       1.472  -1.434   1.874  0.00  0.00    +0.011 C 
ATOM     17  C   UNL     1      -0.824  -1.259   0.902  0.00  0.00    +0.011 C 
ENDBRANCH   1  15
BRANCH   9  18
ATOM     18  N   UNL     1       2.210  -4.348  -4.645  0.00  0.00    -0.328 N 
ATOM     19  H   UNL     1       1.450  -4.143  -3.877  0.00  0.00    +0.147 HD
BRANCH  18  20
ATOM     20  C   UNL     1       2.042  -5.480  -5.559  0.00  0.00    +0.105 C 
BRANCH  20  21
ATOM     21  C   UNL     1       0.736  -6.208  -5.234  0.00  0.00    +0.046 C 
BRANCH  21  22
ATOM     22  C   UNL     1       0.559  -7.391  -6.188  0.00  0.00    +0.157 C 
BRANCH  22  23
ATOM     23  O   UNL     1      -0.660  -8.070  -5.884  0.00  0.00    -0.395 OA
ATOM     24  H   UNL     1      -0.959  -8.953  -6.470  0.00  0.00    +0.209 HD
ENDBRANCH  22  23
ENDBRANCH  21  22
ENDBRANCH  20  21
ENDBRANCH  18  20
ENDBRANCH   9  18
TORSDOF 6
