REMARK  Name = ZINC33471021
REMARK  9 active torsions:
REMARK  status: ('A' for Active; 'I' for Inactive)
REMARK    1  A    between atoms: C_1  and  C_2
REMARK    2  A    between atoms: C_2  and  C_3
REMARK    3  A    between atoms: C_7  and  C_29
REMARK    4  A    between atoms: C_8  and  N_9
REMARK    5  A    between atoms: C_10  and  C_12
REMARK    6  A    between atoms: C_12  and  N_13
REMARK    7  A    between atoms: C_16  and  C_20
REMARK    8  A    between atoms: C_16  and  C_21
REMARK    9  A    between atoms: C_29  and  C_30
REMARK                            x       y       z     vdW  Elec       q    Type
REMARK                         _______ _______ _______ _____ _____    ______ ____
ROOT
ATOM      1  N   UNL     1      -2.765   1.810   5.812  0.00  0.00    -0.215 N 
ATOM      2  C   UNL     1      -4.027   1.361   5.661  0.00  0.00    +0.251 C 
ATOM      3  O   UNL     1      -4.647   1.255   4.625  0.00  0.00    -0.272 OA
ATOM      4  C   UNL     1      -4.508   1.014   7.056  0.00  0.00    +0.136 C 
ATOM      5  N   UNL     1      -3.357   1.346   7.913  0.00  0.00    -0.281 N 
ATOM      6  C   UNL     1      -2.389   1.802   7.096  0.00  0.00    +0.310 C 
ATOM      7  O   UNL     1      -1.296   2.166   7.482  0.00  0.00    -0.252 OA
ATOM      8  C   UNL     1      -5.722   1.866   7.433  0.00  0.00    +0.047 C 
ATOM      9  H   UNL     1      -3.419   1.197   9.001  0.00  0.00    +0.152 HD
ENDROOT
BRANCH   4  10
ATOM     10  C   UNL     1      -4.840  -0.452   7.158  0.00  0.00    +0.003 A 
ATOM     11  C   UNL     1      -4.110  -1.269   8.001  0.00  0.00    +0.009 A 
ATOM     12  C   UNL     1      -4.413  -2.614   8.095  0.00  0.00    +0.020 A 
ATOM     13  C   UNL     1      -5.448  -3.144   7.345  0.00  0.00    +0.042 A 
ATOM     14  C   UNL     1      -6.179  -2.327   6.501  0.00  0.00    +0.040 A 
ATOM     15  C   UNL     1      -5.879  -0.980   6.412  0.00  0.00    +0.048 A 
ATOM     16 CL   UNL     1      -6.800   0.048   5.359  0.00  0.00    -0.083 Cl
ATOM     17 CL   UNL     1      -5.829  -4.833   7.463  0.00  0.00    -0.083 Cl
ENDBRANCH   4  10
BRANCH   1  18
ATOM     18  C   UNL     1      -1.913   2.257   4.708  0.00  0.00    +0.214 C 
BRANCH  18  20
ATOM     19  N   UNL     1      -0.269   1.262   3.150  0.00  0.00    -0.284 N 
ATOM     20  C   UNL     1      -1.126   1.087   4.176  0.00  0.00    +0.235 C 
ATOM     21  O   UNL     1      -1.263  -0.012   4.670  0.00  0.00    -0.274 OA
ATOM     22  H   UNL     1      -0.164   2.253   2.685  0.00  0.00    +0.155 HD
BRANCH  19  28
ATOM     23  C   UNL     1       0.586  -0.050   1.312  0.00  0.00    -0.026 A 
ATOM     24  C   UNL     1       1.337  -1.113   0.848  0.00  0.00    +0.005 A 
ATOM     25  C   UNL     1       1.983  -1.947   1.742  0.00  0.00    +0.001 A 
ATOM     26  C   UNL     1       1.881  -1.720   3.102  0.00  0.00    +0.005 A 
ATOM     27  C   UNL     1       1.133  -0.659   3.572  0.00  0.00    -0.026 A 
ATOM     28  C   UNL     1       0.486   0.183   2.677  0.00  0.00    +0.040 A 
BRANCH  23  30
ATOM     29  C   UNL     1       0.761   2.078   0.051  0.00  0.00    +0.009 C 
ATOM     30  C   UNL     1      -0.118   0.858   0.337  0.00  0.00    +0.033 C 
ENDBRANCH  23  30
BRANCH  27  31
ATOM     31  C   UNL     1       1.023  -0.411   5.054  0.00  0.00    +0.033 C 
ATOM     32  C   UNL     1       0.590  -1.700   5.756  0.00  0.00    +0.009 C 
ENDBRANCH  27  31
ENDBRANCH  19  28
ENDBRANCH  18  20
ENDBRANCH   1  18
TORSDOF 6
