REMARK  Name = ZINC58053403
REMARK  11 active torsions:
REMARK  status: ('A' for Active; 'I' for Inactive)
REMARK    1  A    between atoms: C_1  and  C_2
REMARK    2  A    between atoms: C_2  and  C_3
REMARK    3  A    between atoms: C_2  and  C_4
REMARK    4  A    between atoms: C_7  and  C_10
REMARK    5  A    between atoms: C_10  and  C_12
REMARK    6  A    between atoms: C_10  and  N_15
REMARK    7  A    between atoms: C_12  and  C_13
REMARK    8  A    between atoms: C_12  and  C_14
REMARK    9  A    between atoms: C_16  and  C_18
REMARK   10  A    between atoms: C_18  and  N_19
REMARK   11  A    between atoms: C_28  and  C_30
REMARK                            x       y       z     vdW  Elec       q    Type
REMARK                         _______ _______ _______ _____ _____    ______ ____
ROOT
ATOM      1  N   UNL     1       1.192  -1.600   5.836  0.00  0.00    -0.307 N 
ATOM      2  C   UNL     1       1.873  -1.594   6.999  0.00  0.00    +0.228 C 
ATOM      3  O   UNL     1       3.080  -1.708   6.996  0.00  0.00    -0.274 OA
ATOM      4  H   UNL     1       0.227  -1.509   5.838  0.00  0.00    +0.149 HD
ENDROOT
BRANCH   1   5
ATOM      5  C   UNL     1       1.911  -1.744   4.567  0.00  0.00    +0.106 C 
BRANCH   5   9
ATOM      6  C   UNL     1      -0.393  -0.006   1.418  0.00  0.00    -0.045 A 
ATOM      7  C   UNL     1       0.979   0.163   1.445  0.00  0.00    +0.004 A 
ATOM      8  C   UNL     1       1.725  -0.400   2.464  0.00  0.00    +0.006 A 
ATOM      9  C   UNL     1       1.099  -1.130   3.457  0.00  0.00    -0.027 A 
ATOM     10  C   UNL     1      -0.273  -1.298   3.430  0.00  0.00    +0.006 A 
ATOM     11  C   UNL     1      -1.019  -0.732   2.413  0.00  0.00    +0.004 A 
BRANCH   6  13
ATOM     12  C   UNL     1      -1.014   2.125   0.312  0.00  0.00    +0.012 C 
ATOM     13  C   UNL     1      -1.205   0.607   0.307  0.00  0.00    +0.013 C 
ATOM     14  C   UNL     1      -0.742   0.040  -1.037  0.00  0.00    +0.012 C 
ENDBRANCH   6  13
ENDBRANCH   5   9
BRANCH   5  15
ATOM     15  C   UNL     1       2.136  -3.228   4.274  0.00  0.00    +0.008 C 
ATOM     16  C   UNL     1       0.787  -3.915   4.055  0.00  0.00    +0.009 C 
ATOM     17  C   UNL     1       2.994  -3.376   3.016  0.00  0.00    +0.009 C 
ENDBRANCH   5  15
ENDBRANCH   1   5
BRANCH   2  18
ATOM     18  C   UNL     1       1.133  -1.446   8.304  0.00  0.00    +0.181 C 
BRANCH  18  19
ATOM     19  N   UNL     1       2.092  -1.469   9.416  0.00  0.00    -0.278 NA
ATOM     20  C   UNL     1       2.853  -0.217   9.480  0.00  0.00    +0.121 C 
ATOM     21  C   UNL     1       3.763  -0.214  10.680  0.00  0.00    -0.030 A 
ATOM     22  C   UNL     1       4.812   0.693  10.712  0.00  0.00    +0.005 A 
ATOM     23  C   UNL     1       5.668   0.734  11.794  0.00  0.00    +0.000 A 
ATOM     24  C   UNL     1       5.479  -0.134  12.854  0.00  0.00    +0.000 A 
ATOM     25  C   UNL     1       4.436  -1.038  12.824  0.00  0.00    +0.004 A 
ATOM     26  C   UNL     1       3.578  -1.081  11.736  0.00  0.00    -0.041 A 
ATOM     27  C   UNL     1       2.460  -2.093  11.742  0.00  0.00    +0.063 C 
ATOM     28  C   UNL     1       1.410  -1.716  10.696  0.00  0.00    +0.148 C 
BRANCH  28  29
ATOM     29  C   UNL     1       0.427  -2.847  10.536  0.00  0.00    +0.228 C 
ATOM     30  O   UNL     1       0.692  -3.782   9.809  0.00  0.00    -0.274 OA
ATOM     31  N   UNL     1      -0.745  -2.820  11.200  0.00  0.00    -0.328 N 
ATOM     32  H   UNL     1      -0.957  -2.073  11.780  0.00  0.00    +0.145 HD
ATOM     33  H   UNL     1      -1.378  -3.548  11.096  0.00  0.00    +0.145 HD
ENDBRANCH  28  29
ENDBRANCH  18  19
ENDBRANCH   2  18
TORSDOF 7
