REMARK  Name = ZINC33769383
REMARK  12 active torsions:
REMARK  status: ('A' for Active; 'I' for Inactive)
REMARK    1  A    between atoms: C_1  and  C_2
REMARK    2  A    between atoms: C_5  and  N_8
REMARK    3  A    between atoms: C_9  and  C_34
REMARK    4  A    between atoms: C_12  and  S_13
REMARK    5  A    between atoms: S_13  and  C_14
REMARK    6  A    between atoms: C_14  and  C_15
REMARK    7  A    between atoms: C_17  and  C_20
REMARK    8  A    between atoms: N_22  and  C_23
REMARK    9  A    between atoms: C_23  and  C_24
REMARK   10  A    between atoms: C_24  and  C_25
REMARK   11  A    between atoms: C_25  and  N_26
REMARK   12  A    between atoms: C_31  and  C_33
REMARK                            x       y       z     vdW  Elec       q    Type
REMARK                         _______ _______ _______ _____ _____    ______ ____
ROOT
ATOM      1  C   UNL     1       0.480   0.402   9.675  0.00  0.00    +0.206 A 
ATOM      2  N   UNL     1       0.020   0.536   8.467  0.00  0.00    -0.208 NA
ATOM      3  C   UNL     1      -1.235   1.058   8.540  0.00  0.00    +0.163 A 
ATOM      4  C   UNL     1      -1.516   1.241   9.858  0.00  0.00    +0.230 A 
ATOM      5  O   UNL     1      -0.443   0.824  10.549  0.00  0.00    -0.446 OA
ENDROOT
BRANCH   3   6
ATOM      6  C   UNL     1      -2.120   1.372   7.403  0.00  0.00    +0.266 C 
ATOM      7  O   UNL     1      -3.225   1.838   7.604  0.00  0.00    -0.268 OA
ATOM      8  N   UNL     1      -1.704   1.142   6.142  0.00  0.00    -0.310 N 
ATOM      9  H   UNL     1      -0.704   0.720   5.960  0.00  0.00    +0.149 HD
BRANCH   8  10
ATOM     10  C   UNL     1      -2.583   1.454   5.012  0.00  0.00    +0.103 C 
BRANCH  10  11
ATOM     11  C   UNL     1      -1.876   1.101   3.703  0.00  0.00    +0.000 C 
BRANCH  11  12
ATOM     12  C   UNL     1      -2.794   1.427   2.523  0.00  0.00    -0.077 C 
BRANCH  12  13
ATOM     13  N   UNL     1      -2.115   1.088   1.265  0.00  0.00    +0.381 N 
ATOM     14  C   UNL     1      -0.731   1.580   1.266  0.00  0.00    -0.078 C 
ATOM     15  C   UNL     1      -0.013   1.086   0.008  0.00  0.00    -0.019 C 
ATOM     16  C   UNL     1      -0.755   1.594  -1.231  0.00  0.00    -0.003 C 
ATOM     17  C   UNL     1      -2.206   1.108  -1.183  0.00  0.00    -0.016 C 
ATOM     18  C   UNL     1      -2.861   1.601   0.109  0.00  0.00    -0.072 C 
ATOM     19  C   UNL     1      -4.306   1.101   0.172  0.00  0.00    -0.013 C 
ATOM     20  H   UNL     1      -2.082  -0.008   1.182  0.00  0.00    -0.081 HD
ENDBRANCH  12  13
ENDBRANCH  11  12
ENDBRANCH  10  11
ENDBRANCH   8  10
ENDBRANCH   3   6
BRANCH   1  21
ATOM     21  C   UNL     1       1.839  -0.143  10.035  0.00  0.00    +0.173 C 
BRANCH  21  22
ATOM     22  S   UNL     1       3.034   1.214  10.106  0.00  0.00    -0.076 S 
BRANCH  22  27
ATOM     23  N   UNL     1       5.739   0.839  10.728  0.00  0.00    -0.274 N 
ATOM     24  C   UNL     1       6.540  -0.227  11.041  0.00  0.00    +0.135 A 
ATOM     25  N   UNL     1       5.790  -1.292  11.026  0.00  0.00    -0.133 NA
ATOM     26  N   UNL     1       4.579  -0.977  10.733  0.00  0.00    -0.122 NA
ATOM     27  C   UNL     1       4.489   0.318  10.534  0.00  0.00    +0.197 A 
ATOM     28  C   UNL     1       8.014  -0.177  11.348  0.00  0.00    +0.088 C 
BRANCH  23  33
ATOM     29  C   UNL     1       7.282   6.287  10.323  0.00  0.00    +0.044 C 
ATOM     30  C   UNL     1       6.872   4.840  10.430  0.00  0.00    -0.050 A 
ATOM     31  C   UNL     1       5.986   4.446  11.416  0.00  0.00    +0.005 A 
ATOM     32  C   UNL     1       5.609   3.121  11.517  0.00  0.00    +0.026 A 
ATOM     33  C   UNL     1       6.120   2.185  10.628  0.00  0.00    +0.050 A 
ATOM     34  C   UNL     1       7.014   2.583   9.644  0.00  0.00    +0.026 A 
ATOM     35  C   UNL     1       7.384   3.910   9.544  0.00  0.00    +0.005 A 
ENDBRANCH  23  33
ENDBRANCH  22  27
ENDBRANCH  21  22
ENDBRANCH   1  21
TORSDOF 9
