REMARK  Name = ZINC20580229
REMARK  9 active torsions:
REMARK  status: ('A' for Active; 'I' for Inactive)
REMARK    1  A    between atoms: C_1  and  C_2
REMARK    2  A    between atoms: C_5  and  C_21
REMARK    3  A    between atoms: C_7  and  S_8
REMARK    4  A    between atoms: S_8  and  N_11
REMARK    5  A    between atoms: N_11  and  C_12
REMARK    6  A    between atoms: C_13  and  C_20
REMARK    7  A    between atoms: C_15  and  C_19
REMARK    8  A    between atoms: C_17  and  C_18
REMARK    9  A    between atoms: C_23  and  C_26
REMARK                            x       y       z     vdW  Elec       q    Type
REMARK                         _______ _______ _______ _____ _____    ______ ____
ROOT
ATOM      1  S   UNL     1       3.885  -0.704  -0.105  0.00  0.00    +0.073 S 
ATOM      2  O   UNL     1       4.626   0.101   0.802  0.00  0.00    -0.150 OA
ATOM      3  O   UNL     1       3.700  -2.099   0.090  0.00  0.00    -0.150 OA
ENDROOT
BRANCH   1  10
ATOM      4  C   UNL     1       3.357   2.217  -0.663  0.00  0.00    +0.046 C 
ATOM      5  C   UNL     1       2.134   1.358  -0.470  0.00  0.00    -0.024 A 
ATOM      6  C   UNL     1       0.874   1.924  -0.555  0.00  0.00    +0.006 A 
ATOM      7  C   UNL     1      -0.249   1.143  -0.379  0.00  0.00    +0.012 A 
ATOM      8  C   UNL     1      -0.113  -0.221  -0.116  0.00  0.00    +0.022 A 
ATOM      9  C   UNL     1       1.161  -0.785  -0.032  0.00  0.00    +0.040 A 
ATOM     10  C   UNL     1       2.276   0.007  -0.210  0.00  0.00    +0.112 A 
BRANCH   8  11
ATOM     11  C   UNL     1      -1.313  -1.064   0.073  0.00  0.00    +0.168 A 
ATOM     12  C   UNL     1      -2.618  -0.658   0.026  0.00  0.00    +0.075 A 
ATOM     13  C   UNL     1      -3.349  -1.839   0.267  0.00  0.00    +0.081 A 
ATOM     14  N   UNL     1      -2.474  -2.790   0.435  0.00  0.00    -0.083 NA
ATOM     15  O   UNL     1      -1.340  -2.384   0.332  0.00  0.00    -0.354 OA
ATOM     16  C   UNL     1      -4.849  -1.975   0.324  0.00  0.00    +0.069 C 
ENDBRANCH   8  11
ENDBRANCH   1  10
BRANCH   1  17
ATOM     17  N   UNL     1       4.598  -0.524  -1.589  0.00  0.00    -0.216 N 
ATOM     18  H   UNL     1       5.385   0.231  -1.733  0.00  0.00    +0.174 HD
BRANCH  17  19
ATOM     19  C   UNL     1       4.199  -1.330  -2.657  0.00  0.00    +0.054 A 
ATOM     20  C   UNL     1       4.483  -2.690  -2.647  0.00  0.00    -0.028 A 
ATOM     21  C   UNL     1       4.084  -3.485  -3.703  0.00  0.00    +0.008 A 
ATOM     22  C   UNL     1       3.411  -2.927  -4.775  0.00  0.00    -0.050 A 
ATOM     23  C   UNL     1       3.132  -1.573  -4.791  0.00  0.00    +0.008 A 
ATOM     24  C   UNL     1       3.524  -0.773  -3.736  0.00  0.00    -0.028 A 
ATOM     25  C   UNL     1       3.220   0.703  -3.754  0.00  0.00    +0.046 C 
ATOM     26  C   UNL     1       2.981  -3.797  -5.928  0.00  0.00    +0.044 C 
ATOM     27  C   UNL     1       5.221  -3.298  -1.482  0.00  0.00    +0.046 C 
ENDBRANCH  17  19
ENDBRANCH   1  17
TORSDOF 4
