REMARK  Name = ZINC44728482
REMARK  9 active torsions:
REMARK  status: ('A' for Active; 'I' for Inactive)
REMARK    1  A    between atoms: C_1  and  C_2
REMARK    2  A    between atoms: C_11  and  C_12
REMARK    3  A    between atoms: C_12  and  C_13
REMARK    4  A    between atoms: C_13  and  N_14
REMARK    5  A    between atoms: C_15  and  C_17
REMARK    6  A    between atoms: C_28  and  C_30
REMARK    7  A    between atoms: C_31  and  C_41
REMARK    8  A    between atoms: C_34  and  C_35
REMARK    9  A    between atoms: C_37  and  C_40
REMARK                            x       y       z     vdW  Elec       q    Type
REMARK                         _______ _______ _______ _____ _____    ______ ____
ROOT
ATOM      1  C   UNL     1       2.732  -7.928   4.225  0.00  0.00    +0.100 C 
ATOM      2  C   UNL     1       1.867  -8.831   3.317  0.00  0.00    +0.121 C 
ATOM      3  N   UNL     1       2.825  -9.419   2.352  0.00  0.00    -0.296 N 
ATOM      4  C   UNL     1       4.033  -9.709   3.162  0.00  0.00    +0.115 C 
ATOM      5  C   UNL     1       4.152  -8.510   4.123  0.00  0.00    -0.004 C 
ATOM      6  C   UNL     1       5.109  -7.469   3.550  0.00  0.00    -0.010 C 
ATOM      7  C   UNL     1       6.525  -8.052   3.511  0.00  0.00    -0.082 C 
ATOM      8  N   UNL     1       6.937  -8.431   4.868  0.00  0.00    +0.379 N 
ATOM      9  C   UNL     1       6.067  -9.498   5.376  0.00  0.00    -0.082 C 
ATOM     10  C   UNL     1       4.632  -8.977   5.494  0.00  0.00    -0.010 C 
ATOM     11  C   UNL     1       2.641  -9.641   1.035  0.00  0.00    +0.252 C 
ATOM     12  O   UNL     1       3.531 -10.136   0.371  0.00  0.00    -0.270 OA
ATOM     13  H   UNL     1       7.891  -8.758   4.849  0.00  0.00    -0.086 HD
ATOM     14  H   UNL     1       6.871  -7.628   5.475  0.00  0.00    -0.086 HD
ENDROOT
BRANCH  11  15
ATOM     15  C   UNL     1       1.361  -9.283   0.401  0.00  0.00    +0.108 A 
ATOM     16  C   UNL     1       1.039  -8.040  -0.199  0.00  0.00    +0.093 A 
ATOM     17  N   UNL     1      -0.179  -8.110  -0.646  0.00  0.00    -0.082 NA
ATOM     18  O   UNL     1      -0.700  -9.393  -0.359  0.00  0.00    -0.352 OA
ATOM     19  C   UNL     1       0.248 -10.102   0.273  0.00  0.00    +0.201 A 
ATOM     20  C   UNL     1       1.950  -6.845  -0.300  0.00  0.00    +0.070 C 
BRANCH  19  21
ATOM     21  C   UNL     1       0.128 -11.497   0.749  0.00  0.00    +0.152 A 
ATOM     22  C   UNL     1      -1.008 -12.332   0.612  0.00  0.00    +0.079 A 
ATOM     23  C   UNL     1      -0.722 -13.521   1.171  0.00  0.00    +0.135 A 
ATOM     24  O   UNL     1       0.531 -13.471   1.648  0.00  0.00    -0.359 OA
ATOM     25  N   UNL     1       1.058 -12.186   1.370  0.00  0.00    -0.075 NA
ATOM     26  C   UNL     1      -1.649 -14.706   1.248  0.00  0.00    +0.089 C 
ENDBRANCH  19  21
ENDBRANCH  11  15
BRANCH   1  28
ATOM     27  N   UNL     1       2.964  -5.490   4.573  0.00  0.00    -0.315 N 
ATOM     28  C   UNL     1       2.710  -6.506   3.725  0.00  0.00    +0.218 C 
ATOM     29  O   UNL     1       2.463  -6.277   2.560  0.00  0.00    -0.275 OA
ATOM     30  H   UNL     1       3.162  -5.674   5.505  0.00  0.00    +0.149 HD
BRANCH  27  31
ATOM     31  C   UNL     1       2.943  -4.108   4.087  0.00  0.00    +0.109 C 
BRANCH  31  32
ATOM     32  C   UNL     1       3.263  -3.157   5.242  0.00  0.00    +0.056 C 
BRANCH  32  43
ATOM     33  C   UNL     1       2.108   2.707   3.341  0.00  0.00    +0.046 C 
ATOM     34  C   UNL     1       1.626   1.385   3.881  0.00  0.00    -0.027 A 
ATOM     35  C   UNL     1       0.288   1.195   4.150  0.00  0.00    +0.005 A 
ATOM     36  C   UNL     1      -0.168  -0.018   4.648  0.00  0.00    +0.001 A 
ATOM     37  C   UNL     1       0.703  -1.045   4.880  0.00  0.00    +0.010 A 
ATOM     38  C   UNL     1       2.062  -0.874   4.615  0.00  0.00    +0.003 A 
ATOM     39  C   UNL     1       2.529   0.351   4.105  0.00  0.00    +0.050 A 
ATOM     40  N   UNL     1       3.891   0.229   3.938  0.00  0.00    -0.360 N 
ATOM     41  H   UNL     1       4.476   0.926   3.602  0.00  0.00    +0.165 HD
ATOM     42  C   UNL     1       4.295  -1.022   4.316  0.00  0.00    +0.087 A 
ATOM     43  C   UNL     1       3.241  -1.735   4.742  0.00  0.00    -0.021 A 
ENDBRANCH  32  43
ENDBRANCH  31  32
ENDBRANCH  27  31
ENDBRANCH   1  28
TORSDOF 6
