REMARK  Name = ZINC35671853
REMARK  11 active torsions:
REMARK  status: ('A' for Active; 'I' for Inactive)
REMARK    1  A    between atoms: C_1  and  C_2
REMARK    2  A    between atoms: C_2  and  N_3
REMARK    3  A    between atoms: N_3  and  C_4
REMARK    4  A    between atoms: C_4  and  C_5
REMARK    5  A    between atoms: C_10  and  C_21
REMARK    6  A    between atoms: N_12  and  C_13
REMARK    7  A    between atoms: C_16  and  C_20
REMARK    8  A    between atoms: C_17  and  C_19
REMARK    9  A    between atoms: N_30  and  C_31
REMARK   10  A    between atoms: C_31  and  C_32
REMARK   11  A    between atoms: C_31  and  C_33
REMARK                            x       y       z     vdW  Elec       q    Type
REMARK                         _______ _______ _______ _____ _____    ______ ____
ROOT
ATOM      1  C   UNL     1       2.417  -2.123  -0.770  0.00  0.00    +0.237 C 
ATOM      2  O   UNL     1       1.499  -2.875  -0.518  0.00  0.00    -0.274 OA
ATOM      3  N   UNL     1       3.689  -2.559  -0.680  0.00  0.00    -0.254 N 
ATOM      4  C   UNL     1       3.949  -3.869  -0.300  0.00  0.00    +0.207 A 
ATOM      5  N   UNL     1       3.046  -4.773  -0.011  0.00  0.00    -0.214 NA
ATOM      6  C   UNL     1       3.662  -5.930   0.314  0.00  0.00    +0.091 A 
ATOM      7  C   UNL     1       5.001  -5.733   0.221  0.00  0.00    +0.122 A 
ATOM      8  N   UNL     1       5.185  -4.430  -0.173  0.00  0.00    -0.287 N 
ATOM      9  H   UNL     1       4.423  -1.958  -0.881  0.00  0.00    +0.158 HD
ENDROOT
BRANCH   8  10
ATOM     10  C   UNL     1       6.414  -3.794  -0.399  0.00  0.00    +0.049 A 
ATOM     11  C   UNL     1       6.623  -3.082  -1.573  0.00  0.00    +0.026 A 
ATOM     12  C   UNL     1       7.835  -2.457  -1.792  0.00  0.00    +0.005 A 
ATOM     13  C   UNL     1       8.839  -2.540  -0.845  0.00  0.00    -0.047 A 
ATOM     14  C   UNL     1       8.634  -3.249   0.324  0.00  0.00    -0.046 A 
ATOM     15  C   UNL     1       7.422  -3.871   0.552  0.00  0.00    +0.029 A 
ATOM     16  C   UNL     1       9.731  -3.338   1.353  0.00  0.00    +0.044 C 
ATOM     17  C   UNL     1      10.161  -1.857  -1.088  0.00  0.00    +0.044 C 
ENDBRANCH   8  10
BRANCH   6  18
ATOM     18  C   UNL     1       2.992  -7.195   0.705  0.00  0.00    +0.002 A 
ATOM     19  C   UNL     1       3.752  -8.319   1.023  0.00  0.00    +0.011 A 
ATOM     20  C   UNL     1       3.124  -9.493   1.386  0.00  0.00    +0.020 A 
ATOM     21  C   UNL     1       1.742  -9.555   1.434  0.00  0.00    +0.041 A 
ATOM     22  C   UNL     1       0.983  -8.441   1.119  0.00  0.00    +0.020 A 
ATOM     23  C   UNL     1       1.601  -7.261   0.761  0.00  0.00    +0.011 A 
ATOM     24 CL   UNL     1       0.958 -11.035   1.891  0.00  0.00    -0.084 Cl
ENDBRANCH   6  18
BRANCH   1  25
ATOM     25  C   UNL     1       2.135  -0.701  -1.182  0.00  0.00    +0.205 C 
BRANCH  25  26
ATOM     26  N   UNL     1       0.688  -0.476  -1.203  0.00  0.00    -0.277 N 
ATOM     27  C   UNL     1      -0.013  -0.705  -2.332  0.00  0.00    +0.303 C 
ATOM     28  O   UNL     1       0.556  -1.097  -3.332  0.00  0.00    -0.253 OA
ATOM     29  N   UNL     1      -1.345  -0.498  -2.351  0.00  0.00    -0.297 N 
ATOM     30  H   UNL     1      -1.799  -0.185  -1.553  0.00  0.00    +0.150 HD
BRANCH  29  31
ATOM     31  C   UNL     1      -2.107  -0.746  -3.578  0.00  0.00    +0.068 C 
ATOM     32  C   UNL     1      -2.483  -2.227  -3.654  0.00  0.00    +0.027 C 
ATOM     33  C   UNL     1      -3.379   0.104  -3.569  0.00  0.00    +0.027 C 
ENDBRANCH  29  31
BRANCH  26  35
ATOM     34  C   UNL     1      -0.019   1.526   0.010  0.00  0.00    +0.024 C 
ATOM     35  C   UNL     1       0.002  -0.004   0.002  0.00  0.00    +0.106 C 
ENDBRANCH  26  35
ENDBRANCH  25  26
ENDBRANCH   1  25
TORSDOF 6
