REMARK  Name = ZINC12894298
REMARK  8 active torsions:
REMARK  status: ('A' for Active; 'I' for Inactive)
REMARK    1  A    between atoms: C_1  and  N_2
REMARK    2  A    between atoms: N_2  and  S_3
REMARK    3  A    between atoms: S_3  and  C_6
REMARK    4  A    between atoms: C_6  and  C_7
REMARK    5  A    between atoms: C_12  and  C_13
REMARK    6  A    between atoms: C_13  and  N_14
REMARK    7  A    between atoms: C_15  and  C_17
REMARK    8  A    between atoms: C_19  and  C_27
REMARK                            x       y       z     vdW  Elec       q    Type
REMARK                         _______ _______ _______ _____ _____    ______ ____
ROOT
ATOM      1  N   UNL     1      -3.893  -1.407  -1.673  0.00  0.00    -0.307 N 
ATOM      2  C   UNL     1      -4.991  -0.695  -1.351  0.00  0.00    +0.245 C 
ATOM      3  O   UNL     1      -5.276  -0.512  -0.184  0.00  0.00    -0.270 OA
ATOM      4  H   UNL     1      -3.665  -1.552  -2.604  0.00  0.00    +0.149 HD
ENDROOT
BRANCH   2   5
ATOM      5  C   UNL     1      -5.849  -0.136  -2.418  0.00  0.00    +0.048 A 
ATOM      6  C   UNL     1      -5.489  -0.227  -3.753  0.00  0.00    +0.042 A 
ATOM      7  C   UNL     1      -6.338   0.313  -4.736  0.00  0.00    +0.079 A 
ATOM      8  N   UNL     1      -7.470   0.919  -4.431  0.00  0.00    -0.246 NA
ATOM      9  C   UNL     1      -7.888   1.055  -3.171  0.00  0.00    +0.072 A 
ATOM     10  C   UNL     1      -7.109   0.540  -2.105  0.00  0.00    +0.013 A 
ATOM     11  C   UNL     1      -7.552   0.684  -0.786  0.00  0.00    +0.011 A 
ATOM     12  C   UNL     1      -8.733   1.321  -0.538  0.00  0.00    +0.001 A 
ATOM     13  C   UNL     1      -9.503   1.829  -1.582  0.00  0.00    +0.002 A 
ATOM     14  C   UNL     1      -9.101   1.706  -2.876  0.00  0.00    +0.028 A 
BRANCH   7  15
ATOM     15  C   UNL     1      -5.947   0.205  -6.153  0.00  0.00    +0.039 A 
ATOM     16  C   UNL     1      -6.608   0.652  -7.268  0.00  0.00    +0.019 A 
ATOM     17  C   UNL     1      -6.041   0.439  -8.503  0.00  0.00    +0.028 A 
ATOM     18  C   UNL     1      -4.852  -0.217  -8.582  0.00  0.00    +0.079 A 
ATOM     19  S   UNL     1      -4.494  -0.549  -6.865  0.00  0.00    -0.075 S 
ATOM     20 CL   UNL     1      -3.922  -0.626  -9.990  0.00  0.00    -0.076 Cl
ENDBRANCH   7  15
ENDBRANCH   2   5
BRANCH   1  21
ATOM     21  C   UNL     1      -3.043  -1.960  -0.616  0.00  0.00    +0.140 C 
BRANCH  21  27
ATOM     22  C   UNL     1      -0.792  -2.013  -1.709  0.00  0.00    -0.020 A 
ATOM     23  C   UNL     1       0.263  -2.697  -2.284  0.00  0.00    +0.005 A 
ATOM     24  C   UNL     1       0.224  -4.075  -2.377  0.00  0.00    +0.000 A 
ATOM     25  C   UNL     1      -0.875  -4.769  -1.905  0.00  0.00    +0.000 A 
ATOM     26  C   UNL     1      -1.932  -4.085  -1.335  0.00  0.00    +0.005 A 
ATOM     27  C   UNL     1      -1.890  -2.706  -1.237  0.00  0.00    -0.026 A 
BRANCH  22  28
ATOM     28  C   UNL     1      -0.747  -0.510  -1.603  0.00  0.00    +0.220 C 
BRANCH  28  29
ATOM     29  S   UNL     1       0.014  -0.038  -0.025  0.00  0.00    +0.033 S 
ATOM     30  O   UNL     1       1.390  -0.394  -0.020  0.00  0.00    -0.158 OA
ATOM     31  O   UNL     1      -0.833  -0.403   1.055  0.00  0.00    -0.158 OA
BRANCH  29  33
ATOM     32  C   UNL     1      -1.266   2.344  -0.017  0.00  0.00    +0.127 C 
ATOM     33  N   UNL     1       0.006   1.618  -0.028  0.00  0.00    -0.197 NA
ATOM     34  H   UNL     1       0.844   2.107  -0.040  0.00  0.00    +0.147 HD
ENDBRANCH  29  33
ENDBRANCH  28  29
ENDBRANCH  22  28
ENDBRANCH  21  27
ENDBRANCH   1  21
TORSDOF 7
