REMARK  Name = ZINC33033349
REMARK  7 active torsions:
REMARK  status: ('A' for Active; 'I' for Inactive)
REMARK    1  A    between atoms: C_1  and  C_2
REMARK    2  A    between atoms: C_5  and  S_9
REMARK    3  A    between atoms: C_7  and  C_8
REMARK    4  A    between atoms: S_9  and  N_12
REMARK    5  A    between atoms: N_12  and  C_13
REMARK    6  A    between atoms: C_15  and  C_25
REMARK    7  A    between atoms: C_18  and  N_19
REMARK                            x       y       z     vdW  Elec       q    Type
REMARK                         _______ _______ _______ _____ _____    ______ ____
ROOT
ATOM      1  C   UNL     1      -1.036   3.120   2.309  0.00  0.00    +0.070 A 
ATOM      2  C   UNL     1      -0.380   4.281   1.944  0.00  0.00    +0.039 A 
ATOM      3  C   UNL     1       0.136   5.128   2.929  0.00  0.00    +0.039 A 
ATOM      4  C   UNL     1      -0.012   4.798   4.279  0.00  0.00    +0.015 A 
ATOM      5  C   UNL     1      -0.667   3.641   4.639  0.00  0.00    +0.026 A 
ATOM      6  C   UNL     1      -1.187   2.800   3.662  0.00  0.00    +0.052 A 
ENDROOT
BRANCH   6   7
ATOM      7  N   UNL     1      -1.853   1.633   4.030  0.00  0.00    -0.332 N 
ATOM      8  C   UNL     1      -1.673   1.353   5.461  0.00  0.00    +0.086 C 
ATOM      9  C   UNL     1      -2.352   0.026   5.808  0.00  0.00    -0.063 C 
ATOM     10  N   UNL     1      -3.779   0.105   5.466  0.00  0.00    +0.381 N 
ATOM     11  C   UNL     1      -3.959   0.385   4.035  0.00  0.00    -0.063 C 
ATOM     12  C   UNL     1      -3.280   1.712   3.688  0.00  0.00    +0.086 C 
ATOM     13  H   UNL     1      -4.266  -0.852   5.704  0.00  0.00    -0.086 HD
ATOM     14  H   UNL     1      -4.251   0.911   6.047  0.00  0.00    -0.086 HD
ENDBRANCH   6   7
BRANCH   3  15
ATOM     15  C   UNL     1       0.837   6.367   2.545  0.00  0.00    +0.247 C 
ATOM     16  O   UNL     1       1.398   7.037   3.391  0.00  0.00    -0.270 OA
ATOM     17  N   UNL     1       0.856   6.758   1.255  0.00  0.00    -0.298 N 
ATOM     18  C   UNL     1       0.337   5.984   0.117  0.00  0.00    +0.108 C 
ATOM     19  C   UNL     1       0.596   6.814  -1.158  0.00  0.00    +0.020 C 
ATOM     20  C   UNL     1       1.760   7.748  -0.732  0.00  0.00    +0.020 C 
ATOM     21  C   UNL     1       1.406   8.029   0.750  0.00  0.00    +0.108 C 
ENDBRANCH   3  15
BRANCH   1  22
ATOM     22  N   UNL     1      -1.555   2.269   1.326  0.00  0.00    -0.214 N 
ATOM     23  H   UNL     1      -2.612   2.350   1.030  0.00  0.00    +0.174 HD
BRANCH  22  24
ATOM     24  S   UNL     1      -0.578   1.142   0.607  0.00  0.00    +0.072 S 
ATOM     25  O   UNL     1       0.591   1.829   0.183  0.00  0.00    -0.150 OA
ATOM     26  O   UNL     1      -1.398   0.407  -0.291  0.00  0.00    -0.150 OA
BRANCH  24  31
ATOM     27  C   UNL     1       1.165  -2.727   4.896  0.00  0.00    +0.044 C 
ATOM     28  C   UNL     1       0.729  -1.760   3.826  0.00  0.00    -0.047 A 
ATOM     29  C   UNL     1       1.487  -0.634   3.561  0.00  0.00    +0.005 A 
ATOM     30  C   UNL     1       1.086   0.253   2.580  0.00  0.00    +0.029 A 
ATOM     31  C   UNL     1      -0.072   0.015   1.863  0.00  0.00    +0.109 A 
ATOM     32  C   UNL     1      -0.829  -1.110   2.128  0.00  0.00    +0.032 A 
ATOM     33  C   UNL     1      -0.429  -1.998   3.110  0.00  0.00    -0.046 A 
ATOM     34  C   UNL     1      -1.255  -3.225   3.399  0.00  0.00    +0.044 C 
ENDBRANCH  24  31
ENDBRANCH  22  24
ENDBRANCH   1  22
TORSDOF 5
