REMARK  Name = ZINC14621684
REMARK  8 active torsions:
REMARK  status: ('A' for Active; 'I' for Inactive)
REMARK    1  A    between atoms: C_4  and  O_7
REMARK    2  A    between atoms: O_7  and  C_8
REMARK    3  A    between atoms: C_8  and  C_9
REMARK    4  A    between atoms: C_12  and  C_14
REMARK    5  A    between atoms: N_16  and  C_17
REMARK    6  A    between atoms: C_17  and  C_18
REMARK    7  A    between atoms: C_18  and  N_19
REMARK    8  A    between atoms: C_23  and  C_24
REMARK                            x       y       z     vdW  Elec       q    Type
REMARK                         _______ _______ _______ _____ _____    ______ ____
ROOT
ATOM      1  C   UNL     1      10.255  -3.249   0.574  0.00  0.00    +0.279 C 
ATOM      2  O   UNL     1      11.291  -3.852   0.367  0.00  0.00    -0.267 OA
ATOM      3  N   UNL     1       9.790  -3.120   1.832  0.00  0.00    -0.307 N 
ATOM      4  H   UNL     1       8.964  -2.639   1.997  0.00  0.00    +0.149 HD
ENDROOT
BRANCH   1   8
ATOM      5  C   UNL     1       7.972  -1.586  -1.679  0.00  0.00    +0.143 A 
ATOM      6  C   UNL     1       8.879  -2.027  -2.579  0.00  0.00    +0.049 A 
ATOM      7  C   UNL     1       9.870  -2.716  -1.863  0.00  0.00    +0.055 A 
ATOM      8  C   UNL     1       9.513  -2.661  -0.546  0.00  0.00    +0.190 A 
ATOM      9  O   UNL     1       8.360  -1.966  -0.455  0.00  0.00    -0.452 OA
BRANCH   5  10
ATOM     10  C   UNL     1       6.732  -0.792  -2.000  0.00  0.00    +0.303 C 
BRANCH  10  11
ATOM     11  O   UNL     1       5.644  -1.686  -2.242  0.00  0.00    -0.484 OA
BRANCH  11  15
ATOM     12  C   UNL     1       1.998   0.008  -3.169  0.00  0.00    +0.000 A 
ATOM     13  C   UNL     1       3.092   0.817  -2.923  0.00  0.00    +0.004 A 
ATOM     14  C   UNL     1       4.314   0.252  -2.613  0.00  0.00    +0.045 A 
ATOM     15  C   UNL     1       4.443  -1.128  -2.548  0.00  0.00    +0.121 A 
ATOM     16  C   UNL     1       3.343  -1.937  -2.795  0.00  0.00    +0.045 A 
ATOM     17  C   UNL     1       2.124  -1.367  -3.105  0.00  0.00    +0.004 A 
ENDBRANCH  11  15
ENDBRANCH  10  11
ENDBRANCH   5  10
ENDBRANCH   1   8
BRANCH   3  18
ATOM     18  C   UNL     1      10.532  -3.708   2.951  0.00  0.00    +0.124 C 
BRANCH  18  19
ATOM     19  C   UNL     1       9.793  -3.420   4.260  0.00  0.00    +0.136 C 
BRANCH  19  20
ATOM     20  N   UNL     1      10.535  -4.007   5.378  0.00  0.00    -0.227 N 
ATOM     21  C   UNL     1      11.458  -3.285   5.992  0.00  0.00    +0.260 C 
ATOM     22  O   UNL     1      11.708  -2.144   5.651  0.00  0.00    -0.269 OA
ATOM     23  C   UNL     1      12.170  -3.934   7.111  0.00  0.00    +0.080 C 
ATOM     24  C   UNL     1      13.150  -3.446   7.912  0.00  0.00    +0.031 C 
ATOM     25  S   UNL     1      11.385  -5.540   7.120  0.00  0.00    -0.026 S 
ATOM     26  C   UNL     1      10.258  -5.270   5.762  0.00  0.00    +0.286 C 
ATOM     27  O   UNL     1       9.439  -6.038   5.295  0.00  0.00    -0.262 OA
BRANCH  24  28
ATOM     28  C   UNL     1      13.828  -4.333   8.867  0.00  0.00    +0.011 A 
ATOM     29  C   UNL     1      13.759  -5.722   8.709  0.00  0.00    +0.011 A 
ATOM     30  C   UNL     1      14.403  -6.548   9.605  0.00  0.00    +0.001 A 
ATOM     31  C   UNL     1      15.109  -6.008  10.667  0.00  0.00    +0.003 A 
ATOM     32  C   UNL     1      15.179  -4.637  10.836  0.00  0.00    +0.039 A 
ATOM     33  C   UNL     1      14.544  -3.794   9.944  0.00  0.00    +0.131 A 
ATOM     34  F   UNL     1      14.613  -2.455  10.110  0.00  0.00    -0.205 F 
ENDBRANCH  24  28
ENDBRANCH  19  20
ENDBRANCH  18  19
ENDBRANCH   3  18
TORSDOF 8
