REMARK  Name = ZINC23953639
REMARK  6 active torsions:
REMARK  status: ('A' for Active; 'I' for Inactive)
REMARK    1  A    between atoms: C_1  and  C_2
REMARK    2  A    between atoms: C_2  and  C_3
REMARK    3  A    between atoms: C_3  and  C_20
REMARK    4  A    between atoms: N_6  and  N_10
REMARK    5  A    between atoms: C_11  and  C_13
REMARK    6  A    between atoms: C_13  and  C_14
REMARK                            x       y       z     vdW  Elec       q    Type
REMARK                         _______ _______ _______ _____ _____    ______ ____
ROOT
ATOM      1  C   UNL     1       4.837   7.823  -2.297  0.00  0.00    +0.139 C 
ATOM      2  C   UNL     1       4.994   6.356  -2.646  0.00  0.00    +0.268 C 
ATOM      3  O   UNL     1       5.324   5.889  -3.715  0.00  0.00    -0.271 OA
ATOM      4  N   UNL     1       4.688   5.680  -1.522  0.00  0.00    -0.137 N 
ATOM      5  C   UNL     1       4.370   6.506  -0.519  0.00  0.00    +0.327 C 
ATOM      6  O   UNL     1       4.062   6.130   0.595  0.00  0.00    -0.251 OA
ATOM      7  N   UNL     1       4.430   7.801  -0.882  0.00  0.00    -0.280 N 
ATOM      8  H   UNL     1       4.243   8.744  -0.348  0.00  0.00    +0.152 HD
ENDROOT
BRANCH   1   9
ATOM      9  C   UNL     1       6.149   8.546  -2.460  0.00  0.00    -0.015 A 
ATOM     10  C   UNL     1       6.433   9.207  -3.640  0.00  0.00    +0.006 A 
ATOM     11  C   UNL     1       7.635   9.873  -3.788  0.00  0.00    +0.000 A 
ATOM     12  C   UNL     1       8.557   9.871  -2.758  0.00  0.00    +0.000 A 
ATOM     13  C   UNL     1       8.276   9.207  -1.579  0.00  0.00    +0.000 A 
ATOM     14  C   UNL     1       7.072   8.543  -1.431  0.00  0.00    +0.006 A 
ENDBRANCH   1   9
BRANCH   4  15
ATOM     15  N   UNL     1       4.707   4.283  -1.415  0.00  0.00    -0.224 N 
ATOM     16  C   UNL     1       3.549   3.594  -1.386  0.00  0.00    +0.230 C 
ATOM     17  O   UNL     1       2.490   4.183  -1.453  0.00  0.00    -0.274 OA
ATOM     18  H   UNL     1       5.666   3.749  -1.354  0.00  0.00    +0.174 HD
BRANCH  16  19
ATOM     19  C   UNL     1       3.568   2.091  -1.270  0.00  0.00    +0.101 C 
BRANCH  19  20
ATOM     20  C   UNL     1       2.133   1.562  -1.259  0.00  0.00    -0.002 C 
ATOM     21  C   UNL     1       1.417   2.055  -0.000  0.00  0.00    +0.004 C 
ATOM     22  C   UNL     1      -0.019   1.526   0.010  0.00  0.00    +0.000 C 
ATOM     23  C   UNL     1       0.002  -0.004   0.002  0.00  0.00    +0.000 C 
ATOM     24  C   UNL     1       0.718  -0.497  -1.257  0.00  0.00    +0.000 C 
ATOM     25  C   UNL     1       2.154   0.032  -1.268  0.00  0.00    +0.004 C 
ENDBRANCH  19  20
ENDBRANCH  16  19
ENDBRANCH   4  15
BRANCH   1  27
ATOM     26  C   UNL     1       2.418   7.770  -2.921  0.00  0.00    +0.007 C 
ATOM     27  C   UNL     1       3.755   8.476  -3.159  0.00  0.00    +0.037 C 
ENDBRANCH   1  27
TORSDOF 5
