REMARK  Name = ZINC57674687
REMARK  8 active torsions:
REMARK  status: ('A' for Active; 'I' for Inactive)
REMARK    1  A    between atoms: C_1  and  C_2
REMARK    2  A    between atoms: C_2  and  C_4
REMARK    3  A    between atoms: C_2  and  S_20
REMARK    4  A    between atoms: N_6  and  C_7
REMARK    5  A    between atoms: C_10  and  N_13
REMARK    6  A    between atoms: N_13  and  C_14
REMARK    7  A    between atoms: S_20  and  C_21
REMARK    8  A    between atoms: C_24  and  N_27
REMARK                            x       y       z     vdW  Elec       q    Type
REMARK                         _______ _______ _______ _____ _____    ______ ____
ROOT
ATOM      1  C   UNL     1       0.485  -0.288   1.194  0.00  0.00    +0.230 C 
ATOM      2  O   UNL     1       1.635  -0.539   0.900  0.00  0.00    -0.274 OA
ATOM      3  N   UNL     1       0.039  -0.534   2.441  0.00  0.00    -0.285 N 
ATOM      4  H   UNL     1      -0.898  -0.405   2.656  0.00  0.00    +0.155 HD
ENDROOT
BRANCH   3   5
ATOM      5  C   UNL     1       0.929  -0.977   3.429  0.00  0.00    +0.034 A 
ATOM      6  C   UNL     1       0.493  -1.854   4.413  0.00  0.00    +0.025 A 
ATOM      7  C   UNL     1       1.370  -2.291   5.386  0.00  0.00    +0.025 A 
ATOM      8  C   UNL     1       2.688  -1.854   5.380  0.00  0.00    +0.031 A 
ATOM      9  C   UNL     1       3.124  -0.976   4.395  0.00  0.00    +0.025 A 
ATOM     10  C   UNL     1       2.248  -0.544   3.419  0.00  0.00    +0.025 A 
BRANCH   8  11
ATOM     11  N   UNL     1       3.577  -2.296   6.366  0.00  0.00    -0.314 N 
ATOM     12  H   UNL     1       3.462  -3.173   6.764  0.00  0.00    +0.152 HD
BRANCH  11  13
ATOM     13  C   UNL     1       4.630  -1.475   6.777  0.00  0.00    +0.031 A 
ATOM     14  C   UNL     1       4.489  -0.093   6.742  0.00  0.00    +0.023 A 
ATOM     15  C   UNL     1       5.532   0.716   7.149  0.00  0.00    +0.002 A 
ATOM     16  C   UNL     1       6.715   0.152   7.591  0.00  0.00    +0.000 A 
ATOM     17  C   UNL     1       6.858  -1.223   7.626  0.00  0.00    +0.002 A 
ATOM     18  C   UNL     1       5.818  -2.038   7.226  0.00  0.00    +0.023 A 
ENDBRANCH  11  13
ENDBRANCH   8  11
ENDBRANCH   3   5
BRANCH   1  20
ATOM     19  C   UNL     1      -0.461   1.823   0.301  0.00  0.00    +0.029 C 
ATOM     20  C   UNL     1      -0.445   0.299   0.163  0.00  0.00    +0.134 C 
BRANCH  20  21
ATOM     21  S   UNL     1       0.130  -0.152  -1.497  0.00  0.00    -0.113 S 
BRANCH  21  22
ATOM     22  C   UNL     1      -0.146  -1.890  -1.586  0.00  0.00    +0.009 A 
ATOM     23  C   UNL     1      -0.812  -2.543  -0.556  0.00  0.00    +0.017 A 
ATOM     24  C   UNL     1      -1.027  -3.905  -0.629  0.00  0.00    +0.034 A 
ATOM     25  C   UNL     1      -0.580  -4.619  -1.726  0.00  0.00    +0.126 A 
ATOM     26  C   UNL     1       0.084  -3.973  -2.752  0.00  0.00    +0.034 A 
ATOM     27  C   UNL     1       0.297  -2.610  -2.689  0.00  0.00    +0.017 A 
BRANCH  25  28
ATOM     28  N   UNL     1      -0.811  -6.079  -1.800  0.00  0.00    +0.056 N 
ATOM     29  O   UNL     1      -1.391  -6.646  -0.903  0.00  0.00    -0.126 OA
ATOM     30  O   UNL     1      -0.421  -6.705  -2.758  0.00  0.00    -0.126 OA
ENDBRANCH  25  28
ENDBRANCH  21  22
ENDBRANCH  20  21
ENDBRANCH   1  20
TORSDOF 7
