REMARK  Name = ZINC35519373
REMARK  7 active torsions:
REMARK  status: ('A' for Active; 'I' for Inactive)
REMARK    1  A    between atoms: C_4  and  C_7
REMARK    2  A    between atoms: C_8  and  C_18
REMARK    3  A    between atoms: N_10  and  C_12
REMARK    4  A    between atoms: N_22  and  N_26
REMARK    5  A    between atoms: C_27  and  C_29
REMARK    6  A    between atoms: C_29  and  C_30
REMARK    7  A    between atoms: C_30  and  N_31
REMARK                            x       y       z     vdW  Elec       q    Type
REMARK                         _______ _______ _______ _____ _____    ______ ____
ROOT
ATOM      1  C   UNL     1       3.074  -2.771   1.431  0.00  0.00    +0.032 C 
ATOM      2  C   UNL     1       3.498  -3.938   1.983  0.00  0.00    +0.079 C 
ATOM      3  C   UNL     1       2.761  -4.907   2.814  0.00  0.00    +0.275 C 
ATOM      4  O   UNL     1       1.593  -4.736   3.110  0.00  0.00    -0.267 OA
ATOM      5  N   UNL     1       3.432  -5.971   3.221  0.00  0.00    -0.170 N 
ATOM      6  C   UNL     1       4.727  -6.157   2.891  0.00  0.00    +0.138 C 
ATOM      7  S   UNL     1       5.758  -7.455   3.317  0.00  0.00    -0.026 S 
ATOM      8  S   UNL     1       5.102  -4.723   1.895  0.00  0.00    -0.059 S 
ENDROOT
BRANCH   1  10
ATOM      9  C   UNL     1       3.698  -0.687  -0.037  0.00  0.00    +0.100 A 
ATOM     10  C   UNL     1       3.995  -1.963   0.625  0.00  0.00    +0.022 A 
ATOM     11  C   UNL     1       5.317  -2.251   0.339  0.00  0.00    +0.123 A 
ATOM     12  N   UNL     1       5.799  -1.254  -0.427  0.00  0.00    -0.239 N 
ATOM     13  N   UNL     1       4.795  -0.308  -0.653  0.00  0.00    -0.166 NA
BRANCH   9  17
ATOM     14  C   UNL     1      -0.017   1.379   0.010  0.00  0.00    +0.000 A 
ATOM     15  C   UNL     1       1.169   2.092   0.002  0.00  0.00    +0.001 A 
ATOM     16  C   UNL     1       2.377   1.427  -0.013  0.00  0.00    +0.010 A 
ATOM     17  C   UNL     1       2.403   0.033  -0.021  0.00  0.00    +0.003 A 
ATOM     18  C   UNL     1       1.205  -0.680  -0.013  0.00  0.00    +0.010 A 
ATOM     19  C   UNL     1       0.002  -0.004   0.002  0.00  0.00    +0.001 A 
ENDBRANCH   9  17
BRANCH  12  20
ATOM     20  C   UNL     1       7.105  -1.179  -0.926  0.00  0.00    +0.065 A 
ATOM     21  C   UNL     1       8.017  -2.188  -0.644  0.00  0.00    +0.028 A 
ATOM     22  C   UNL     1       9.304  -2.111  -1.138  0.00  0.00    +0.002 A 
ATOM     23  C   UNL     1       9.687  -1.031  -1.912  0.00  0.00    +0.000 A 
ATOM     24  C   UNL     1       8.781  -0.024  -2.194  0.00  0.00    +0.002 A 
ATOM     25  C   UNL     1       7.491  -0.098  -1.708  0.00  0.00    +0.028 A 
ENDBRANCH  12  20
ENDBRANCH   1  10
BRANCH   5  26
ATOM     26  N   UNL     1       2.784  -6.927   4.014  0.00  0.00    -0.226 N 
ATOM     27  C   UNL     1       2.409  -8.105   3.478  0.00  0.00    +0.228 C 
ATOM     28  O   UNL     1       2.633  -8.338   2.309  0.00  0.00    -0.274 OA
ATOM     29  H   UNL     1       2.605  -6.741   4.949  0.00  0.00    +0.173 HD
BRANCH  27  30
ATOM     30  C   UNL     1       1.712  -9.134   4.331  0.00  0.00    +0.079 C 
BRANCH  30  31
ATOM     31  C   UNL     1       1.398 -10.370   3.485  0.00  0.00    -0.070 C 
BRANCH  31  32
ATOM     32  N   UNL     1       0.719 -11.372   4.317  0.00  0.00    +0.380 N 
ATOM     33  C   UNL     1       1.632 -11.833   5.369  0.00  0.00    -0.079 C 
ATOM     34  C   UNL     1       0.903 -12.817   6.287  0.00  0.00    -0.019 C 
ATOM     35  C   UNL     1       0.424 -14.016   5.463  0.00  0.00    -0.004 C 
ATOM     36  C   UNL     1      -0.468 -13.516   4.324  0.00  0.00    -0.019 C 
ATOM     37  C   UNL     1       0.312 -12.506   3.478  0.00  0.00    -0.079 C 
ATOM     38  H   UNL     1      -0.098 -10.958   4.740  0.00  0.00    -0.082 HD
ENDBRANCH  31  32
ENDBRANCH  30  31
ENDBRANCH  27  30
ENDBRANCH   5  26
TORSDOF 7
