REMARK  Name = ZINC24631163
REMARK  9 active torsions:
REMARK  status: ('A' for Active; 'I' for Inactive)
REMARK    1  A    between atoms: C_1  and  C_2
REMARK    2  A    between atoms: C_5  and  C_8
REMARK    3  A    between atoms: N_15  and  C_18
REMARK    4  A    between atoms: C_18  and  C_19
REMARK    5  A    between atoms: C_19  and  C_20
REMARK    6  A    between atoms: N_22  and  C_23
REMARK    7  A    between atoms: C_23  and  C_24
REMARK    8  A    between atoms: C_24  and  C_26
REMARK    9  A    between atoms: C_24  and  N_31
REMARK                            x       y       z     vdW  Elec       q    Type
REMARK                         _______ _______ _______ _____ _____    ______ ____
ROOT
ATOM      1  C   UNL     1      -0.962   0.663  -1.693  0.00  0.00    +0.135 C 
ENDROOT
BRANCH   1   9
ATOM      2  C   UNL     1       0.629   5.313  -2.788  0.00  0.00    +0.004 A 
ATOM      3  C   UNL     1       1.706   5.993  -3.251  0.00  0.00    +0.056 A 
ATOM      4  S   UNL     1       2.911   4.712  -3.540  0.00  0.00    -0.076 S 
ATOM      5  C   UNL     1       1.952   3.307  -3.037  0.00  0.00    +0.116 A 
ATOM      6  C   UNL     1       0.719   3.863  -2.658  0.00  0.00    +0.080 A 
ATOM      7  C   UNL     1      -0.266   2.932  -2.199  0.00  0.00    +0.263 A 
ATOM      8  O   UNL     1      -1.369   3.319  -1.852  0.00  0.00    -0.267 OA
ATOM      9  N   UNL     1       0.041   1.623  -2.161  0.00  0.00    -0.298 N 
ATOM     10  C   UNL     1       1.262   1.173  -2.549  0.00  0.00    +0.203 A 
ATOM     11  N   UNL     1       2.182   1.998  -2.972  0.00  0.00    -0.230 NA
BRANCH   2  16
ATOM     12  C   UNL     1      -4.209   8.092  -1.367  0.00  0.00    +0.044 C 
ATOM     13  C   UNL     1      -2.943   7.364  -1.739  0.00  0.00    -0.050 A 
ATOM     14  C   UNL     1      -1.727   7.799  -1.242  0.00  0.00    +0.004 A 
ATOM     15  C   UNL     1      -0.565   7.137  -1.579  0.00  0.00    +0.009 A 
ATOM     16  C   UNL     1      -0.616   6.028  -2.422  0.00  0.00    -0.017 A 
ATOM     17  C   UNL     1      -1.844   5.598  -2.925  0.00  0.00    +0.009 A 
ATOM     18  C   UNL     1      -3.001   6.264  -2.576  0.00  0.00    +0.004 A 
ENDBRANCH   2  16
ENDBRANCH   1   9
BRANCH   1  19
ATOM     19  C   UNL     1      -1.795   0.176  -2.880  0.00  0.00    +0.117 C 
BRANCH  19  20
ATOM     20  C   UNL     1      -2.827  -0.811  -2.399  0.00  0.00    +0.215 C 
ATOM     21  O   UNL     1      -2.889  -1.097  -1.222  0.00  0.00    -0.276 OA
ATOM     22  N   UNL     1      -3.680  -1.376  -3.276  0.00  0.00    -0.316 N 
ATOM     23  H   UNL     1      -3.623  -1.116  -4.343  0.00  0.00    +0.149 HD
BRANCH  22  24
ATOM     24  C   UNL     1      -4.683  -2.336  -2.808  0.00  0.00    +0.094 C 
BRANCH  24  25
ATOM     25  C   UNL     1      -5.401  -2.951  -4.011  0.00  0.00    -0.013 C 
BRANCH  25  26
ATOM     26  N   UNL     1      -4.431  -3.681  -4.839  0.00  0.00    +0.386 N 
ATOM     27  C   UNL     1      -5.119  -4.472  -5.891  0.00  0.00    -0.078 C 
ATOM     28  C   UNL     1      -4.002  -4.717  -6.937  0.00  0.00    -0.020 C 
ATOM     29  C   UNL     1      -3.214  -3.388  -6.919  0.00  0.00    -0.020 C 
ATOM     30  C   UNL     1      -3.537  -2.747  -5.556  0.00  0.00    -0.078 C 
ATOM     31  H   UNL     1      -3.870  -4.324  -4.145  0.00  0.00    -0.081 HD
ENDBRANCH  25  26
BRANCH  25  32
ATOM     32  C   UNL     1      -6.466  -3.901  -3.529  0.00  0.00    -0.022 A 
ATOM     33  C   UNL     1      -7.812  -3.741  -3.519  0.00  0.00    +0.009 A 
ATOM     34  C   UNL     1      -8.605  -4.761  -3.026  0.00  0.00    +0.008 A 
ATOM     35  C   UNL     1      -8.012  -5.886  -2.558  0.00  0.00    +0.045 A 
ATOM     36  S   UNL     1      -6.282  -5.527  -2.814  0.00  0.00    -0.103 S 
ENDBRANCH  25  32
ENDBRANCH  24  25
ENDBRANCH  22  24
ENDBRANCH  19  20
ENDBRANCH   1  19
TORSDOF 8
