REMARK  Name = ZINC11979848
REMARK  9 active torsions:
REMARK  status: ('A' for Active; 'I' for Inactive)
REMARK    1  A    between atoms: C_1  and  C_2
REMARK    2  A    between atoms: C_4  and  N_8
REMARK    3  A    between atoms: N_5  and  C_7
REMARK    4  A    between atoms: C_9  and  C_11
REMARK    5  A    between atoms: C_11  and  S_12
REMARK    6  A    between atoms: S_12  and  C_13
REMARK    7  A    between atoms: C_16  and  C_24
REMARK    8  A    between atoms: N_17  and  C_18
REMARK    9  A    between atoms: C_24  and  C_25
REMARK                            x       y       z     vdW  Elec       q    Type
REMARK                         _______ _______ _______ _____ _____    ______ ____
ROOT
ATOM      1  C   UNL     1       0.044  -5.312  -6.407  0.00  0.00    +0.192 A 
ATOM      2  N   UNL     1       0.058  -6.521  -5.896  0.00  0.00    -0.122 NA
ATOM      3  N   UNL     1       0.067  -7.394  -6.840  0.00  0.00    -0.133 NA
ATOM      4  C   UNL     1       0.060  -6.799  -7.999  0.00  0.00    +0.139 A 
ATOM      5  N   UNL     1       0.040  -5.452  -7.765  0.00  0.00    -0.303 N 
ENDROOT
BRANCH   5   6
ATOM      6  C   UNL     1       0.020  -4.381  -8.764  0.00  0.00    +0.091 C 
ATOM      7  C   UNL     1       1.259  -3.499  -8.591  0.00  0.00    +0.025 C 
ATOM      8  C   UNL     1       1.238  -2.381  -9.635  0.00  0.00    +0.002 C 
ATOM      9  C   UNL     1      -0.022  -1.532  -9.449  0.00  0.00    +0.000 C 
ATOM     10  C   UNL     1      -1.260  -2.414  -9.622  0.00  0.00    +0.002 C 
ATOM     11  C   UNL     1      -1.240  -3.533  -8.578  0.00  0.00    +0.025 C 
ENDBRANCH   5   6
BRANCH   1  12
ATOM     12  S   UNL     1       0.028  -3.796  -5.509  0.00  0.00    -0.077 S 
BRANCH  12  13
ATOM     13  C   UNL     1       0.044  -4.314  -3.771  0.00  0.00    +0.173 C 
BRANCH  13  15
ATOM     14  N   UNL     1       0.040  -3.240  -1.543  0.00  0.00    -0.270 N 
ATOM     15  C   UNL     1       0.031  -3.097  -2.883  0.00  0.00    +0.229 C 
ATOM     16  O   UNL     1       0.014  -1.988  -3.375  0.00  0.00    -0.275 OA
ATOM     17  H   UNL     1       0.054  -4.126  -1.150  0.00  0.00    +0.156 HD
BRANCH  14  21
ATOM     18  C   UNL     1      -0.018   1.503   0.010  0.00  0.00    +0.067 C 
ATOM     19  C   UNL     1       0.002  -0.004   0.002  0.00  0.00    +0.062 A 
ATOM     20  C   UNL     1       0.008  -0.816  -1.135  0.00  0.00    +0.068 A 
ATOM     21  C   UNL     1       0.028  -2.113  -0.722  0.00  0.00    +0.123 A 
ATOM     22  N   UNL     1       0.035  -2.110   0.631  0.00  0.00    -0.253 N 
ATOM     23  N   UNL     1       0.023  -0.776   1.058  0.00  0.00    -0.175 NA
ATOM     24  C   UNL     1       0.056  -3.292   1.496  0.00  0.00    +0.174 C 
ENDBRANCH  14  21
ENDBRANCH  13  15
ENDBRANCH  12  13
ENDBRANCH   1  12
BRANCH   4  25
ATOM     25  C   UNL     1       0.068  -7.471  -9.348  0.00  0.00    +0.118 C 
BRANCH  25  26
ATOM     26  C   UNL     1      -1.351  -7.710  -9.797  0.00  0.00    -0.003 A 
ATOM     27  C   UNL     1      -2.162  -6.906 -10.526  0.00  0.00    +0.011 A 
ATOM     28  C   UNL     1      -3.441  -7.337 -10.825  0.00  0.00    +0.008 A 
ATOM     29  C   UNL     1      -3.846  -8.552 -10.379  0.00  0.00    +0.045 A 
ATOM     30  S   UNL     1      -2.396  -9.130  -9.514  0.00  0.00    -0.101 S 
ENDBRANCH  25  26
ENDBRANCH   4  25
TORSDOF 7
