REMARK  Name = ZINC25399362
REMARK  11 active torsions:
REMARK  status: ('A' for Active; 'I' for Inactive)
REMARK    1  A    between atoms: C_1  and  C_2
REMARK    2  A    between atoms: C_5  and  O_8
REMARK    3  A    between atoms: O_8  and  C_9
REMARK    4  A    between atoms: C_9  and  C_10
REMARK    5  A    between atoms: C_12  and  C_33
REMARK    6  A    between atoms: C_13  and  C_15
REMARK    7  A    between atoms: N_17  and  C_18
REMARK    8  A    between atoms: C_18  and  C_19
REMARK    9  A    between atoms: C_19  and  C_21
REMARK   10  A    between atoms: C_19  and  N_27
REMARK   11  A    between atoms: C_24  and  C_26
REMARK                            x       y       z     vdW  Elec       q    Type
REMARK                         _______ _______ _______ _____ _____    ______ ____
ROOT
ATOM      1  C   UNL     1      -6.301   5.139   2.428  0.00  0.00    +0.253 C 
ATOM      2  O   UNL     1      -5.730   6.005   1.792  0.00  0.00    -0.270 OA
ATOM      3  N   UNL     1      -5.614   4.073   2.884  0.00  0.00    -0.309 N 
ATOM      4  H   UNL     1      -6.130   3.290   3.458  0.00  0.00    +0.149 HD
ENDROOT
BRANCH   1   8
ATOM      5  C   UNL     1     -10.285   5.074   3.401  0.00  0.00    +0.117 A 
ATOM      6  N   UNL     1      -9.875   6.113   2.702  0.00  0.00    -0.245 NA
ATOM      7  C   UNL     1      -8.625   6.245   2.338  0.00  0.00    +0.058 A 
ATOM      8  C   UNL     1      -7.739   5.255   2.698  0.00  0.00    +0.096 A 
ATOM      9  S   UNL     1      -8.826   4.153   3.592  0.00  0.00    -0.064 S 
ATOM     10  C   UNL     1      -8.171   7.444   1.546  0.00  0.00    +0.067 C 
BRANCH   5  11
ATOM     11  C   UNL     1     -11.671   4.764   3.906  0.00  0.00    +0.291 C 
BRANCH  11  12
ATOM     12  O   UNL     1     -12.377   4.004   2.924  0.00  0.00    -0.485 OA
BRANCH  12  17
ATOM     13  C   UNL     1     -17.658   2.493   4.173  0.00  0.00    +0.044 C 
ATOM     14  C   UNL     1     -16.245   2.897   3.839  0.00  0.00    -0.050 A 
ATOM     15  C   UNL     1     -15.691   2.531   2.626  0.00  0.00    +0.007 A 
ATOM     16  C   UNL     1     -14.396   2.900   2.318  0.00  0.00    +0.046 A 
ATOM     17  C   UNL     1     -13.651   3.639   3.225  0.00  0.00    +0.121 A 
ATOM     18  C   UNL     1     -14.208   4.001   4.444  0.00  0.00    +0.046 A 
ATOM     19  C   UNL     1     -15.505   3.635   4.745  0.00  0.00    +0.007 A 
ENDBRANCH  12  17
ENDBRANCH  11  12
ENDBRANCH   5  11
ENDBRANCH   1   8
BRANCH   3  20
ATOM     20  C   UNL     1      -4.178   3.958   2.614  0.00  0.00    +0.131 C 
BRANCH  20  21
ATOM     21  C   UNL     1      -3.671   2.608   3.124  0.00  0.00    +0.140 C 
BRANCH  21  22
ATOM     22  C   UNL     1      -4.302   1.498   2.324  0.00  0.00    +0.124 A 
ATOM     23  C   UNL     1      -3.723   0.832   1.309  0.00  0.00    +0.046 A 
ATOM     24  C   UNL     1      -4.666  -0.116   0.850  0.00  0.00    +0.045 A 
ATOM     25  C   UNL     1      -5.765   0.028   1.611  0.00  0.00    +0.102 A 
ATOM     26  O   UNL     1      -5.541   1.010   2.499  0.00  0.00    -0.463 OA
ATOM     27  C   UNL     1      -7.035  -0.774   1.486  0.00  0.00    +0.086 C 
ENDBRANCH  21  22
BRANCH  21  28
ATOM     28  N   UNL     1      -4.028   2.454   4.541  0.00  0.00    -0.287 NA
ATOM     29  C   UNL     1      -3.450   3.537   5.351  0.00  0.00    +0.113 C 
ATOM     30  C   UNL     1      -3.895   3.372   6.806  0.00  0.00    +0.175 C 
ATOM     31  O   UNL     1      -3.506   2.079   7.275  0.00  0.00    -0.377 OA
ATOM     32  C   UNL     1      -4.051   1.000   6.510  0.00  0.00    +0.175 C 
ATOM     33  C   UNL     1      -3.607   1.141   5.051  0.00  0.00    +0.113 C 
ENDBRANCH  21  28
ENDBRANCH  20  21
ENDBRANCH   3  20
TORSDOF 8
