REMARK  Name = ZINC02771903
REMARK  14 active torsions:
REMARK  status: ('A' for Active; 'I' for Inactive)
REMARK    1  A    between atoms: C_1  and  C_2
REMARK    2  A    between atoms: C_2  and  S_3
REMARK    3  A    between atoms: S_3  and  C_4
REMARK    4  A    between atoms: C_4  and  C_5
REMARK    5  A    between atoms: C_5  and  O_6
REMARK    6  A    between atoms: O_6  and  C_7
REMARK    7  A    between atoms: C_7  and  C_9
REMARK    8  A    between atoms: C_10  and  C_37
REMARK    9  A    between atoms: C_14  and  C_16
REMARK   10  A    between atoms: C_19  and  O_24
REMARK   11  A    between atoms: C_20  and  O_22
REMARK   12  A    between atoms: O_22  and  C_23
REMARK   13  A    between atoms: O_24  and  C_25
REMARK   14  A    between atoms: C_29  and  C_32
REMARK                            x       y       z     vdW  Elec       q    Type
REMARK                         _______ _______ _______ _____ _____    ______ ____
ROOT
ATOM      1  C   UNL     1       2.369   4.991  -1.214  0.00  0.00    +0.065 C 
ATOM      2  C   UNL     1       2.155   6.318  -1.224  0.00  0.00    +0.016 C 
ATOM      3  N   UNL     1       1.991   7.001  -0.052  0.00  0.00    -0.321 N 
ATOM      4  C   UNL     1       2.427   6.469   1.132  0.00  0.00    +0.016 C 
ATOM      5  C   UNL     1       2.650   5.143   1.244  0.00  0.00    +0.024 C 
ATOM      6  C   UNL     1       2.427   4.221   0.072  0.00  0.00    +0.092 C 
ATOM      7  C   UNL     1       3.098   4.583   2.455  0.00  0.00    +0.162 C 
ATOM      8  O   UNL     1       3.304   3.387   2.519  0.00  0.00    -0.292 OA
ATOM      9  C   UNL     1       3.325   5.438   3.672  0.00  0.00    +0.088 C 
ATOM     10  C   UNL     1       2.392   6.651   3.609  0.00  0.00    +0.039 C 
ATOM     11  C   UNL     1       2.653   7.398   2.299  0.00  0.00    +0.060 C 
ATOM     12  C   UNL     1       2.094   7.057  -2.536  0.00  0.00    +0.061 C 
ATOM     13  H   UNL     1       1.505   7.988  -0.054  0.00  0.00    +0.152 HD
ENDROOT
BRANCH   6  14
ATOM     14  C   UNL     1       1.127   3.482   0.265  0.00  0.00    -0.032 A 
ATOM     15  C   UNL     1      -0.059   4.185   0.358  0.00  0.00    +0.008 A 
ATOM     16  C   UNL     1      -1.253   3.512   0.534  0.00  0.00    +0.050 A 
ATOM     17  C   UNL     1      -1.264   2.128   0.613  0.00  0.00    +0.162 A 
ATOM     18  C   UNL     1      -0.069   1.421   0.525  0.00  0.00    +0.162 A 
ATOM     19  C   UNL     1       1.125   2.102   0.348  0.00  0.00    +0.054 A 
BRANCH  18  20
ATOM     20  O   UNL     1      -0.073   0.063   0.608  0.00  0.00    -0.491 OA
ATOM     21  C   UNL     1       1.190  -0.597   0.504  0.00  0.00    +0.277 C 
ENDBRANCH  18  20
BRANCH  17  22
ATOM     22  O   UNL     1      -2.438   1.464   0.781  0.00  0.00    -0.491 OA
ATOM     23  C   UNL     1      -3.625   2.256   0.862  0.00  0.00    +0.277 C 
ENDBRANCH  17  22
ENDBRANCH   6  14
BRANCH  10  24
ATOM     24  C   UNL     1       2.669   7.564   4.776  0.00  0.00    -0.006 A 
ATOM     25  C   UNL     1       1.828   7.975   5.756  0.00  0.00    +0.011 A 
ATOM     26  C   UNL     1       2.306   8.823   6.738  0.00  0.00    +0.008 A 
ATOM     27  C   UNL     1       3.602   9.218   6.691  0.00  0.00    +0.045 A 
ATOM     28  S   UNL     1       4.191   8.378   5.230  0.00  0.00    -0.101 S 
ENDBRANCH  10  24
BRANCH   1  29
ATOM     29  C   UNL     1       2.543   4.307  -2.440  0.00  0.00    +0.338 C 
ATOM     30  O   UNL     1       3.651   3.929  -2.774  0.00  0.00    -0.245 OA
BRANCH  29  31
ATOM     31  O   UNL     1       1.481   4.074  -3.240  0.00  0.00    -0.460 OA
BRANCH  31  32
ATOM     32  C   UNL     1       1.730   3.378  -4.463  0.00  0.00    +0.243 C 
BRANCH  32  33
ATOM     33  C   UNL     1       0.417   3.207  -5.229  0.00  0.00    +0.110 C 
BRANCH  33  34
ATOM     34  S   UNL     1       0.734   2.324  -6.782  0.00  0.00    -0.158 S 
BRANCH  34  36
ATOM     35  C   UNL     1      -0.777   1.471  -8.896  0.00  0.00    +0.015 C 
ATOM     36  C   UNL     1      -0.901   2.205  -7.559  0.00  0.00    +0.066 C 
ENDBRANCH  34  36
ENDBRANCH  33  34
ENDBRANCH  32  33
ENDBRANCH  31  32
ENDBRANCH  29  31
ENDBRANCH   1  29
TORSDOF 10
