REMARK  Name = ZINC19874408
REMARK  3 active torsions:
REMARK  status: ('A' for Active; 'I' for Inactive)
REMARK    1  A    between atoms: C_1  and  C_2
REMARK    2  A    between atoms: C_3  and  C_7
REMARK    3  A    between atoms: C_17  and  N_19
REMARK                            x       y       z     vdW  Elec       q    Type
REMARK                         _______ _______ _______ _____ _____    ______ ____
ROOT
ATOM      1  C   UNL     1      -0.029   2.087   2.241  0.00  0.00    +0.254 C 
ATOM      2  O   UNL     1      -0.629   1.846   3.271  0.00  0.00    -0.270 OA
ATOM      3  N   UNL     1      -0.710   2.364   1.112  0.00  0.00    -0.267 N 
ATOM      4  C   UNL     1      -0.002   2.789  -0.103  0.00  0.00    +0.114 C 
ATOM      5  C   UNL     1      -0.767   3.976  -0.702  0.00  0.00    +0.024 C 
ATOM      6  C   UNL     1      -2.162   3.507  -1.115  0.00  0.00    +0.038 C 
ATOM      7  C   UNL     1      -2.838   2.793   0.027  0.00  0.00    -0.024 A 
ATOM      8  C   UNL     1      -2.111   2.254   1.076  0.00  0.00    +0.040 A 
ATOM      9  C   UNL     1      -2.763   1.597   2.113  0.00  0.00    +0.025 A 
ATOM     10  C   UNL     1      -4.138   1.482   2.104  0.00  0.00    +0.024 A 
ATOM     11  C   UNL     1      -4.870   2.023   1.055  0.00  0.00    +0.025 A 
ATOM     12  C   UNL     1      -4.218   2.678   0.020  0.00  0.00    +0.028 A 
ENDROOT
BRANCH   1  15
ATOM     13  C   UNL     1       1.858   3.007   4.573  0.00  0.00    +0.087 C 
ATOM     14  C   UNL     1       2.282   2.470   3.230  0.00  0.00    +0.114 A 
ATOM     15  C   UNL     1       1.445   2.075   2.228  0.00  0.00    +0.078 A 
ATOM     16  C   UNL     1       2.320   1.628   1.134  0.00  0.00    +0.054 A 
ATOM     17  C   UNL     1       3.576   1.804   1.572  0.00  0.00    +0.196 A 
ATOM     18  O   UNL     1       3.542   2.300   2.818  0.00  0.00    -0.467 OA
ENDBRANCH   1  15
BRANCH  11  19
ATOM     19  N   UNL     1      -6.264   1.910   1.043  0.00  0.00    -0.358 N 
ATOM     20  H   UNL     1      -6.843   2.339   0.212  0.00  0.00    +0.142 HD
ATOM     21  H   UNL     1      -6.781   1.392   1.864  0.00  0.00    +0.142 HD
ENDBRANCH  11  19
TORSDOF 2
