REMARK  Name = ZINC22067546
REMARK  11 active torsions:
REMARK  status: ('A' for Active; 'I' for Inactive)
REMARK    1  A    between atoms: C_1  and  C_2
REMARK    2  A    between atoms: C_2  and  C_3
REMARK    3  A    between atoms: C_2  and  C_4
REMARK    4  A    between atoms: C_4  and  C_6
REMARK    5  A    between atoms: C_4  and  N_24
REMARK    6  A    between atoms: C_11  and  C_14
REMARK    7  A    between atoms: C_17  and  C_19
REMARK    8  A    between atoms: C_19  and  N_20
REMARK    9  A    between atoms: C_21  and  C_23
REMARK   10  A    between atoms: N_24  and  S_25
REMARK   11  A    between atoms: S_25  and  C_28
REMARK                            x       y       z     vdW  Elec       q    Type
REMARK                         _______ _______ _______ _____ _____    ______ ____
ROOT
ATOM      1  C   UNL     1       2.366   4.148   0.958  0.00  0.00    +0.238 C 
ATOM      2  O   UNL     1       3.134   3.212   1.028  0.00  0.00    -0.274 OA
ATOM      3  N   UNL     1       1.238   4.150   1.695  0.00  0.00    -0.263 N 
ATOM      4  C   UNL     1       0.901   3.035   2.452  0.00  0.00    +0.165 A 
ATOM      5  N   UNL     1      -0.147   2.842   3.231  0.00  0.00    -0.221 NA
ATOM      6  C   UNL     1      -0.314   1.697   3.890  0.00  0.00    +0.115 A 
ATOM      7  C   UNL     1       0.621   0.706   3.754  0.00  0.00    +0.080 A 
ATOM      8  S   UNL     1       1.771   1.484   2.628  0.00  0.00    -0.060 S 
ATOM      9  H   UNL     1       0.584   5.035   1.698  0.00  0.00    +0.157 HD
ENDROOT
BRANCH   6  10
ATOM     10  C   UNL     1      -1.494   1.499   4.758  0.00  0.00    +0.154 A 
ATOM     11  C   UNL     1      -2.483   2.405   4.978  0.00  0.00    +0.052 A 
ATOM     12  C   UNL     1      -3.400   1.799   5.862  0.00  0.00    +0.047 A 
ATOM     13  C   UNL     1      -2.924   0.571   6.142  0.00  0.00    +0.123 A 
ATOM     14  O   UNL     1      -1.772   0.393   5.473  0.00  0.00    -0.457 OA
BRANCH  13  15
ATOM     15  C   UNL     1      -3.575  -0.437   7.054  0.00  0.00    +0.178 C 
BRANCH  15  16
ATOM     16  N   UNL     1      -4.488  -1.280   6.277  0.00  0.00    -0.308 N 
ATOM     17  C   UNL     1      -5.186  -2.258   6.888  0.00  0.00    +0.210 C 
ATOM     18  O   UNL     1      -5.059  -2.440   8.080  0.00  0.00    -0.276 OA
ATOM     19  C   UNL     1      -6.125  -3.125   6.089  0.00  0.00    +0.109 C 
ATOM     20  H   UNL     1      -4.604  -1.115   5.196  0.00  0.00    +0.149 HD
ENDBRANCH  15  16
ENDBRANCH  13  15
ENDBRANCH   6  10
BRANCH   1  21
ATOM     21  C   UNL     1       2.674   5.308   0.047  0.00  0.00    +0.165 C 
BRANCH  21  23
ATOM     22  C   UNL     1       2.155   6.351  -2.163  0.00  0.00    +0.009 C 
ATOM     23  C   UNL     1       1.956   5.111  -1.290  0.00  0.00    +0.010 C 
ATOM     24  C   UNL     1       2.533   3.887  -2.003  0.00  0.00    +0.009 C 
ENDBRANCH  21  23
BRANCH  21  25
ATOM     25  N   UNL     1       4.119   5.381  -0.181  0.00  0.00    -0.177 NA
ATOM     26  H   UNL     1       4.659   4.505  -0.569  0.00  0.00    +0.149 HD
BRANCH  25  27
ATOM     27  S   UNL     1       4.980   6.683   0.373  0.00  0.00    +0.065 S 
ATOM     28  O   UNL     1       6.341   6.439   0.045  0.00  0.00    -0.153 OA
ATOM     29  O   UNL     1       4.287   7.844  -0.066  0.00  0.00    -0.153 OA
BRANCH  27  30
ATOM     30  C   UNL     1       4.874   6.668   2.131  0.00  0.00    +0.142 A 
ATOM     31  C   UNL     1       5.691   6.067   3.030  0.00  0.00    +0.036 A 
ATOM     32  C   UNL     1       5.412   6.191   4.378  0.00  0.00    +0.010 A 
ATOM     33  C   UNL     1       4.329   6.911   4.761  0.00  0.00    +0.047 A 
ATOM     34  S   UNL     1       3.668   7.447   3.192  0.00  0.00    -0.077 S 
ENDBRANCH  27  30
ENDBRANCH  25  27
ENDBRANCH  21  25
ENDBRANCH   1  21
TORSDOF 8
