REMARK  Name = ZINC16461608
REMARK  9 active torsions:
REMARK  status: ('A' for Active; 'I' for Inactive)
REMARK    1  A    between atoms: C_1  and  C_2
REMARK    2  A    between atoms: C_6  and  N_8
REMARK    3  A    between atoms: C_9  and  C_30
REMARK    4  A    between atoms: C_12  and  S_13
REMARK    5  A    between atoms: S_13  and  C_14
REMARK    6  A    between atoms: C_14  and  C_15
REMARK    7  A    between atoms: C_17  and  C_20
REMARK    8  A    between atoms: N_22  and  C_23
REMARK    9  A    between atoms: C_23  and  C_24
REMARK                            x       y       z     vdW  Elec       q    Type
REMARK                         _______ _______ _______ _____ _____    ______ ____
ROOT
ATOM      1  S   UNL     1       2.750   6.019   1.712  0.00  0.00    -0.079 S 
ENDROOT
BRANCH   1   6
ATOM      2  N   UNL     1       3.187   8.703   2.385  0.00  0.00    -0.270 N 
ATOM      3  C   UNL     1       3.369   9.882   1.693  0.00  0.00    +0.176 A 
ATOM      4  N   UNL     1       3.310   9.588   0.412  0.00  0.00    -0.127 NA
ATOM      5  N   UNL     1       3.111   8.328   0.259  0.00  0.00    -0.122 NA
ATOM      6  C   UNL     1       3.022   7.737   1.428  0.00  0.00    +0.197 A 
BRANCH   2  12
ATOM      7  C   UNL     1       5.216   6.783   6.433  0.00  0.00    +0.044 C 
ATOM      8  C   UNL     1       4.145   7.604   5.763  0.00  0.00    -0.048 A 
ATOM      9  C   UNL     1       3.146   8.188   6.521  0.00  0.00    +0.003 A 
ATOM     10  C   UNL     1       2.161   8.941   5.910  0.00  0.00    +0.002 A 
ATOM     11  C   UNL     1       2.175   9.118   4.540  0.00  0.00    +0.026 A 
ATOM     12  C   UNL     1       3.173   8.529   3.776  0.00  0.00    +0.051 A 
ATOM     13  C   UNL     1       4.161   7.773   4.392  0.00  0.00    +0.029 A 
ENDBRANCH   2  12
BRANCH   3  14
ATOM     14  C   UNL     1       3.589  11.214   2.276  0.00  0.00    +0.057 A 
ATOM     15  C   UNL     1       4.046  12.359   1.672  0.00  0.00    +0.019 A 
ATOM     16  C   UNL     1       4.171  13.501   2.430  0.00  0.00    +0.008 A 
ATOM     17  C   UNL     1       3.840  13.462   3.747  0.00  0.00    +0.046 A 
ATOM     18  S   UNL     1       3.322  11.766   3.953  0.00  0.00    -0.094 S 
ENDBRANCH   3  14
ENDBRANCH   1   6
BRANCH   1  19
ATOM     19  C   UNL     1       2.638   5.432   0.004  0.00  0.00    +0.140 C 
BRANCH  19  20
ATOM     20  C   UNL     1       2.399   3.944  -0.001  0.00  0.00    +0.089 A 
ATOM     21  N   UNL     1       1.261   3.300   0.002  0.00  0.00    -0.239 NA
ATOM     22  C   UNL     1       1.251   1.966   0.001  0.00  0.00    +0.133 A 
ATOM     23  C   UNL     1       2.462   1.322  -0.014  0.00  0.00    +0.080 A 
ATOM     24  S   UNL     1       3.566   2.661  -0.018  0.00  0.00    -0.079 S 
BRANCH  22  25
ATOM     25  C   UNL     1      -0.014   1.212   0.009  0.00  0.00    +0.263 C 
ATOM     26  O   UNL     1       0.002  -0.004   0.002  0.00  0.00    -0.269 OA
ATOM     27  N   UNL     1      -1.191   1.870   0.018  0.00  0.00    -0.306 N 
ATOM     28  H   UNL     1      -1.204   2.840   0.023  0.00  0.00    +0.149 HD
BRANCH  27  29
ATOM     29  C   UNL     1      -2.449   1.120   0.020  0.00  0.00    +0.140 C 
BRANCH  29  30
ATOM     30  C   UNL     1      -3.608   2.084   0.030  0.00  0.00    -0.027 A 
ATOM     31  C   UNL     1      -4.152   2.527   1.227  0.00  0.00    +0.025 A 
ATOM     32  C   UNL     1      -5.211   3.414   1.197  0.00  0.00    +0.111 A 
ATOM     33  N   UNL     1      -5.710   3.831   0.050  0.00  0.00    -0.263 NA
ATOM     34  C   UNL     1      -5.221   3.427  -1.106  0.00  0.00    +0.111 A 
ATOM     35  C   UNL     1      -4.159   2.544  -1.155  0.00  0.00    +0.025 A 
ENDBRANCH  29  30
ENDBRANCH  27  29
ENDBRANCH  22  25
ENDBRANCH  19  20
ENDBRANCH   1  19
TORSDOF 8
