REMARK  Name = ZINC51331201
REMARK  8 active torsions:
REMARK  status: ('A' for Active; 'I' for Inactive)
REMARK    1  A    between atoms: C_1  and  C_2
REMARK    2  A    between atoms: C_6  and  S_8
REMARK    3  A    between atoms: S_8  and  C_9
REMARK    4  A    between atoms: C_9  and  C_10
REMARK    5  A    between atoms: C_10  and  C_11
REMARK    6  A    between atoms: C_11  and  C_12
REMARK    7  A    between atoms: N_14  and  C_15
REMARK    8  A    between atoms: C_20  and  N_21
REMARK                            x       y       z     vdW  Elec       q    Type
REMARK                         _______ _______ _______ _____ _____    ______ ____
ROOT
ATOM      1  C   UNL     1       0.135  -7.819   4.298  0.00  0.00    +0.217 C 
ATOM      2  O   UNL     1       0.127  -7.300   5.394  0.00  0.00    -0.275 OA
ATOM      3  N   UNL     1       0.150  -9.162   4.188  0.00  0.00    -0.284 N 
ATOM      4  H   UNL     1       0.076  -9.578   3.315  0.00  0.00    +0.155 HD
ENDROOT
BRANCH   3   5
ATOM      5  C   UNL     1       0.272  -9.957   5.336  0.00  0.00    +0.054 A 
ATOM      6  C   UNL     1       0.876  -9.446   6.475  0.00  0.00    +0.025 A 
ATOM      7  C   UNL     1       0.996 -10.232   7.606  0.00  0.00    +0.002 A 
ATOM      8  C   UNL     1       0.516 -11.529   7.605  0.00  0.00    +0.002 A 
ATOM      9  C   UNL     1      -0.088 -12.047   6.474  0.00  0.00    +0.024 A 
ATOM     10  C   UNL     1      -0.218 -11.263   5.337  0.00  0.00    +0.046 A 
BRANCH  10  11
ATOM     11  N   UNL     1      -0.833 -11.783   4.193  0.00  0.00    -0.357 N 
ATOM     12  H   UNL     1      -0.919 -11.235   3.397  0.00  0.00    +0.142 HD
ATOM     13  H   UNL     1      -1.173 -12.691   4.196  0.00  0.00    +0.142 HD
ENDBRANCH  10  11
ENDBRANCH   3   5
BRANCH   1  14
ATOM     14  C   UNL     1       0.129  -6.962   3.058  0.00  0.00    +0.097 C 
BRANCH  14  15
ATOM     15  C   UNL     1       0.112  -5.485   3.459  0.00  0.00    +0.020 C 
BRANCH  15  16
ATOM     16  C   UNL     1       0.106  -4.615   2.201  0.00  0.00    +0.078 C 
BRANCH  16  17
ATOM     17  S   UNL     1       0.086  -2.864   2.676  0.00  0.00    -0.086 S 
BRANCH  17  23
ATOM     18  C   UNL     1       0.047   1.503   0.008  0.00  0.00    +0.066 C 
ATOM     19  C   UNL     1       0.062  -0.004  -0.000  0.00  0.00    +0.043 A 
ATOM     20  C   UNL     1       0.073  -0.700  -1.200  0.00  0.00    +0.043 A 
ATOM     21  C   UNL     1       0.088  -2.085  -1.163  0.00  0.00    +0.115 A 
ATOM     22  N   UNL     1       0.091  -2.699   0.009  0.00  0.00    -0.230 NA
ATOM     23  C   UNL     1       0.081  -2.005   1.138  0.00  0.00    +0.188 A 
ATOM     24  N   UNL     1       0.072  -0.679   1.137  0.00  0.00    -0.227 NA
ENDBRANCH  17  23
ENDBRANCH  16  17
ENDBRANCH  15  16
ENDBRANCH  14  15
ENDBRANCH   1  14
TORSDOF 7
