REMARK  Name = ZINC40945278
REMARK  8 active torsions:
REMARK  status: ('A' for Active; 'I' for Inactive)
REMARK    1  A    between atoms: C_1  and  C_2
REMARK    2  A    between atoms: C_2  and  C_4
REMARK    3  A    between atoms: C_2  and  O_16
REMARK    4  A    between atoms: O_16  and  C_17
REMARK    5  A    between atoms: C_20  and  C_23
REMARK    6  A    between atoms: C_23  and  C_24
REMARK    7  A    between atoms: C_23  and  C_25
REMARK    8  A    between atoms: C_23  and  C_26
REMARK                            x       y       z     vdW  Elec       q    Type
REMARK                         _______ _______ _______ _____ _____    ______ ____
ROOT
ATOM      1  C   UNL     1      -0.292   1.273  -0.184  0.00  0.00    +0.062 C 
ATOM      2  C   UNL     1      -0.034  -0.229  -0.045  0.00  0.00    +0.256 C 
ENDROOT
BRANCH   2   3
ATOM      3  C   UNL     1       0.768  -0.712  -1.225  0.00  0.00    +0.259 C 
ATOM      4  O   UNL     1       1.893  -1.136  -1.061  0.00  0.00    -0.271 OA
ATOM      5  N   UNL     1       0.237  -0.673  -2.463  0.00  0.00    -0.262 N 
ATOM      6  C   UNL     1       0.977  -1.119  -3.552  0.00  0.00    +0.165 A 
ATOM      7  N   UNL     1       2.196  -1.612  -3.564  0.00  0.00    -0.229 NA
ATOM      8  C   UNL     1       2.785  -2.002  -4.691  0.00  0.00    +0.054 A 
ATOM      9  C   UNL     1       2.032  -1.851  -5.811  0.00  0.00    +0.014 A 
ATOM     10  S   UNL     1       0.528  -1.167  -5.175  0.00  0.00    -0.057 S 
ATOM     11  C   UNL     1       2.407  -2.191  -7.214  0.00  0.00    +0.044 C 
ATOM     12  C   UNL     1       3.928  -2.407  -7.265  0.00  0.00    +0.006 C 
ATOM     13  C   UNL     1       4.336  -3.321  -6.107  0.00  0.00    +0.006 C 
ATOM     14  C   UNL     1       4.190  -2.582  -4.775  0.00  0.00    +0.056 C 
ATOM     15  H   UNL     1      -0.662  -0.334  -2.594  0.00  0.00    +0.157 HD
ENDBRANCH   2   3
BRANCH   2  16
ATOM     16  O   UNL     1       0.693  -0.477   1.160  0.00  0.00    -0.480 OA
BRANCH  16  17
ATOM     17  C   UNL     1      -0.031  -0.600   2.303  0.00  0.00    +0.122 A 
ATOM     18  C   UNL     1      -1.400  -0.376   2.286  0.00  0.00    +0.046 A 
ATOM     19  C   UNL     1      -2.133  -0.502   3.450  0.00  0.00    +0.008 A 
ATOM     20  C   UNL     1      -1.504  -0.849   4.631  0.00  0.00    -0.042 A 
ATOM     21  C   UNL     1      -0.140  -1.072   4.651  0.00  0.00    +0.008 A 
ATOM     22  C   UNL     1       0.598  -0.954   3.489  0.00  0.00    +0.046 A 
BRANCH  20  23
ATOM     23  C   UNL     1      -2.307  -0.985   5.900  0.00  0.00    -0.013 C 
ATOM     24  C   UNL     1      -3.372  -2.067   5.715  0.00  0.00    +0.015 C 
ATOM     25  C   UNL     1      -1.378  -1.374   7.052  0.00  0.00    +0.015 C 
ATOM     26  C   UNL     1      -2.985   0.349   6.219  0.00  0.00    +0.015 C 
ENDBRANCH  20  23
ENDBRANCH  16  17
ENDBRANCH   2  16
TORSDOF 4
