REMARK  Name = ZINC14162574
REMARK  14 active torsions:
REMARK  status: ('A' for Active; 'I' for Inactive)
REMARK    1  A    between atoms: C_1  and  C_2
REMARK    2  A    between atoms: C_2  and  O_3
REMARK    3  A    between atoms: O_3  and  C_4
REMARK    4  A    between atoms: C_4  and  C_6
REMARK    5  A    between atoms: C_7  and  N_36
REMARK    6  A    between atoms: C_20  and  C_22
REMARK    7  A    between atoms: C_25  and  O_30
REMARK    8  A    between atoms: C_26  and  O_28
REMARK    9  A    between atoms: O_28  and  C_29
REMARK   10  A    between atoms: O_30  and  C_31
REMARK   11  A    between atoms: C_31  and  C_32
REMARK   12  A    between atoms: C_32  and  C_33
REMARK   13  A    between atoms: C_33  and  C_34
REMARK   14  A    between atoms: C_33  and  C_35
REMARK                            x       y       z     vdW  Elec       q    Type
REMARK                         _______ _______ _______ _____ _____    ______ ____
ROOT
ATOM      1  C   UNL     1      -0.145   4.197  -0.352  0.00  0.00    +0.105 C 
ATOM      2  C   UNL     1      -1.233   3.386  -0.408  0.00  0.00    +0.195 C 
ATOM      3  O   UNL     1      -1.162   2.090  -0.066  0.00  0.00    -0.441 OA
ATOM      4  C   UNL     1       0.031   1.469  -0.016  0.00  0.00    +0.152 A 
ATOM      5  C   UNL     1       0.102  -0.001  -0.051  0.00  0.00    +0.060 A 
ATOM      6  C   UNL     1      -1.056  -0.777  -0.129  0.00  0.00    +0.015 A 
ATOM      7  C   UNL     1      -0.953  -2.150  -0.159  0.00  0.00    +0.001 A 
ATOM      8  C   UNL     1       0.292  -2.761  -0.113  0.00  0.00    +0.004 A 
ATOM      9  C   UNL     1       1.443  -2.006  -0.037  0.00  0.00    +0.047 A 
ATOM     10  C   UNL     1       1.362  -0.619  -0.005  0.00  0.00    +0.143 A 
ATOM     11  O   UNL     1       2.479   0.137   0.070  0.00  0.00    -0.422 OA
ATOM     12  C   UNL     1       2.421   1.477   0.103  0.00  0.00    +0.345 A 
ATOM     13  O   UNL     1       3.459   2.112   0.171  0.00  0.00    -0.245 OA
ATOM     14  C   UNL     1       1.198   2.169   0.061  0.00  0.00    +0.092 A 
ATOM     15  C   UNL     1       1.189   3.673   0.103  0.00  0.00    +0.102 C 
ENDROOT
BRANCH  15  16
ATOM     16  C   UNL     1       1.448   4.135   1.514  0.00  0.00    -0.031 A 
ATOM     17  C   UNL     1       0.583   3.768   2.529  0.00  0.00    +0.008 A 
ATOM     18  C   UNL     1       0.820   4.184   3.826  0.00  0.00    +0.050 A 
ATOM     19  C   UNL     1       1.919   4.980   4.109  0.00  0.00    +0.162 A 
ATOM     20  C   UNL     1       2.786   5.353   3.087  0.00  0.00    +0.162 A 
ATOM     21  C   UNL     1       2.546   4.928   1.790  0.00  0.00    +0.054 A 
BRANCH  20  22
ATOM     22  O   UNL     1       3.866   6.133   3.360  0.00  0.00    -0.491 OA
ATOM     23  C   UNL     1       4.712   6.476   2.261  0.00  0.00    +0.277 C 
ENDBRANCH  20  22
BRANCH  19  24
ATOM     24  O   UNL     1       2.149   5.395   5.384  0.00  0.00    -0.488 OA
BRANCH  24  25
ATOM     25  C   UNL     1       1.218   4.973   6.382  0.00  0.00    +0.229 C 
BRANCH  25  26
ATOM     26  C   UNL     1       1.639   5.534   7.742  0.00  0.00    +0.044 C 
BRANCH  26  27
ATOM     27  C   UNL     1       0.642   5.082   8.811  0.00  0.00    -0.014 C 
ATOM     28  C   UNL     1       1.129   5.537  10.188  0.00  0.00    +0.007 C 
ATOM     29  C   UNL     1      -0.728   5.701   8.524  0.00  0.00    +0.007 C 
ENDBRANCH  26  27
ENDBRANCH  25  26
ENDBRANCH  24  25
ENDBRANCH  19  24
ENDBRANCH  15  16
BRANCH   2  30
ATOM     30  N   UNL     1      -2.430   3.902  -0.828  0.00  0.00    -0.329 N 
ATOM     31  H   UNL     1      -2.474   4.809  -1.168  0.00  0.00    +0.145 HD
ATOM     32  H   UNL     1      -3.233   3.360  -0.786  0.00  0.00    +0.145 HD
ENDBRANCH   2  30
BRANCH   1  33
ATOM     33  C   UNL     1      -0.267   5.544  -0.725  0.00  0.00    +0.341 C 
ATOM     34  O   UNL     1       0.124   5.911  -1.819  0.00  0.00    -0.245 OA
BRANCH  33  35
ATOM     35  O   UNL     1      -0.818   6.434   0.128  0.00  0.00    -0.462 OA
BRANCH  35  37
ATOM     36  C   UNL     1      -1.557   8.642   0.775  0.00  0.00    +0.048 C 
ATOM     37  C   UNL     1      -0.911   7.788  -0.318  0.00  0.00    +0.229 C 
ENDBRANCH  35  37
ENDBRANCH  33  35
ENDBRANCH   1  33
TORSDOF 10
