REMARK  Name = ZINC01332402
REMARK  5 active torsions:
REMARK  status: ('A' for Active; 'I' for Inactive)
REMARK    1  A    between atoms: C_3  and  S_28
REMARK    2  A    between atoms: C_6  and  C_7
REMARK    3  A    between atoms: S_28  and  N_31
REMARK    4  A    between atoms: N_31  and  C_32
REMARK    5  A    between atoms: C_32  and  C_33
REMARK                            x       y       z     vdW  Elec       q    Type
REMARK                         _______ _______ _______ _____ _____    ______ ____
ROOT
ATOM      1  C   UNL     1       3.919   2.173  -0.049  0.00  0.00    +0.247 C 
ATOM      2  O   UNL     1       5.027   1.675  -0.080  0.00  0.00    -0.270 OA
ATOM      3  N   UNL     1       3.780   3.511  -0.130  0.00  0.00    -0.295 N 
ATOM      4  C   UNL     1       2.461   4.144   0.029  0.00  0.00    +0.127 C 
ATOM      5  C   UNL     1       2.585   5.259   1.079  0.00  0.00    +0.125 C 
ATOM      6  N   UNL     1       3.668   6.172   0.691  0.00  0.00    -0.312 N 
ATOM      7  C   UNL     1       4.966   5.483   0.676  0.00  0.00    +0.125 C 
ATOM      8  C   UNL     1       4.941   4.377  -0.385  0.00  0.00    +0.127 C 
ATOM      9  C   UNL     1       3.705   7.279   1.520  0.00  0.00    +0.133 A 
ATOM     10  C   UNL     1       3.516   8.585   0.987  0.00  0.00    +0.051 A 
ATOM     11  C   UNL     1       3.272   8.982  -0.400  0.00  0.00    -0.025 A 
ATOM     12  C   UNL     1       3.126  10.301  -0.642  0.00  0.00    -0.004 A 
ATOM     13  S   UNL     1       3.302  11.084   0.940  0.00  0.00    -0.073 S 
ATOM     14  C   UNL     1       3.572   9.634   1.926  0.00  0.00    +0.114 A 
ATOM     15  N   UNL     1       3.788   9.404   3.207  0.00  0.00    -0.228 NA
ATOM     16  C   UNL     1       3.956   8.170   3.642  0.00  0.00    +0.224 A 
ATOM     17  N   UNL     1       3.910   7.137   2.819  0.00  0.00    -0.220 NA
ATOM     18  C   UNL     1       2.871  10.959  -1.964  0.00  0.00    +0.043 C 
ATOM     19  C   UNL     1       3.168   9.943  -3.076  0.00  0.00    +0.005 C 
ATOM     20  C   UNL     1       2.480   8.620  -2.728  0.00  0.00    +0.005 C 
ATOM     21  C   UNL     1       3.182   7.967  -1.536  0.00  0.00    +0.037 C 
ENDROOT
BRANCH   1  27
ATOM     22  C   UNL     1       1.567   1.608  -0.644  0.00  0.00    +0.015 A 
ATOM     23  C   UNL     1       0.455   0.800  -0.521  0.00  0.00    +0.029 A 
ATOM     24  C   UNL     1       0.486  -0.301   0.316  0.00  0.00    +0.105 A 
ATOM     25  C   UNL     1       1.630  -0.600   1.035  0.00  0.00    +0.029 A 
ATOM     26  C   UNL     1       2.748   0.200   0.921  0.00  0.00    +0.015 A 
ATOM     27  C   UNL     1       2.724   1.312   0.078  0.00  0.00    +0.037 A 
BRANCH  24  28
ATOM     28  S   UNL     1      -0.939  -1.327   0.468  0.00  0.00    +0.058 S 
ATOM     29  O   UNL     1      -0.838  -1.978   1.727  0.00  0.00    -0.153 OA
ATOM     30  O   UNL     1      -2.057  -0.525   0.113  0.00  0.00    -0.153 OA
BRANCH  28  31
ATOM     31  N   UNL     1      -0.817  -2.507  -0.687  0.00  0.00    -0.187 NA
ATOM     32  H   UNL     1      -1.462  -2.547  -1.410  0.00  0.00    +0.148 HD
BRANCH  31  33
ATOM     33  C   UNL     1       0.265  -3.492  -0.617  0.00  0.00    +0.137 C 
BRANCH  33  34
ATOM     34  C   UNL     1      -0.051  -4.665  -1.547  0.00  0.00    +0.134 C 
ATOM     35  C   UNL     1       1.014  -5.773  -1.397  0.00  0.00    +0.035 C 
ATOM     36  C   UNL     1       1.198  -6.315  -2.832  0.00  0.00    +0.031 C 
ATOM     37  C   UNL     1       0.223  -5.470  -3.680  0.00  0.00    +0.160 C 
ATOM     38  O   UNL     1       0.041  -4.250  -2.928  0.00  0.00    -0.375 OA
ENDBRANCH  33  34
ENDBRANCH  31  33
ENDBRANCH  28  31
ENDBRANCH  24  28
ENDBRANCH   1  27
TORSDOF 5
