REMARK  Name = ZINC39911933
REMARK  15 active torsions:
REMARK  status: ('A' for Active; 'I' for Inactive)
REMARK    1  A    between atoms: C_1  and  C_2
REMARK    2  A    between atoms: C_2  and  C_3
REMARK    3  A    between atoms: C_3  and  C_4
REMARK    4  A    between atoms: C_4  and  C_5
REMARK    5  A    between atoms: C_5  and  O_6
REMARK    6  A    between atoms: O_6  and  C_7
REMARK    7  A    between atoms: C_11  and  C_13
REMARK    8  A    between atoms: C_16  and  C_28
REMARK    9  A    between atoms: N_23  and  C_24
REMARK   10  A    between atoms: C_24  and  C_25
REMARK   11  A    between atoms: C_25  and  C_26
REMARK   12  A    between atoms: C_26  and  C_27
REMARK   13  A    between atoms: C_30  and  C_36
REMARK   14  A    between atoms: C_32  and  C_35
REMARK   15  A    between atoms: C_33  and  O_34
REMARK                            x       y       z     vdW  Elec       q    Type
REMARK                         _______ _______ _______ _____ _____    ______ ____
ROOT
ATOM      1  C   UNL     1       2.775  -7.639  -5.118  0.00  0.00    +0.141 C 
ATOM      2  C   UNL     1       1.678  -8.386  -5.826  0.00  0.00    +0.035 A 
ATOM      3  C   UNL     1       0.310  -8.663  -5.920  0.00  0.00    +0.102 A 
ATOM      4  N   UNL     1       0.147  -9.512  -6.915  0.00  0.00    -0.173 NA
ATOM      5  N   UNL     1       1.276  -9.799  -7.459  0.00  0.00    -0.272 N 
ATOM      6  H   UNL     1       1.395 -10.402  -8.209  0.00  0.00    +0.189 HD
ATOM      7  C   UNL     1       2.281  -9.126  -6.824  0.00  0.00    +0.126 A 
ATOM      8  C   UNL     1       3.727  -8.879  -6.780  0.00  0.00    +0.265 C 
ATOM      9  O   UNL     1       4.541  -9.383  -7.530  0.00  0.00    -0.268 OA
ATOM     10  N   UNL     1       4.025  -8.016  -5.790  0.00  0.00    -0.285 N 
ENDROOT
BRANCH   3  11
ATOM     11  C   UNL     1      -0.761  -8.104  -5.057  0.00  0.00    +0.044 A 
ATOM     12  C   UNL     1      -0.433  -7.308  -3.962  0.00  0.00    +0.017 A 
ATOM     13  C   UNL     1      -1.432  -6.791  -3.163  0.00  0.00    -0.049 A 
ATOM     14  C   UNL     1      -2.760  -7.060  -3.445  0.00  0.00    +0.010 A 
ATOM     15  C   UNL     1      -3.096  -7.849  -4.529  0.00  0.00    -0.008 A 
ATOM     16  C   UNL     1      -2.103  -8.369  -5.343  0.00  0.00    +0.129 A 
ATOM     17  C   UNL     1      -4.544  -8.137  -4.829  0.00  0.00    +0.047 C 
ATOM     18  C   UNL     1      -1.075  -5.930  -1.978  0.00  0.00    +0.044 C 
BRANCH  16  19
ATOM     19  O   UNL     1      -2.432  -9.139  -6.413  0.00  0.00    -0.506 OA
ATOM     20  H   UNL     1      -2.494 -10.084  -6.213  0.00  0.00    +0.292 HD
ENDBRANCH  16  19
ENDBRANCH   3  11
BRANCH   1  25
ATOM     21  C   UNL     1       2.001  -4.050  -4.226  0.00  0.00    +0.121 A 
ATOM     22  C   UNL     1       2.139  -3.425  -5.457  0.00  0.00    +0.045 A 
ATOM     23  C   UNL     1       2.482  -4.166  -6.571  0.00  0.00    +0.004 A 
ATOM     24  C   UNL     1       2.687  -5.529  -6.460  0.00  0.00    +0.006 A 
ATOM     25  C   UNL     1       2.550  -6.154  -5.235  0.00  0.00    -0.019 A 
ATOM     26  C   UNL     1       2.213  -5.416  -4.116  0.00  0.00    +0.051 A 
BRANCH  21  27
ATOM     27  O   UNL     1       1.664  -3.323  -3.127  0.00  0.00    -0.492 OA
BRANCH  27  28
ATOM     28  C   UNL     1       1.461  -1.921  -3.315  0.00  0.00    +0.229 C 
BRANCH  28  29
ATOM     29  C   UNL     1       1.092  -1.276  -1.977  0.00  0.00    +0.041 C 
BRANCH  29  30
ATOM     30  C   UNL     1       0.875   0.225  -2.178  0.00  0.00    +0.003 C 
BRANCH  30  32
ATOM     31  C   UNL     1       0.288   2.371  -1.041  0.00  0.00    +0.004 C 
ATOM     32  C   UNL     1       0.505   0.870  -0.840  0.00  0.00    -0.003 C 
ENDBRANCH  30  32
ENDBRANCH  29  30
ENDBRANCH  28  29
ENDBRANCH  27  28
ENDBRANCH  21  27
ENDBRANCH   1  25
BRANCH  10  33
ATOM     33  C   UNL     1       5.365  -7.534  -5.444  0.00  0.00    +0.109 C 
BRANCH  33  34
ATOM     34  C   UNL     1       5.991  -8.470  -4.408  0.00  0.00    +0.019 C 
BRANCH  34  35
ATOM     35  C   UNL     1       7.390  -7.967  -4.047  0.00  0.00    -0.002 C 
ATOM     36  C   UNL     1       8.017  -8.903  -3.011  0.00  0.00    +0.004 C 
ENDBRANCH  34  35
ENDBRANCH  33  34
ENDBRANCH  10  33
TORSDOF 11
