REMARK  Name = ZINC60340222
REMARK  9 active torsions:
REMARK  status: ('A' for Active; 'I' for Inactive)
REMARK    1  A    between atoms: C_1  and  C_2
REMARK    2  A    between atoms: C_2  and  C_3
REMARK    3  A    between atoms: C_2  and  C_4
REMARK    4  A    between atoms: C_9  and  N_10
REMARK    5  A    between atoms: C_20  and  S_21
REMARK    6  A    between atoms: S_21  and  C_22
REMARK    7  A    between atoms: C_22  and  C_23
REMARK    8  A    between atoms: C_23  and  C_24
REMARK    9  A    between atoms: C_24  and  C_25
REMARK                            x       y       z     vdW  Elec       q    Type
REMARK                         _______ _______ _______ _____ _____    ______ ____
ROOT
ATOM      1  N   UNL     1      -1.010  -1.647  -2.090  0.00  0.00    -0.255 N 
ATOM      2  C   UNL     1      -0.247  -2.762  -2.022  0.00  0.00    +0.267 A 
ATOM      3  O   UNL     1      -0.287  -3.496  -1.052  0.00  0.00    -0.267 OA
ATOM      4  C   UNL     1       0.632  -3.054  -3.162  0.00  0.00    +0.065 A 
ATOM      5  C   UNL     1       1.456  -4.178  -3.188  0.00  0.00    +0.015 A 
ATOM      6  C   UNL     1       2.255  -4.404  -4.275  0.00  0.00    +0.001 A 
ATOM      7  C   UNL     1       2.254  -3.525  -5.351  0.00  0.00    +0.002 A 
ATOM      8  C   UNL     1       1.456  -2.416  -5.352  0.00  0.00    +0.028 A 
ATOM      9  C   UNL     1       0.628  -2.158  -4.255  0.00  0.00    +0.079 A 
ATOM     10  N   UNL     1      -0.178  -1.071  -4.215  0.00  0.00    -0.223 NA
ATOM     11  C   UNL     1      -0.958  -0.835  -3.189  0.00  0.00    +0.177 A 
ENDROOT
BRANCH   1  17
ATOM     12  C   UNL     1      -1.412  -0.526   0.013  0.00  0.00    -0.021 A 
ATOM     13  C   UNL     1      -2.259  -0.205   1.055  0.00  0.00    +0.006 A 
ATOM     14  C   UNL     1      -3.556  -0.683   1.066  0.00  0.00    +0.000 A 
ATOM     15  C   UNL     1      -4.010  -1.484   0.034  0.00  0.00    +0.002 A 
ATOM     16  C   UNL     1      -3.167  -1.808  -1.012  0.00  0.00    +0.026 A 
ATOM     17  C   UNL     1      -1.866  -1.324  -1.028  0.00  0.00    +0.055 A 
BRANCH  12  19
ATOM     18  C   UNL     1      -0.019   1.526   0.010  0.00  0.00    +0.012 C 
ATOM     19  C   UNL     1       0.002  -0.004   0.002  0.00  0.00    +0.015 C 
ATOM     20  C   UNL     1       0.742  -0.511   1.242  0.00  0.00    +0.012 C 
ENDBRANCH  12  19
ENDBRANCH   1  17
BRANCH  11  21
ATOM     21  S   UNL     1      -1.981   0.599  -3.224  0.00  0.00    -0.087 S 
BRANCH  21  22
ATOM     22  C   UNL     1      -1.604   1.368  -4.824  0.00  0.00    +0.078 C 
BRANCH  22  23
ATOM     23  C   UNL     1      -2.436   2.642  -4.986  0.00  0.00    +0.020 C 
BRANCH  23  24
ATOM     24  C   UNL     1      -2.118   3.290  -6.335  0.00  0.00    +0.097 C 
BRANCH  24  25
ATOM     25  C   UNL     1      -2.938   4.545  -6.495  0.00  0.00    +0.220 C 
ATOM     26  O   UNL     1      -3.700   4.886  -5.617  0.00  0.00    -0.275 OA
ATOM     27  N   UNL     1      -2.823   5.287  -7.614  0.00  0.00    -0.240 N 
ATOM     28  C   UNL     1      -3.555   6.409  -7.757  0.00  0.00    +0.303 C 
ATOM     29  O   UNL     1      -4.320   6.751  -6.877  0.00  0.00    -0.253 OA
ATOM     30  N   UNL     1      -3.441   7.151  -8.876  0.00  0.00    -0.313 N 
ATOM     31  H   UNL     1      -2.212   5.013  -8.317  0.00  0.00    +0.159 HD
ATOM     32  H   UNL     1      -2.830   6.877  -9.579  0.00  0.00    +0.146 HD
ATOM     33  H   UNL     1      -3.968   7.958  -8.979  0.00  0.00    +0.146 HD
ENDBRANCH  24  25
ENDBRANCH  23  24
ENDBRANCH  22  23
ENDBRANCH  21  22
ENDBRANCH  11  21
TORSDOF 7
