REMARK  Name = ZINC16571480
REMARK  11 active torsions:
REMARK  status: ('A' for Active; 'I' for Inactive)
REMARK    1  A    between atoms: C_1  and  C_2
REMARK    2  A    between atoms: C_2  and  C_3
REMARK    3  A    between atoms: C_3  and  C_5
REMARK    4  A    between atoms: C_3  and  C_6
REMARK    5  A    between atoms: C_6  and  C_8
REMARK    6  A    between atoms: C_6  and  N_23
REMARK    7  A    between atoms: C_14  and  C_16
REMARK    8  A    between atoms: C_24  and  C_26
REMARK    9  A    between atoms: C_26  and  C_27
REMARK   10  A    between atoms: C_26  and  C_28
REMARK   11  A    between atoms: C_26  and  C_29
REMARK                            x       y       z     vdW  Elec       q    Type
REMARK                         _______ _______ _______ _____ _____    ______ ____
ROOT
ATOM      1  C   UNL     1      -0.812   1.760  -1.061  0.00  0.00    +0.239 C 
ATOM      2  O   UNL     1      -0.268   2.414  -1.925  0.00  0.00    -0.273 OA
ATOM      3  N   UNL     1      -2.148   1.588  -1.086  0.00  0.00    -0.262 N 
ATOM      4  C   UNL     1      -2.915   2.244  -2.041  0.00  0.00    +0.188 A 
ATOM      5  N   UNL     1      -2.546   3.077  -3.006  0.00  0.00    -0.125 NA
ATOM      6  N   UNL     1      -3.381   3.588  -3.801  0.00  0.00    -0.140 NA
ATOM      7  C   UNL     1      -4.681   3.331  -3.714  0.00  0.00    +0.134 A 
ATOM      8  S   UNL     1      -4.684   2.210  -2.317  0.00  0.00    -0.030 S 
ATOM      9  H   UNL     1      -2.575   1.007  -0.437  0.00  0.00    +0.157 HD
ENDROOT
BRANCH   7  10
ATOM     10  C   UNL     1      -5.805   3.829  -4.535  0.00  0.00    +0.009 A 
ATOM     11  C   UNL     1      -7.109   3.414  -4.262  0.00  0.00    +0.012 A 
ATOM     12  C   UNL     1      -8.154   3.885  -5.029  0.00  0.00    +0.016 A 
ATOM     13  C   UNL     1      -7.910   4.760  -6.074  0.00  0.00    +0.018 A 
ATOM     14  C   UNL     1      -6.618   5.170  -6.354  0.00  0.00    +0.016 A 
ATOM     15  C   UNL     1      -5.565   4.710  -5.590  0.00  0.00    +0.012 A 
ATOM     16 BR   UNL     1      -9.348   5.394  -7.126  0.00  0.00    -0.050 Br
ENDBRANCH   7  10
BRANCH   1  17
ATOM     17  C   UNL     1       0.007   1.141   0.042  0.00  0.00    +0.162 C 
BRANCH  17  18
ATOM     18  N   UNL     1       1.411   1.073  -0.371  0.00  0.00    -0.303 N 
ATOM     19  C   UNL     1       2.229   0.150   0.172  0.00  0.00    +0.219 C 
ATOM     20  O   UNL     1       1.804  -0.624   1.004  0.00  0.00    -0.275 OA
ATOM     21  H   UNL     1       1.751   1.691  -1.036  0.00  0.00    +0.149 HD
BRANCH  19  22
ATOM     22  C   UNL     1       3.673   0.080  -0.253  0.00  0.00    +0.039 C 
ATOM     23  C   UNL     1       4.375  -1.045   0.510  0.00  0.00    +0.020 C 
ATOM     24  C   UNL     1       3.750  -0.198  -1.755  0.00  0.00    +0.020 C 
ATOM     25  C   UNL     1       4.361   1.411   0.056  0.00  0.00    +0.020 C 
ENDBRANCH  19  22
ENDBRANCH  17  18
BRANCH  17  26
ATOM     26  C   UNL     1      -0.112   1.994   1.307  0.00  0.00    +0.015 C 
ATOM     27  C   UNL     1       0.511   3.369   1.054  0.00  0.00    +0.010 C 
BRANCH  26  29
ATOM     28  C   UNL     1       0.401   2.093   3.750  0.00  0.00    +0.004 C 
ATOM     29  C   UNL     1       0.624   1.305   2.458  0.00  0.00    +0.002 C 
ENDBRANCH  26  29
ENDBRANCH  17  26
ENDBRANCH   1  17
TORSDOF 6
