REMARK  Name = ZINC25671754
REMARK  12 active torsions:
REMARK  status: ('A' for Active; 'I' for Inactive)
REMARK    1  A    between atoms: C_1  and  C_2
REMARK    2  A    between atoms: C_2  and  O_3
REMARK    3  A    between atoms: O_3  and  C_4
REMARK    4  A    between atoms: C_4  and  C_6
REMARK    5  A    between atoms: C_7  and  C_20
REMARK    6  A    between atoms: C_12  and  C_14
REMARK    7  A    between atoms: C_17  and  C_19
REMARK    8  A    between atoms: C_20  and  O_21
REMARK    9  A    between atoms: O_21  and  C_22
REMARK   10  A    between atoms: C_22  and  C_24
REMARK   11  A    between atoms: C_27  and  S_30
REMARK   12  A    between atoms: S_30  and  C_31
REMARK                            x       y       z     vdW  Elec       q    Type
REMARK                         _______ _______ _______ _____ _____    ______ ____
ROOT
ATOM      1  C   UNL     1       1.444   1.900  -0.065  0.00  0.00    +0.084 C 
ATOM      2  C   UNL     1       1.807   2.772  -1.031  0.00  0.00    +0.061 C 
ATOM      3  N   UNL     1       0.901   3.225  -1.947  0.00  0.00    -0.269 N 
ATOM      4  C   UNL     1      -0.385   2.854  -1.966  0.00  0.00    +0.305 C 
ATOM      5  O   UNL     1      -1.116   3.312  -2.822  0.00  0.00    -0.252 OA
ATOM      6  N   UNL     1      -0.896   1.990  -1.067  0.00  0.00    -0.285 N 
ATOM      7  C   UNL     1      -0.000   1.443  -0.034  0.00  0.00    +0.179 C 
ATOM      8  H   UNL     1       1.216   3.935  -2.727  0.00  0.00    +0.156 HD
ATOM      9  H   UNL     1      -1.954   1.692  -1.091  0.00  0.00    +0.151 HD
ENDROOT
BRANCH   7  10
ATOM     10  C   UNL     1      -0.015  -0.059  -0.156  0.00  0.00    +0.130 A 
ATOM     11  C   UNL     1      -0.161  -0.929   0.860  0.00  0.00    +0.047 A 
ATOM     12  C   UNL     1      -0.115  -2.226   0.298  0.00  0.00    +0.045 A 
ATOM     13  C   UNL     1       0.056  -2.071  -1.027  0.00  0.00    +0.102 A 
ATOM     14  O   UNL     1       0.110  -0.756  -1.297  0.00  0.00    -0.463 OA
ATOM     15  C   UNL     1       0.161  -3.183  -2.039  0.00  0.00    +0.086 C 
ENDBRANCH   7  10
BRANCH   1  16
ATOM     16  C   UNL     1       2.381   1.429   0.884  0.00  0.00    +0.339 C 
ATOM     17  O   UNL     1       2.399   1.901   2.006  0.00  0.00    -0.245 OA
BRANCH  16  18
ATOM     18  O   UNL     1       3.254   0.458   0.546  0.00  0.00    -0.462 OA
BRANCH  18  20
ATOM     19  C   UNL     1       5.076  -1.067   0.991  0.00  0.00    +0.048 C 
ATOM     20  C   UNL     1       4.172   0.031   1.555  0.00  0.00    +0.229 C 
ENDBRANCH  18  20
ENDBRANCH  16  18
ENDBRANCH   1  16
BRANCH   2  21
ATOM     21  C   UNL     1       3.234   3.252  -1.098  0.00  0.00    +0.283 C 
BRANCH  21  22
ATOM     22  O   UNL     1       3.848   2.772  -2.324  0.00  0.00    -0.455 OA
BRANCH  22  23
ATOM     23  C   UNL     1       5.133   3.116  -2.539  0.00  0.00    +0.340 C 
ATOM     24  O   UNL     1       5.724   3.798  -1.725  0.00  0.00    -0.245 OA
BRANCH  23  25
ATOM     25  C   UNL     1       5.822   2.666  -3.761  0.00  0.00    +0.059 A 
ATOM     26  C   UNL     1       5.144   1.876  -4.696  0.00  0.00    +0.016 A 
ATOM     27  C   UNL     1       5.784   1.465  -5.831  0.00  0.00    +0.015 A 
ATOM     28  C   UNL     1       7.112   1.821  -6.052  0.00  0.00    +0.013 A 
ATOM     29  C   UNL     1       7.791   2.603  -5.120  0.00  0.00    +0.015 A 
ATOM     30  C   UNL     1       7.156   3.022  -3.986  0.00  0.00    +0.016 A 
BRANCH  28  31
ATOM     31  S   UNL     1       7.936   1.283  -7.514  0.00  0.00    -0.056 S 
BRANCH  31  32
ATOM     32  C   UNL     1       6.677   0.319  -8.397  0.00  0.00    +0.404 C 
ATOM     33  F   UNL     1       6.266  -0.753  -7.598  0.00  0.00    -0.197 F 
ATOM     34  F   UNL     1       5.578   1.137  -8.681  0.00  0.00    -0.197 F 
ENDBRANCH  31  32
ENDBRANCH  28  31
ENDBRANCH  23  25
ENDBRANCH  22  23
ENDBRANCH  21  22
ENDBRANCH   2  21
TORSDOF 10
