REMARK  Name = ZINC11788850
REMARK  8 active torsions:
REMARK  status: ('A' for Active; 'I' for Inactive)
REMARK    1  A    between atoms: C_3  and  C_11
REMARK    2  A    between atoms: C_5  and  C_7
REMARK    3  A    between atoms: C_11  and  O_36
REMARK    4  A    between atoms: C_16  and  C_17
REMARK    5  A    between atoms: C_16  and  N_63
REMARK    6  A    between atoms: C_20  and  C_25
REMARK    7  A    between atoms: N_27  and  C_28
REMARK    8  A    between atoms: C_28  and  C_29
REMARK                            x       y       z     vdW  Elec       q    Type
REMARK                         _______ _______ _______ _____ _____    ______ ____
ROOT
ATOM      1  C   UNL     1       1.316   9.314  -0.793  0.00  0.00    -0.025 C 
ENDROOT
BRANCH   1   2
ATOM      2  C   UNL     1       1.542   9.709  -2.230  0.00  0.00    +0.003 A 
ATOM      3  C   UNL     1       0.614  10.469  -2.866  0.00  0.00    +0.020 A 
ATOM      4  C   UNL     1       0.810  10.848  -4.194  0.00  0.00    +0.020 A 
ATOM      5  C   UNL     1       1.963  10.425  -4.853  0.00  0.00    +0.101 A 
ATOM      6  C   UNL     1       2.901   9.629  -4.147  0.00  0.00    +0.261 A 
ATOM      7  O   UNL     1       3.917   9.246  -4.701  0.00  0.00    -0.267 OA
ATOM      8  N   UNL     1       2.665   9.296  -2.864  0.00  0.00    -0.327 N 
ATOM      9  H   UNL     1       3.309   8.750  -2.386  0.00  0.00    +0.169 HD
BRANCH   5  10
ATOM     10  C   UNL     1       2.203  10.799  -6.255  0.00  0.00    +0.249 C 
ATOM     11  O   UNL     1       1.345  11.391  -6.882  0.00  0.00    -0.270 OA
ATOM     12  N   UNL     1       3.374  10.486  -6.845  0.00  0.00    -0.309 N 
ATOM     13  H   UNL     1       4.028   9.950  -6.370  0.00  0.00    +0.149 HD
BRANCH  12  14
ATOM     14  C   UNL     1       3.658  10.954  -8.204  0.00  0.00    +0.138 C 
BRANCH  14  15
ATOM     15  C   UNL     1       5.042  10.464  -8.633  0.00  0.00    +0.161 C 
ATOM     16  C   UNL     1       5.341  10.956 -10.052  0.00  0.00    +0.193 C 
ATOM     17  O   UNL     1       6.680  10.590 -10.403  0.00  0.00    -0.375 OA
ATOM     18  C   UNL     1       7.669  11.106  -9.507  0.00  0.00    +0.188 C 
ATOM     19  C   UNL     1       7.369  10.613  -8.089  0.00  0.00    +0.188 C 
ATOM     20  O   UNL     1       6.031  10.980  -7.738  0.00  0.00    -0.370 OA
ENDBRANCH  14  15
ENDBRANCH  12  14
ENDBRANCH   5  10
ENDBRANCH   1   2
BRANCH   1  26
ATOM     21  C   UNL     1      -0.117   5.372   0.035  0.00  0.00    +0.088 C 
ATOM     22  C   UNL     1      -0.134   5.893  -1.405  0.00  0.00    +0.021 C 
ATOM     23  C   UNL     1      -0.071   7.422  -1.390  0.00  0.00    -0.075 C 
ATOM     24  C   UNL     1       1.168   7.409   0.692  0.00  0.00    -0.075 C 
ATOM     25  C   UNL     1       1.144   5.880   0.740  0.00  0.00    +0.021 C 
ATOM     26  N   UNL     1       1.177   7.845  -0.720  0.00  0.00    +0.383 N 
ATOM     27  H   UNL     1       1.976   7.411  -1.198  0.00  0.00    -0.081 HD
BRANCH  21  30
ATOM     28  C   UNL     1       1.080   1.792  -0.004  0.00  0.00    +0.001 A 
ATOM     29  C   UNL     1       1.080   3.174   0.005  0.00  0.00    +0.006 A 
ATOM     30  C   UNL     1      -0.117   3.865   0.025  0.00  0.00    -0.016 A 
ATOM     31  C   UNL     1      -1.314   3.174   0.038  0.00  0.00    +0.018 A 
ATOM     32  C   UNL     1      -1.314   1.792   0.023  0.00  0.00    +0.055 A 
ATOM     33  C   UNL     1      -0.117   1.100   0.008  0.00  0.00    +0.012 A 
BRANCH  32  34
ATOM     34  C   UNL     1      -2.619   1.038   0.030  0.00  0.00    +0.417 C 
ATOM     35  F   UNL     1      -2.364  -0.338   0.019  0.00  0.00    -0.166 F 
ATOM     36  F   UNL     1      -3.343   1.368   1.181  0.00  0.00    -0.166 F 
ATOM     37  F   UNL     1      -3.363   1.383  -1.103  0.00  0.00    -0.166 F 
ENDBRANCH  32  34
ENDBRANCH  21  30
BRANCH  21  38
ATOM     38  O   UNL     1      -1.275   5.845   0.727  0.00  0.00    -0.384 OA
ATOM     39  H   UNL     1      -2.111   5.563   0.333  0.00  0.00    +0.211 HD
ENDBRANCH  21  38
ENDBRANCH   1  26
TORSDOF 8
