REMARK  Name = ZINC11133177
REMARK  10 active torsions:
REMARK  status: ('A' for Active; 'I' for Inactive)
REMARK    1  A    between atoms: C_1  and  C_2
REMARK    2  A    between atoms: C_2  and  N_3
REMARK    3  A    between atoms: C_7  and  C_26
REMARK    4  A    between atoms: C_8  and  C_25
REMARK    5  A    between atoms: C_12  and  S_13
REMARK    6  A    between atoms: S_13  and  C_14
REMARK    7  A    between atoms: C_14  and  C_15
REMARK    8  A    between atoms: N_17  and  C_18
REMARK    9  A    between atoms: C_23  and  C_24
REMARK   10  A    between atoms: C_23  and  N_55
REMARK                            x       y       z     vdW  Elec       q    Type
REMARK                         _______ _______ _______ _____ _____    ______ ____
ROOT
ATOM      1  S   UNL     1      -0.022   1.806   0.012  0.00  0.00    -0.078 S 
ENDROOT
BRANCH   1  11
ATOM      2  N   UNL     1       2.148   3.428   0.000  0.00  0.00    -0.288 N 
ATOM      3  C   UNL     1       3.462   3.718  -0.011  0.00  0.00    +0.263 A 
ATOM      4  O   UNL     1       3.837   4.878  -0.009  0.00  0.00    -0.267 OA
ATOM      5  C   UNL     1       4.412   2.649  -0.025  0.00  0.00    +0.075 A 
ATOM      6  C   UNL     1       5.863   2.708  -0.039  0.00  0.00    -0.026 A 
ATOM      7  C   UNL     1       6.565   1.565  -0.052  0.00  0.00    -0.008 A 
ATOM      8  S   UNL     1       5.305   0.304  -0.046  0.00  0.00    -0.073 S 
ATOM      9  C   UNL     1       3.870   1.349  -0.027  0.00  0.00    +0.117 A 
ATOM     10  N   UNL     1       2.561   1.131  -0.011  0.00  0.00    -0.216 NA
ATOM     11  C   UNL     1       1.708   2.135  -0.003  0.00  0.00    +0.173 A 
ATOM     12  C   UNL     1       8.062   1.389  -0.068  0.00  0.00    +0.052 C 
ATOM     13  C   UNL     1       6.572   4.038  -0.039  0.00  0.00    +0.045 C 
BRANCH   2  15
ATOM     14  C   UNL     1       0.844   4.891   1.462  0.00  0.00    +0.027 C 
ATOM     15  C   UNL     1       1.171   4.519   0.015  0.00  0.00    +0.124 C 
ENDBRANCH   2  15
ENDBRANCH   1  11
BRANCH   1  16
ATOM     16  C   UNL     1       0.002  -0.004   0.002  0.00  0.00    +0.173 C 
BRANCH  16  17
ATOM     17  C   UNL     1      -1.412  -0.526   0.013  0.00  0.00    +0.224 C 
ATOM     18  O   UNL     1      -2.344   0.250   0.026  0.00  0.00    -0.275 OA
ATOM     19  N   UNL     1      -1.640  -1.854   0.008  0.00  0.00    -0.312 N 
ATOM     20  H   UNL     1      -0.894  -2.474  -0.003  0.00  0.00    +0.149 HD
BRANCH  19  21
ATOM     21  C   UNL     1      -3.014  -2.361   0.018  0.00  0.00    +0.069 C 
ATOM     22  C   UNL     1      -3.522  -2.435   1.461  0.00  0.00    +0.003 C 
ATOM     23  C   UNL     1      -4.935  -3.023   1.470  0.00  0.00    -0.077 C 
ATOM     24  C   UNL     1      -4.475  -4.311  -0.530  0.00  0.00    -0.077 C 
ATOM     25  C   UNL     1      -3.048  -3.762  -0.599  0.00  0.00    +0.003 C 
ATOM     26  N   UNL     1      -4.894  -4.380   0.886  0.00  0.00    +0.380 N 
ATOM     27  H   UNL     1      -4.215  -4.947   1.407  0.00  0.00    -0.082 HD
BRANCH  26  28
ATOM     28  C   UNL     1      -6.225  -5.013   0.987  0.00  0.00    -0.082 C 
ATOM     29  C   UNL     1      -6.761  -4.829   2.409  0.00  0.00    -0.017 C 
ENDBRANCH  26  28
ENDBRANCH  19  21
ENDBRANCH  16  17
ENDBRANCH   1  16
TORSDOF 6
