REMARK  Name = ZINC13064445
REMARK  10 active torsions:
REMARK  status: ('A' for Active; 'I' for Inactive)
REMARK    1  A    between atoms: C_1  and  C_2
REMARK    2  A    between atoms: C_2  and  C_3
REMARK    3  A    between atoms: C_3  and  C_5
REMARK    4  A    between atoms: C_3  and  N_72
REMARK    5  A    between atoms: N_9  and  C_10
REMARK    6  A    between atoms: C_15  and  C_16
REMARK    7  A    between atoms: C_15  and  N_72
REMARK    8  A    between atoms: C_19  and  C_22
REMARK    9  A    between atoms: C_23  and  C_24
REMARK   10  A    between atoms: C_23  and  N_72
REMARK                            x       y       z     vdW  Elec       q    Type
REMARK                         _______ _______ _______ _____ _____    ______ ____
ROOT
ATOM      1  N   UNL     1      -1.619   2.272   1.140  0.00  0.00    +0.392 N 
ATOM      2  H   UNL     1      -0.854   2.789   1.588  0.00  0.00    -0.080 HD
ENDROOT
BRANCH   1   3
ATOM      3  C   UNL     1      -1.798   0.981   1.837  0.00  0.00    +0.003 C 
BRANCH   3   4
ATOM      4  C   UNL     1      -0.473   0.565   2.423  0.00  0.00    +0.138 A 
ATOM      5  N   UNL     1       0.715   0.829   1.937  0.00  0.00    -0.115 NA
ATOM      6  N   UNL     1       1.592   0.305   2.721  0.00  0.00    -0.023 NA
ATOM      7  N   UNL     1       0.994  -0.287   3.696  0.00  0.00    -0.044 NA
ATOM      8  N   UNL     1      -0.280  -0.144   3.551  0.00  0.00    -0.228 N 
BRANCH   8   9
ATOM      9  C   UNL     1      -1.321  -0.660   4.443  0.00  0.00    +0.111 C 
ATOM     10  C   UNL     1      -1.189  -0.014   5.838  0.00  0.00    +0.027 C 
ATOM     11  C   UNL     1      -1.546  -1.158   6.821  0.00  0.00    +0.002 C 
ATOM     12  C   UNL     1      -0.906  -2.398   6.149  0.00  0.00    +0.002 C 
ATOM     13  C   UNL     1      -1.141  -2.176   4.641  0.00  0.00    +0.027 C 
ENDBRANCH   8   9
ENDBRANCH   3   4
BRANCH   3  15
ATOM     14  C   UNL     1      -3.652   0.304   0.305  0.00  0.00    +0.002 C 
ATOM     15  C   UNL     1      -2.281  -0.091   0.859  0.00  0.00    -0.011 C 
ENDBRANCH   3  15
ENDBRANCH   1   3
BRANCH   1  16
ATOM     16  C   UNL     1      -1.275   2.036  -0.278  0.00  0.00    -0.042 C 
BRANCH  16  17
ATOM     17  C   UNL     1       0.131   1.498  -0.352  0.00  0.00    -0.064 A 
ATOM     18  C   UNL     1       1.201   2.313  -0.035  0.00  0.00    +0.002 A 
ATOM     19  C   UNL     1       2.491   1.822  -0.110  0.00  0.00    +0.003 A 
ATOM     20  C   UNL     1       2.710   0.514  -0.501  0.00  0.00    -0.050 A 
ATOM     21  C   UNL     1       1.640  -0.302  -0.818  0.00  0.00    +0.003 A 
ATOM     22  C   UNL     1       0.350   0.191  -0.744  0.00  0.00    +0.002 A 
ATOM     23  C   UNL     1       4.116  -0.022  -0.582  0.00  0.00    +0.044 C 
ENDBRANCH  16  17
ENDBRANCH   1  16
BRANCH   1  24
ATOM     24  C   UNL     1      -2.859   3.071   1.233  0.00  0.00    -0.036 C 
BRANCH  24  25
ATOM     25  C   UNL     1      -2.959   3.648   2.621  0.00  0.00    +0.001 A 
ATOM     26  C   UNL     1      -2.448   4.878   2.881  0.00  0.00    +0.017 A 
ATOM     27  C   UNL     1      -2.566   5.412   4.237  0.00  0.00    +0.002 A 
ATOM     28  C   UNL     1      -2.062   6.678   4.562  0.00  0.00    +0.059 A 
ATOM     29  C   UNL     1      -2.181   7.152   5.851  0.00  0.00    +0.163 A 
ATOM     30  C   UNL     1      -2.804   6.375   6.833  0.00  0.00    +0.164 A 
ATOM     31  C   UNL     1      -3.306   5.123   6.520  0.00  0.00    +0.075 A 
ATOM     32  C   UNL     1      -3.193   4.630   5.227  0.00  0.00    +0.053 A 
ATOM     33  N   UNL     1      -3.687   3.384   4.898  0.00  0.00    -0.322 N 
ATOM     34  H   UNL     1      -4.119   2.847   5.580  0.00  0.00    +0.169 HD
ATOM     35  C   UNL     1      -3.579   2.905   3.647  0.00  0.00    +0.251 A 
ATOM     36  O   UNL     1      -4.028   1.801   3.392  0.00  0.00    -0.268 OA
ATOM     37  O   UNL     1      -2.929   6.837   8.106  0.00  0.00    -0.485 OA
ATOM     38  C   UNL     1      -2.087   7.933   8.479  0.00  0.00    +0.270 C 
ATOM     39  C   UNL     1      -2.147   8.986   7.365  0.00  0.00    +0.270 C 
ATOM     40  O   UNL     1      -1.682   8.383   6.153  0.00  0.00    -0.485 OA
ENDBRANCH  24  25
ENDBRANCH   1  24
TORSDOF 8
