REMARK  Name = ZINC24984728
REMARK  7 active torsions:
REMARK  status: ('A' for Active; 'I' for Inactive)
REMARK    1  A    between atoms: C_1  and  C_2
REMARK    2  A    between atoms: C_2  and  C_4
REMARK    3  A    between atoms: C_2  and  N_22
REMARK    4  A    between atoms: N_6  and  C_7
REMARK    5  A    between atoms: C_10  and  S_13
REMARK    6  A    between atoms: S_13  and  N_16
REMARK    7  A    between atoms: C_25  and  C_28
REMARK                            x       y       z     vdW  Elec       q    Type
REMARK                         _______ _______ _______ _____ _____    ______ ____
ROOT
ATOM      1  C   UNL     1       1.710   2.715  -1.272  0.00  0.00    -0.004 C 
ATOM      2  C   UNL     1       1.440   1.893  -0.010  0.00  0.00    +0.017 C 
ENDROOT
BRANCH   2   3
ATOM      3  N   UNL     1       2.431   0.813   0.092  0.00  0.00    +0.390 N 
ATOM      4  C   UNL     1       2.253   0.050   1.338  0.00  0.00    -0.073 C 
ATOM      5  C   UNL     1       3.080  -1.235   1.244  0.00  0.00    +0.017 C 
ATOM      6  C   UNL     1       4.479  -0.905   0.801  0.00  0.00    -0.046 C 
ATOM      7  C   UNL     1       4.796   0.246   0.247  0.00  0.00    -0.041 C 
ATOM      8  C   UNL     1       3.798   1.344   0.012  0.00  0.00    -0.050 C 
ATOM      9  H   UNL     1       2.273   0.136  -0.760  0.00  0.00    -0.080 HD
BRANCH   6  10
ATOM     10  C   UNL     1       5.539  -1.913   0.995  0.00  0.00    +0.003 A 
ATOM     11  C   UNL     1       6.145  -2.239   2.165  0.00  0.00    +0.091 A 
ATOM     12  N   UNL     1       7.071  -3.217   1.948  0.00  0.00    -0.360 N 
ATOM     13  H   UNL     1       7.659  -3.615   2.789  0.00  0.00    +0.165 HD
ATOM     14  C   UNL     1       7.104  -3.554   0.612  0.00  0.00    +0.047 A 
ATOM     15  C   UNL     1       6.151  -2.757  -0.046  0.00  0.00    +0.007 A 
ATOM     16  C   UNL     1       5.964  -2.886  -1.421  0.00  0.00    +0.010 A 
ATOM     17  C   UNL     1       6.716  -3.796  -2.130  0.00  0.00    +0.001 A 
ATOM     18  C   UNL     1       7.658  -4.582  -1.481  0.00  0.00    +0.002 A 
ATOM     19  C   UNL     1       7.854  -4.466  -0.122  0.00  0.00    +0.026 A 
ENDBRANCH   6  10
ENDBRANCH   2   3
BRANCH   2  20
ATOM     20  C   UNL     1       0.057   1.301  -0.082  0.00  0.00    +0.203 C 
ATOM     21  O   UNL     1      -0.102   0.185  -0.530  0.00  0.00    -0.277 OA
ATOM     22  N   UNL     1      -1.005   2.013   0.346  0.00  0.00    -0.287 N 
ATOM     23  H   UNL     1      -0.872   3.054   0.674  0.00  0.00    +0.155 HD
BRANCH  22  24
ATOM     24  C   UNL     1      -2.275   1.427   0.372  0.00  0.00    +0.033 A 
ATOM     25  C   UNL     1      -2.646   0.524  -0.616  0.00  0.00    +0.025 A 
ATOM     26  C   UNL     1      -3.898  -0.057  -0.583  0.00  0.00    +0.030 A 
ATOM     27  C   UNL     1      -4.787   0.269   0.424  0.00  0.00    +0.106 A 
ATOM     28  C   UNL     1      -4.424   1.173   1.405  0.00  0.00    +0.030 A 
ATOM     29  C   UNL     1      -3.171   1.753   1.382  0.00  0.00    +0.025 A 
BRANCH  27  30
ATOM     30  S   UNL     1      -6.388  -0.468   0.457  0.00  0.00    +0.061 S 
ATOM     31  O   UNL     1      -6.287  -1.690  -0.261  0.00  0.00    -0.153 OA
ATOM     32  O   UNL     1      -6.833  -0.411   1.805  0.00  0.00    -0.153 OA
BRANCH  30  33
ATOM     33  N   UNL     1      -7.396   0.512  -0.416  0.00  0.00    -0.177 NA
ATOM     34  C   UNL     1      -8.135   1.601   0.239  0.00  0.00    +0.109 C 
ATOM     35  C   UNL     1      -7.843   2.909  -0.511  0.00  0.00    +0.017 C 
ATOM     36  C   UNL     1      -8.176   2.727  -1.993  0.00  0.00    +0.003 C 
ATOM     37  C   UNL     1      -7.293   1.626  -2.585  0.00  0.00    +0.017 C 
ATOM     38  C   UNL     1      -7.575   0.306  -1.860  0.00  0.00    +0.109 C 
ENDBRANCH  30  33
ENDBRANCH  27  30
ENDBRANCH  22  24
ENDBRANCH   2  20
TORSDOF 6
