REMARK  Name = ZINC39710530
REMARK  13 active torsions:
REMARK  status: ('A' for Active; 'I' for Inactive)
REMARK    1  A    between atoms: C_1  and  C_2
REMARK    2  A    between atoms: C_2  and  C_3
REMARK    3  A    between atoms: C_10  and  C_15
REMARK    4  A    between atoms: C_15  and  C_17
REMARK    5  A    between atoms: C_15  and  N_27
REMARK    6  A    between atoms: N_22  and  C_23
REMARK    7  A    between atoms: C_23  and  C_24
REMARK    8  A    between atoms: C_23  and  C_25
REMARK    9  A    between atoms: C_23  and  C_26
REMARK   10  A    between atoms: N_27  and  C_28
REMARK   11  A    between atoms: N_27  and  C_35
REMARK   12  A    between atoms: C_28  and  C_29
REMARK   13  A    between atoms: C_35  and  C_36
REMARK                            x       y       z     vdW  Elec       q    Type
REMARK                         _______ _______ _______ _____ _____    ______ ____
ROOT
ATOM      1  C   UNL     1       0.333  -3.335   6.311  0.00  0.00    -0.009 C 
ENDROOT
BRANCH   1   9
ATOM      2  C   UNL     1       0.954  -2.777   0.536  0.00  0.00    -0.047 A 
ATOM      3  C   UNL     1       2.344  -2.715   0.643  0.00  0.00    +0.005 A 
ATOM      4  C   UNL     1       2.981  -2.546   1.832  0.00  0.00    +0.024 A 
ATOM      5  C   UNL     1       2.245  -2.425   3.025  0.00  0.00    +0.040 A 
ATOM      6  N   UNL     1       2.880  -2.260   4.185  0.00  0.00    -0.285 N 
ATOM      7  C   UNL     1       2.251  -2.140   5.342  0.00  0.00    +0.223 C 
ATOM      8  O   UNL     1       2.885  -1.991   6.370  0.00  0.00    -0.275 OA
ATOM      9  C   UNL     1       0.740  -2.189   5.383  0.00  0.00    +0.088 C 
ATOM     10  C   UNL     1       0.013  -2.377   4.066  0.00  0.00    -0.006 C 
ATOM     11  C   UNL     1       0.775  -2.488   2.942  0.00  0.00    -0.007 A 
ATOM     12  C   UNL     1       0.155  -2.666   1.628  0.00  0.00    +0.013 A 
ATOM     13  H   UNL     1       3.849  -2.225   4.181  0.00  0.00    +0.155 HD
BRANCH   2  15
ATOM     14  C   UNL     1       0.070  -1.599  -1.458  0.00  0.00    +0.009 C 
ATOM     15  C   UNL     1       0.327  -2.966  -0.821  0.00  0.00    +0.032 C 
ENDBRANCH   2  15
ENDBRANCH   1   9
BRANCH   1  16
ATOM     16  C   UNL     1      -1.161  -3.230   6.627  0.00  0.00    +0.205 C 
ATOM     17  N   UNL     1      -1.636  -4.459   7.276  0.00  0.00    -0.152 NA
ATOM     18  N   UNL     1      -2.503  -4.974   6.568  0.00  0.00    -0.070 NA
ATOM     19  N   UNL     1      -2.755  -4.249   5.404  0.00  0.00    -0.179 N 
ATOM     20  N   UNL     1      -1.947  -3.139   5.379  0.00  0.00    -0.183 NA
ATOM     21  H   UNL     1      -3.400  -4.489   4.721  0.00  0.00    +0.191 HD
BRANCH  20  22
ATOM     22  C   UNL     1      -2.743  -1.905   5.346  0.00  0.00    +0.035 C 
ATOM     23  C   UNL     1      -1.833  -0.704   5.610  0.00  0.00    +0.029 C 
ATOM     24  C   UNL     1      -3.398  -1.757   3.972  0.00  0.00    +0.029 C 
ATOM     25  C   UNL     1      -3.827  -1.970   6.424  0.00  0.00    +0.029 C 
ENDBRANCH  20  22
ENDBRANCH   1  16
BRANCH   1  26
ATOM     26  N   UNL     1       1.104  -3.253   7.559  0.00  0.00    +0.390 N 
ATOM     27  H   UNL     1       2.090  -3.228   7.344  0.00  0.00    -0.080 HD
BRANCH  26  28
ATOM     28  C   UNL     1       0.815  -4.428   8.392  0.00  0.00    -0.042 C 
BRANCH  28  29
ATOM     29  C   UNL     1       1.345  -5.666   7.715  0.00  0.00    -0.064 A 
ATOM     30  C   UNL     1       0.572  -6.326   6.777  0.00  0.00    +0.002 A 
ATOM     31  C   UNL     1       1.058  -7.461   6.156  0.00  0.00    +0.000 A 
ATOM     32  C   UNL     1       2.317  -7.937   6.473  0.00  0.00    +0.000 A 
ATOM     33  C   UNL     1       3.089  -7.277   7.410  0.00  0.00    +0.000 A 
ATOM     34  C   UNL     1       2.605  -6.139   8.027  0.00  0.00    +0.002 A 
ENDBRANCH  28  29
ENDBRANCH  26  28
BRANCH  26  35
ATOM     35  C   UNL     1       0.730  -2.033   8.287  0.00  0.00    -0.040 C 
BRANCH  35  36
ATOM     36  C   UNL     1       1.624  -1.872   9.489  0.00  0.00    -0.046 A 
ATOM     37  C   UNL     1       1.270  -2.432  10.707  0.00  0.00    +0.005 A 
ATOM     38  C   UNL     1       2.123  -2.257  11.786  0.00  0.00    +0.020 A 
ATOM     39  C   UNL     1       3.289  -1.536  11.613  0.00  0.00    +0.111 A 
ATOM     40  N   UNL     1       3.594  -1.017  10.439  0.00  0.00    -0.263 NA
ATOM     41  C   UNL     1       2.809  -1.168   9.390  0.00  0.00    +0.112 A 
ENDBRANCH  35  36
ENDBRANCH  26  35
ENDBRANCH   1  26
TORSDOF 9
