REMARK  Name = ZINC08920083
REMARK  8 active torsions:
REMARK  status: ('A' for Active; 'I' for Inactive)
REMARK    1  A    between atoms: C_1  and  C_2
REMARK    2  A    between atoms: N_8  and  S_9
REMARK    3  A    between atoms: S_9  and  C_12
REMARK    4  A    between atoms: C_15  and  C_18
REMARK    5  A    between atoms: N_20  and  C_21
REMARK    6  A    between atoms: C_22  and  C_31
REMARK    7  A    between atoms: N_27  and  C_30
REMARK    8  A    between atoms: N_33  and  C_34
REMARK                            x       y       z     vdW  Elec       q    Type
REMARK                         _______ _______ _______ _____ _____    ______ ____
ROOT
ATOM      1  C   UNL     1      -2.692   1.355   6.787  0.00  0.00    +0.249 C 
ATOM      2  O   UNL     1      -3.574   2.184   6.671  0.00  0.00    -0.270 OA
ATOM      3  N   UNL     1      -2.608   0.614   7.909  0.00  0.00    -0.275 N 
ATOM      4  H   UNL     1      -1.904  -0.048   8.002  0.00  0.00    +0.156 HD
ENDROOT
BRANCH   3   5
ATOM      5  C   UNL     1      -3.526   0.796   8.931  0.00  0.00    +0.085 A 
ATOM      6  C   UNL     1      -3.589   0.134  10.149  0.00  0.00    +0.068 A 
ATOM      7  C   UNL     1      -4.657   0.515  11.052  0.00  0.00    -0.027 A 
ATOM      8  C   UNL     1      -5.468   1.487  10.576  0.00  0.00    -0.021 A 
ATOM      9  S   UNL     1      -4.812   1.875   8.982  0.00  0.00    -0.079 S 
ATOM     10  C   UNL     1      -6.650   2.074  11.281  0.00  0.00    -0.036 C 
ATOM     11  N   UNL     1      -7.018   1.179  12.394  0.00  0.00    +0.381 N 
ATOM     12  C   UNL     1      -5.827   0.874  13.197  0.00  0.00    -0.074 C 
ATOM     13  C   UNL     1      -4.903  -0.080  12.432  0.00  0.00    +0.018 C 
ATOM     14  C   UNL     1      -8.023   1.837  13.239  0.00  0.00    -0.096 C 
ATOM     15  H   UNL     1      -7.401   0.322  12.022  0.00  0.00    -0.082 HD
BRANCH   6  16
ATOM     16  C   UNL     1      -2.619  -0.906  10.506  0.00  0.00    +0.246 C 
ATOM     17  O   UNL     1      -1.591  -0.606  11.085  0.00  0.00    -0.270 OA
ATOM     18  N   UNL     1      -2.866  -2.193  10.193  0.00  0.00    -0.314 N 
ATOM     19  C   UNL     1      -1.897  -3.232  10.550  0.00  0.00    +0.128 C 
ATOM     20  H   UNL     1      -3.685  -2.432   9.732  0.00  0.00    +0.149 HD
ENDBRANCH   6  16
ENDBRANCH   3   5
BRANCH   1  24
ATOM     21  C   UNL     1       0.122   0.795   3.656  0.00  0.00    +0.106 A 
ATOM     22  C   UNL     1      -0.880   1.739   3.520  0.00  0.00    +0.029 A 
ATOM     23  C   UNL     1      -1.798   1.926   4.533  0.00  0.00    +0.015 A 
ATOM     24  C   UNL     1      -1.713   1.160   5.697  0.00  0.00    +0.037 A 
ATOM     25  C   UNL     1      -0.699   0.209   5.827  0.00  0.00    +0.015 A 
ATOM     26  C   UNL     1       0.208   0.029   4.804  0.00  0.00    +0.029 A 
BRANCH  21  27
ATOM     27  S   UNL     1       1.290   0.564   2.357  0.00  0.00    +0.061 S 
ATOM     28  O   UNL     1       2.381  -0.156   2.915  0.00  0.00    -0.153 OA
ATOM     29  O   UNL     1       1.454   1.827   1.728  0.00  0.00    -0.153 OA
BRANCH  27  36
ATOM     30  C   UNL     1       1.418  -2.247   2.663  0.00  0.00    +0.026 C 
ATOM     31  C   UNL     1       0.577  -1.890   1.436  0.00  0.00    +0.077 C 
ATOM     32  C   UNL     1       1.168  -2.564   0.194  0.00  0.00    +0.020 C 
ATOM     33  C   UNL     1       0.408  -2.093  -1.048  0.00  0.00    +0.003 C 
ATOM     34  C   UNL     1       0.564  -0.578  -1.199  0.00  0.00    +0.017 C 
ATOM     35  C   UNL     1      -0.035   0.118   0.027  0.00  0.00    +0.110 C 
ATOM     36  N   UNL     1       0.587  -0.434   1.238  0.00  0.00    -0.174 NA
ENDBRANCH  27  36
ENDBRANCH  21  27
ENDBRANCH   1  24
TORSDOF 5
