REMARK  Name = ZINC63570114
REMARK  10 active torsions:
REMARK  status: ('A' for Active; 'I' for Inactive)
REMARK    1  A    between atoms: C_1  and  C_2
REMARK    2  A    between atoms: C_8  and  C_11
REMARK    3  A    between atoms: C_11  and  C_12
REMARK    4  A    between atoms: C_12  and  N_13
REMARK    5  A    between atoms: C_14  and  C_16
REMARK    6  A    between atoms: C_22  and  C_27
REMARK    7  A    between atoms: C_22  and  C_28
REMARK    8  A    between atoms: N_23  and  C_26
REMARK    9  A    between atoms: N_30  and  C_31
REMARK   10  A    between atoms: C_31  and  C_32
REMARK                            x       y       z     vdW  Elec       q    Type
REMARK                         _______ _______ _______ _____ _____    ______ ____
ROOT
ATOM      1  C   UNL     1      -2.447  -1.951   7.631  0.00  0.00    +0.148 A 
ATOM      2  C   UNL     1      -3.525  -2.197   8.512  0.00  0.00    +0.067 A 
ATOM      3  C   UNL     1      -3.025  -1.986   9.751  0.00  0.00    +0.124 A 
ATOM      4  N   UNL     1      -1.700  -1.629   9.607  0.00  0.00    -0.256 N 
ATOM      5  N   UNL     1      -1.397  -1.624   8.368  0.00  0.00    -0.166 NA
ATOM      6  C   UNL     1      -0.866  -1.329  10.777  0.00  0.00    +0.179 C 
ATOM      7  C   UNL     1      -1.744  -0.750  11.886  0.00  0.00    +0.130 C 
ATOM      8  N   UNL     1      -2.955  -1.530  12.109  0.00  0.00    -0.284 N 
ATOM      9  C   UNL     1      -3.648  -2.080  11.082  0.00  0.00    +0.265 C 
ATOM     10  O   UNL     1      -4.724  -2.622  11.251  0.00  0.00    -0.268 OA
ATOM     11  C   UNL     1      -3.437  -1.723  13.479  0.00  0.00    +0.133 C 
ATOM     12  C   UNL     1      -2.138   0.679  11.508  0.00  0.00    +0.044 C 
ENDROOT
BRANCH   1  14
ATOM     13  N   UNL     1      -1.373  -1.791   5.437  0.00  0.00    -0.310 N 
ATOM     14  C   UNL     1      -2.483  -2.049   6.158  0.00  0.00    +0.264 C 
ATOM     15  O   UNL     1      -3.514  -2.361   5.595  0.00  0.00    -0.268 OA
ATOM     16  H   UNL     1      -0.551  -1.542   5.887  0.00  0.00    +0.149 HD
BRANCH  13  17
ATOM     17  C   UNL     1      -1.410  -1.888   3.976  0.00  0.00    +0.109 C 
BRANCH  17  18
ATOM     18  C   UNL     1      -0.030  -1.548   3.408  0.00  0.00    +0.052 C 
BRANCH  18  26
ATOM     19  C   UNL     1      -0.958   3.046   0.289  0.00  0.00    +0.044 C 
ATOM     20  C   UNL     1      -0.704   1.571   0.111  0.00  0.00    -0.050 A 
ATOM     21  C   UNL     1      -0.658   1.038  -1.185  0.00  0.00    +0.005 A 
ATOM     22  C   UNL     1      -0.435  -0.271  -1.427  0.00  0.00    +0.026 A 
ATOM     23  C   UNL     1      -0.234  -1.177  -0.350  0.00  0.00    +0.043 A 
ATOM     24  N   UNL     1      -0.006  -2.468  -0.327  0.00  0.00    -0.380 N 
ATOM     25  C   UNL     1       0.121  -2.895   1.071  0.00  0.00    +0.144 C 
ATOM     26  C   UNL     1      -0.068  -1.648   1.905  0.00  0.00    -0.040 C 
ATOM     27  C   UNL     1      -0.278  -0.639   1.028  0.00  0.00    -0.001 A 
ATOM     28  C   UNL     1      -0.520   0.797   1.205  0.00  0.00    +0.013 A 
ATOM     29  H   UNL     1       0.067  -3.044  -1.104  0.00  0.00    +0.160 HD
ENDBRANCH  18  26
ENDBRANCH  17  18
ENDBRANCH  13  17
ENDBRANCH   1  14
BRANCH   7  30
ATOM     30  C   UNL     1      -0.948  -0.710  13.165  0.00  0.00    +0.239 C 
ATOM     31  O   UNL     1      -0.512   0.345  13.575  0.00  0.00    -0.273 OA
ATOM     32  N   UNL     1      -0.721  -1.846  13.853  0.00  0.00    -0.309 N 
ATOM     33  H   UNL     1      -1.005  -2.699  13.489  0.00  0.00    +0.149 HD
BRANCH  32  34
ATOM     34  C   UNL     1      -0.046  -1.794  15.152  0.00  0.00    +0.139 C 
BRANCH  34  35
ATOM     35  C   UNL     1       0.084  -3.188  15.708  0.00  0.00    -0.030 A 
ATOM     36  C   UNL     1      -0.918  -3.711  16.504  0.00  0.00    +0.005 A 
ATOM     37  C   UNL     1      -0.799  -4.990  17.014  0.00  0.00    +0.000 A 
ATOM     38  C   UNL     1       0.322  -5.747  16.728  0.00  0.00    +0.000 A 
ATOM     39  C   UNL     1       1.323  -5.225  15.931  0.00  0.00    +0.000 A 
ATOM     40  C   UNL     1       1.202  -3.947  15.417  0.00  0.00    +0.005 A 
ENDBRANCH  34  35
ENDBRANCH  32  34
ENDBRANCH   7  30
TORSDOF 7
