REMARK  Name = ZINC45915193
REMARK  10 active torsions:
REMARK  status: ('A' for Active; 'I' for Inactive)
REMARK    1  A    between atoms: C_1  and  C_2
REMARK    2  A    between atoms: C_2  and  N_3
REMARK    3  A    between atoms: C_4  and  C_26
REMARK    4  A    between atoms: C_7  and  S_8
REMARK    5  A    between atoms: S_8  and  C_9
REMARK    6  A    between atoms: C_9  and  C_10
REMARK    7  A    between atoms: C_13  and  C_15
REMARK    8  A    between atoms: N_17  and  C_18
REMARK    9  A    between atoms: C_18  and  C_19
REMARK   10  A    between atoms: C_22  and  C_25
REMARK                            x       y       z     vdW  Elec       q    Type
REMARK                         _______ _______ _______ _____ _____    ______ ____
ROOT
ATOM      1  C   UNL     1      -2.881  -0.656   5.244  0.00  0.00    +0.113 A 
ATOM      2  N   UNL     1      -3.887  -1.506   5.295  0.00  0.00    -0.145 NA
ATOM      3  N   UNL     1      -5.004  -1.193   5.798  0.00  0.00    -0.136 NA
ATOM      4  C   UNL     1      -5.163   0.033   6.288  0.00  0.00    +0.187 A 
ATOM      5  S   UNL     1      -3.542   0.714   5.969  0.00  0.00    -0.045 S 
ENDROOT
BRANCH   4   6
ATOM      6  C   UNL     1      -6.341   0.652   6.919  0.00  0.00    +0.271 C 
ATOM      7  O   UNL     1      -6.288   1.803   7.308  0.00  0.00    -0.268 OA
ATOM      8  N   UNL     1      -7.478  -0.057   7.066  0.00  0.00    -0.305 N 
ATOM      9  H   UNL     1      -7.521  -0.975   6.755  0.00  0.00    +0.149 HD
BRANCH   8  10
ATOM     10  C   UNL     1      -8.650   0.559   7.694  0.00  0.00    +0.140 C 
BRANCH  10  11
ATOM     11  C   UNL     1      -9.779  -0.438   7.736  0.00  0.00    -0.030 A 
ATOM     12  C   UNL     1     -10.669  -0.519   6.681  0.00  0.00    +0.005 A 
ATOM     13  C   UNL     1     -11.705  -1.433   6.719  0.00  0.00    +0.003 A 
ATOM     14  C   UNL     1     -11.851  -2.266   7.813  0.00  0.00    -0.050 A 
ATOM     15  C   UNL     1     -10.961  -2.186   8.867  0.00  0.00    +0.003 A 
ATOM     16  C   UNL     1      -9.923  -1.274   8.827  0.00  0.00    +0.005 A 
ATOM     17  C   UNL     1     -12.982  -3.262   7.855  0.00  0.00    +0.044 C 
ENDBRANCH  10  11
ENDBRANCH   8  10
ENDBRANCH   4   6
BRANCH   1  18
ATOM     18  C   UNL     1      -1.495  -0.860   4.688  0.00  0.00    +0.142 C 
BRANCH  18  19
ATOM     19  S   UNL     1      -1.472  -0.391   2.936  0.00  0.00    -0.079 S 
BRANCH  19  24
ATOM     20  N   UNL     1       0.714  -0.477   1.192  0.00  0.00    -0.302 N 
ATOM     21  C   UNL     1       2.039  -0.834   1.281  0.00  0.00    +0.165 A 
ATOM     22  N   UNL     1       2.251  -1.225   2.516  0.00  0.00    -0.128 NA
ATOM     23  N   UNL     1       1.165  -1.139   3.196  0.00  0.00    -0.122 NA
ATOM     24  C   UNL     1       0.193  -0.681   2.438  0.00  0.00    +0.192 A 
BRANCH  21  25
ATOM     25  C   UNL     1       3.037  -0.786   0.191  0.00  0.00    +0.019 A 
ATOM     26  C   UNL     1       2.810   0.011  -0.932  0.00  0.00    +0.013 A 
ATOM     27  C   UNL     1       3.744   0.052  -1.946  0.00  0.00    +0.021 A 
ATOM     28  C   UNL     1       4.906  -0.696  -1.851  0.00  0.00    +0.041 A 
ATOM     29  C   UNL     1       5.137  -1.488  -0.739  0.00  0.00    +0.021 A 
ATOM     30  C   UNL     1       4.213  -1.532   0.284  0.00  0.00    +0.013 A 
ATOM     31 CL   UNL     1       6.077  -0.639  -3.131  0.00  0.00    -0.084 Cl
ENDBRANCH  21  25
BRANCH  20  33
ATOM     32  C   UNL     1       0.007   1.555   0.028  0.00  0.00    +0.027 C 
ATOM     33  C   UNL     1       0.009   0.025   0.010  0.00  0.00    +0.122 C 
ENDBRANCH  20  33
ENDBRANCH  19  24
ENDBRANCH  18  19
ENDBRANCH   1  18
TORSDOF 8
