REMARK  Name = ZINC04091620
REMARK  7 active torsions:
REMARK  status: ('A' for Active; 'I' for Inactive)
REMARK    1  A    between atoms: C_1  and  C_2
REMARK    2  A    between atoms: C_5  and  C_8
REMARK    3  A    between atoms: C_10  and  C_17
REMARK    4  A    between atoms: C_11  and  C_16
REMARK    5  A    between atoms: C_17  and  O_19
REMARK    6  A    between atoms: O_19  and  C_20
REMARK    7  A    between atoms: C_25  and  C_27
REMARK                            x       y       z     vdW  Elec       q    Type
REMARK                         _______ _______ _______ _____ _____    ______ ____
ROOT
ATOM      1  C   UNL     1      -2.978   5.959  -2.965  0.00  0.00    +0.143 C 
ATOM      2  C   UNL     1      -3.558   4.587  -3.243  0.00  0.00    +0.078 C 
ATOM      3  C   UNL     1      -4.164   4.389  -4.433  0.00  0.00    +0.021 C 
ATOM      4  N   UNL     1      -4.246   5.392  -5.357  0.00  0.00    -0.273 N 
ATOM      5  C   UNL     1      -3.747   6.620  -5.167  0.00  0.00    +0.304 C 
ATOM      6  O   UNL     1      -3.868   7.447  -6.049  0.00  0.00    -0.252 OA
ATOM      7  N   UNL     1      -3.114   6.968  -4.029  0.00  0.00    -0.288 N 
ATOM      8  C   UNL     1      -4.759   3.041  -4.748  0.00  0.00    +0.061 C 
ATOM      9  H   UNL     1      -4.690   5.204  -6.198  0.00  0.00    +0.156 HD
ATOM     10  H   UNL     1      -2.760   7.864  -3.912  0.00  0.00    +0.151 HD
ENDROOT
BRANCH   1  15
ATOM     11  C   UNL     1       2.656   5.321  -1.849  0.00  0.00    +0.044 C 
ATOM     12  C   UNL     1       1.186   5.487  -2.140  0.00  0.00    -0.050 A 
ATOM     13  C   UNL     1       0.288   5.638  -1.100  0.00  0.00    +0.004 A 
ATOM     14  C   UNL     1      -1.059   5.792  -1.367  0.00  0.00    +0.006 A 
ATOM     15  C   UNL     1      -1.509   5.792  -2.674  0.00  0.00    -0.022 A 
ATOM     16  C   UNL     1      -0.612   5.635  -3.714  0.00  0.00    +0.006 A 
ATOM     17  C   UNL     1       0.736   5.488  -3.447  0.00  0.00    +0.004 A 
ENDBRANCH   1  15
BRANCH   2  18
ATOM     18  C   UNL     1      -3.472   3.549  -2.285  0.00  0.00    +0.339 C 
ATOM     19  O   UNL     1      -4.046   2.494  -2.478  0.00  0.00    -0.245 OA
BRANCH  18  20
ATOM     20  O   UNL     1      -2.755   3.730  -1.157  0.00  0.00    -0.458 OA
BRANCH  20  21
ATOM     21  C   UNL     1      -2.712   2.640  -0.233  0.00  0.00    +0.180 C 
ATOM     22  C   UNL     1      -1.500   1.732  -0.527  0.00  0.00    +0.045 C 
ATOM     23  C   UNL     1      -0.953   1.274   0.837  0.00  0.00    +0.004 C 
ATOM     24  C   UNL     1      -1.851   1.920   1.912  0.00  0.00    +0.007 C 
ATOM     25  C   UNL     1      -2.459   3.157   1.205  0.00  0.00    +0.027 C 
ATOM     26  C   UNL     1      -3.773   3.576   1.868  0.00  0.00    +0.011 C 
ENDBRANCH  20  21
ENDBRANCH  18  20
ENDBRANCH   2  18
TORSDOF 4
