REMARK  Name = ZINC05709740
REMARK  11 active torsions:
REMARK  status: ('A' for Active; 'I' for Inactive)
REMARK    1  A    between atoms: C_1  and  C_2
REMARK    2  A    between atoms: C_2  and  C_3
REMARK    3  A    between atoms: C_6  and  C_25
REMARK    4  A    between atoms: C_7  and  C_9
REMARK    5  A    between atoms: C_9  and  C_11
REMARK    6  A    between atoms: C_11  and  O_12
REMARK    7  A    between atoms: O_12  and  C_13
REMARK    8  A    between atoms: C_13  and  C_15
REMARK    9  A    between atoms: C_18  and  N_24
REMARK   10  A    between atoms: C_19  and  N_21
REMARK   11  A    between atoms: C_25  and  C_26
REMARK                            x       y       z     vdW  Elec       q    Type
REMARK                         _______ _______ _______ _____ _____    ______ ____
ROOT
ATOM      1  O   UNL     1       6.273  -1.565  -1.746  0.00  0.00    -0.453 OA
ENDROOT
BRANCH   1   2
ATOM      2  C   UNL     1       7.036  -1.425  -0.644  0.00  0.00    +0.340 C 
ATOM      3  O   UNL     1       6.608  -0.819   0.318  0.00  0.00    -0.245 OA
BRANCH   2   4
ATOM      4  C   UNL     1       8.390  -2.007  -0.606  0.00  0.00    +0.061 A 
ATOM      5  C   UNL     1       8.886  -2.700  -1.715  0.00  0.00    +0.017 A 
ATOM      6  C   UNL     1      10.141  -3.238  -1.680  0.00  0.00    +0.026 A 
ATOM      7  C   UNL     1      10.930  -3.100  -0.541  0.00  0.00    +0.055 A 
ATOM      8  C   UNL     1      10.444  -2.413   0.568  0.00  0.00    +0.147 A 
ATOM      9  C   UNL     1       9.183  -1.862   0.536  0.00  0.00    +0.049 A 
BRANCH   8  10
ATOM     10  N   UNL     1      11.286  -2.268   1.777  0.00  0.00    +0.058 N 
ATOM     11  O   UNL     1      10.782  -2.328   2.874  0.00  0.00    -0.126 OA
ATOM     12  O   UNL     1      12.476  -2.089   1.667  0.00  0.00    -0.126 OA
ENDBRANCH   8  10
BRANCH   7  13
ATOM     13  N   UNL     1      12.206  -3.651  -0.511  0.00  0.00    -0.356 N 
ATOM     14  H   UNL     1      12.600  -4.006  -1.323  0.00  0.00    +0.142 HD
ATOM     15  H   UNL     1      12.703  -3.680   0.322  0.00  0.00    +0.142 HD
ENDBRANCH   7  13
ENDBRANCH   2   4
ENDBRANCH   1   2
BRANCH   1  16
ATOM     16  C   UNL     1       4.972  -0.976  -1.713  0.00  0.00    +0.311 C 
BRANCH  16  17
ATOM     17  C   UNL     1       4.271  -1.233  -3.022  0.00  0.00    +0.201 C 
ATOM     18  O   UNL     1       4.830  -1.859  -3.897  0.00  0.00    -0.288 OA
BRANCH  17  23
ATOM     19  C   UNL     1       1.020   0.560  -2.486  0.00  0.00    -0.047 A 
ATOM     20  C   UNL     1       0.339   0.233  -3.647  0.00  0.00    +0.004 A 
ATOM     21  C   UNL     1       0.935  -0.570  -4.604  0.00  0.00    +0.004 A 
ATOM     22  C   UNL     1       2.213  -1.050  -4.408  0.00  0.00    -0.037 A 
ATOM     23  C   UNL     1       2.907  -0.724  -3.239  0.00  0.00    +0.024 A 
ATOM     24  C   UNL     1       2.300   0.093  -2.279  0.00  0.00    +0.015 A 
BRANCH  19  26
ATOM     25  C   UNL     1       0.673   2.903  -1.751  0.00  0.00    +0.009 C 
ATOM     26  C   UNL     1       0.362   1.435  -1.450  0.00  0.00    +0.032 C 
ENDBRANCH  19  26
BRANCH  22  27
ATOM     27  C   UNL     1       2.859  -1.925  -5.452  0.00  0.00    +0.032 C 
ATOM     28  C   UNL     1       2.830  -3.381  -4.985  0.00  0.00    +0.009 C 
ENDBRANCH  22  27
ENDBRANCH  17  23
ENDBRANCH  16  17
ENDBRANCH   1  16
TORSDOF 9
