REMARK  Name = ZINC13023267
REMARK  10 active torsions:
REMARK  status: ('A' for Active; 'I' for Inactive)
REMARK    1  A    between atoms: C_1  and  C_2
REMARK    2  A    between atoms: C_2  and  C_3
REMARK    3  A    between atoms: C_10  and  C_15
REMARK    4  A    between atoms: C_15  and  C_17
REMARK    5  A    between atoms: C_15  and  N_70
REMARK    6  A    between atoms: N_21  and  C_22
REMARK    7  A    between atoms: C_22  and  C_23
REMARK    8  A    between atoms: N_30  and  C_33
REMARK    9  A    between atoms: C_38  and  O_39
REMARK   10  A    between atoms: O_39  and  C_40
REMARK                            x       y       z     vdW  Elec       q    Type
REMARK                         _______ _______ _______ _____ _____    ______ ____
ROOT
ATOM      1  C   UNL     1       1.062   7.281   0.159  0.00  0.00    +0.039 C 
ENDROOT
BRANCH   1   9
ATOM      2  C   UNL     1      -2.145   2.006   0.571  0.00  0.00    -0.047 A 
ATOM      3  C   UNL     1      -1.048   1.167   0.717  0.00  0.00    +0.005 A 
ATOM      4  C   UNL     1       0.232   1.679   0.721  0.00  0.00    +0.026 A 
ATOM      5  C   UNL     1       0.429   3.049   0.584  0.00  0.00    +0.049 A 
ATOM      6  C   UNL     1      -0.686   3.896   0.442  0.00  0.00    -0.001 A 
ATOM      7  C   UNL     1      -1.976   3.355   0.441  0.00  0.00    +0.013 A 
ATOM      8  C   UNL     1      -0.469   5.337   0.298  0.00  0.00    +0.017 A 
ATOM      9  C   UNL     1       0.803   5.804   0.305  0.00  0.00    +0.011 A 
ATOM     10  C   UNL     1       1.887   4.912   0.450  0.00  0.00    +0.251 A 
ATOM     11  O   UNL     1       3.023   5.353   0.455  0.00  0.00    -0.268 OA
ATOM     12  N   UNL     1       1.698   3.587   0.584  0.00  0.00    -0.322 N 
ATOM     13  H   UNL     1       2.465   3.002   0.681  0.00  0.00    +0.169 HD
BRANCH   2  15
ATOM     14  C   UNL     1      -4.077   1.379   1.993  0.00  0.00    +0.009 C 
ATOM     15  C   UNL     1      -3.534   1.422   0.563  0.00  0.00    +0.032 C 
ENDBRANCH   2  15
ENDBRANCH   1   9
BRANCH   1  21
ATOM     16  C   UNL     1       1.231   7.436   2.570  0.00  0.00    -0.058 C 
ATOM     17  C   UNL     1       2.146   7.868   3.718  0.00  0.00    +0.086 C 
ATOM     18  N   UNL     1       2.418   9.308   3.608  0.00  0.00    -0.331 N 
ATOM     19  C   UNL     1       3.064   9.623   2.326  0.00  0.00    +0.086 C 
ATOM     20  C   UNL     1       2.149   9.190   1.178  0.00  0.00    -0.058 C 
ATOM     21  N   UNL     1       1.901   7.737   1.287  0.00  0.00    +0.391 N 
ATOM     22  H   UNL     1       2.800   7.242   1.256  0.00  0.00    -0.080 HD
BRANCH  18  23
ATOM     23  C   UNL     1       3.195   9.755   4.684  0.00  0.00    +0.072 A 
ATOM     24  C   UNL     1       3.772   8.840   5.553  0.00  0.00    +0.027 A 
ATOM     25  C   UNL     1       4.542   9.284   6.611  0.00  0.00    +0.002 A 
ATOM     26  C   UNL     1       4.731  10.638   6.812  0.00  0.00    +0.004 A 
ATOM     27  C   UNL     1       4.155  11.556   5.954  0.00  0.00    +0.047 A 
ATOM     28  C   UNL     1       3.386  11.120   4.888  0.00  0.00    +0.141 A 
BRANCH  28  29
ATOM     29  O   UNL     1       2.817  12.021   4.043  0.00  0.00    -0.493 OA
ATOM     30  C   UNL     1       3.056  13.404   4.314  0.00  0.00    +0.277 C 
ENDBRANCH  28  29
ENDBRANCH  18  23
ENDBRANCH   1  21
BRANCH   1  31
ATOM     31  C   UNL     1       1.797   7.537  -1.132  0.00  0.00    +0.143 A 
ATOM     32  N   UNL     1       3.064   7.301  -1.371  0.00  0.00    -0.115 NA
ATOM     33  N   UNL     1       3.311   7.651  -2.586  0.00  0.00    -0.023 NA
ATOM     34  N   UNL     1       2.236   8.111  -3.126  0.00  0.00    -0.044 NA
ATOM     35  N   UNL     1       1.281   8.057  -2.261  0.00  0.00    -0.223 N 
BRANCH  35  36
ATOM     36  C   UNL     1      -0.106   8.482  -2.469  0.00  0.00    +0.221 C 
BRANCH  36  37
ATOM     37  C   UNL     1      -0.249   9.934  -2.091  0.00  0.00    +0.126 A 
ATOM     38  C   UNL     1      -0.075  10.982  -2.915  0.00  0.00    +0.046 A 
ATOM     39  C   UNL     1      -0.309  12.148  -2.150  0.00  0.00    +0.041 A 
ATOM     40  C   UNL     1      -0.603  11.742  -0.902  0.00  0.00    +0.195 A 
ATOM     41  O   UNL     1      -0.565  10.400  -0.872  0.00  0.00    -0.466 OA
ENDBRANCH  36  37
ENDBRANCH  35  36
ENDBRANCH   1  31
TORSDOF 8
