REMARK  Name = ZINC09747676
REMARK  11 active torsions:
REMARK  status: ('A' for Active; 'I' for Inactive)
REMARK    1  A    between atoms: C_1  and  C_2
REMARK    2  A    between atoms: C_2  and  C_3
REMARK    3  A    between atoms: C_3  and  N_70
REMARK    4  A    between atoms: C_4  and  C_5
REMARK    5  A    between atoms: C_4  and  N_70
REMARK    6  A    between atoms: C_5  and  C_6
REMARK    7  A    between atoms: C_7  and  C_8
REMARK    8  A    between atoms: C_7  and  N_70
REMARK    9  A    between atoms: C_11  and  C_13
REMARK   10  A    between atoms: C_13  and  N_14
REMARK   11  A    between atoms: C_15  and  C_17
REMARK                            x       y       z     vdW  Elec       q    Type
REMARK                         _______ _______ _______ _____ _____    ______ ____
ROOT
ATOM      1  N   UNL     1     -10.116   5.966   5.000  0.00  0.00    -0.308 N 
ATOM      2  C   UNL     1     -10.146   5.054   5.991  0.00  0.00    +0.218 C 
ATOM      3  O   UNL     1     -11.171   4.864   6.610  0.00  0.00    -0.275 OA
ATOM      4  H   UNL     1      -9.295   6.118   4.505  0.00  0.00    +0.149 HD
ENDROOT
BRANCH   2   5
ATOM      5  C   UNL     1      -8.905   4.269   6.330  0.00  0.00    +0.092 C 
ATOM      6  C   UNL     1      -9.208   3.304   7.480  0.00  0.00    +0.016 C 
ATOM      7  C   UNL     1      -7.960   2.469   7.778  0.00  0.00    +0.020 C 
ATOM      8  C   UNL     1      -7.538   1.721   6.511  0.00  0.00    +0.107 C 
ATOM      9  N   UNL     1      -7.258   2.688   5.442  0.00  0.00    -0.307 N 
ATOM     10  C   UNL     1      -8.455   3.469   5.105  0.00  0.00    +0.119 C 
ATOM     11  C   UNL     1      -6.747   2.052   4.318  0.00  0.00    +0.186 A 
ATOM     12  N   UNL     1      -7.186   2.071   3.074  0.00  0.00    -0.124 NA
ATOM     13  N   UNL     1      -6.520   1.360   2.102  0.00  0.00    -0.124 NA
ATOM     14  C   UNL     1      -5.447   0.663   2.418  0.00  0.00    +0.192 A 
ATOM     15  S   UNL     1      -5.323   0.983   4.171  0.00  0.00    -0.015 S 
ATOM     16  N   UNL     1      -4.631  -0.119   1.604  0.00  0.00    -0.249 N 
ATOM     17  C   UNL     1      -4.839  -0.313   0.165  0.00  0.00    +0.116 C 
ATOM     18  C   UNL     1      -3.500  -0.860  -0.376  0.00  0.00    +0.029 C 
ATOM     19  C   UNL     1      -2.899  -1.525   0.884  0.00  0.00    +0.098 C 
ATOM     20  C   UNL     1      -3.548  -0.794   2.038  0.00  0.00    +0.221 C 
ATOM     21  O   UNL     1      -3.152  -0.814   3.184  0.00  0.00    -0.275 OA
ENDBRANCH   2   5
BRANCH   1  22
ATOM     22  C   UNL     1     -11.322   6.729   4.670  0.00  0.00    +0.178 C 
BRANCH  22  26
ATOM     23  C   UNL     1     -10.423   9.479   2.441  0.00  0.00    +0.089 A 
ATOM     24  C   UNL     1     -10.771   8.562   1.520  0.00  0.00    +0.043 A 
ATOM     25  C   UNL     1     -11.158   7.399   2.225  0.00  0.00    +0.046 A 
ATOM     26  C   UNL     1     -11.023   7.675   3.535  0.00  0.00    +0.122 A 
ATOM     27  O   UNL     1     -10.583   8.938   3.660  0.00  0.00    -0.465 OA
BRANCH  23  28
ATOM     28  C   UNL     1      -9.942  10.878   2.154  0.00  0.00    -0.003 C 
BRANCH  28  29
ATOM     29  N   UNL     1     -11.108  11.786   2.123  0.00  0.00    +0.384 N 
ATOM     30  H   UNL     1     -11.657  11.653   2.981  0.00  0.00    -0.081 HD
BRANCH  29  31
ATOM     31  C   UNL     1     -10.652  13.191   2.058  0.00  0.00    -0.078 C 
BRANCH  31  33
ATOM     32  C   UNL     1      -9.846  15.111   3.438  0.00  0.00    +0.002 C 
ATOM     33  C   UNL     1     -10.187  13.620   3.451  0.00  0.00    -0.022 C 
ENDBRANCH  31  33
ENDBRANCH  29  31
BRANCH  29  34
ATOM     34  C   UNL     1     -11.958  11.476   0.955  0.00  0.00    -0.078 C 
BRANCH  34  35
ATOM     35  C   UNL     1     -13.317  12.153   1.144  0.00  0.00    -0.022 C 
ATOM     36  C   UNL     1     -14.213  11.843  -0.057  0.00  0.00    +0.002 C 
ENDBRANCH  34  35
ENDBRANCH  29  34
ENDBRANCH  28  29
ENDBRANCH  23  28
ENDBRANCH  22  26
ENDBRANCH   1  22
TORSDOF 9
