REMARK  Name = ZINC00165273
REMARK  8 active torsions:
REMARK  status: ('A' for Active; 'I' for Inactive)
REMARK    1  A    between atoms: C_1  and  C_2
REMARK    2  A    between atoms: C_2  and  C_19
REMARK    3  A    between atoms: C_8  and  C_15
REMARK    4  A    between atoms: C_9  and  O_14
REMARK    5  A    between atoms: C_10  and  O_13
REMARK    6  A    between atoms: C_15  and  C_16
REMARK    7  A    between atoms: C_15  and  C_17
REMARK    8  A    between atoms: C_15  and  C_18
REMARK                            x       y       z     vdW  Elec       q    Type
REMARK                         _______ _______ _______ _____ _____    ______ ____
ROOT
ATOM      1  C   UNL     1      -2.414   4.035  -0.913  0.00  0.00    +0.056 C 
ATOM      2  C   UNL     1      -1.138   3.190  -0.916  0.00  0.00    +0.112 C 
ATOM      3  C   UNL     1      -1.317   1.990   0.019  0.00  0.00    +0.127 C 
ATOM      4  C   UNL     1      -0.014   1.209   0.009  0.00  0.00    +0.171 C 
ATOM      5  O   UNL     1       0.002  -0.004   0.002  0.00  0.00    -0.292 OA
ATOM      6  C   UNL     1       1.226   2.000   0.001  0.00  0.00    +0.063 A 
ATOM      7  C   UNL     1       2.462   1.390   0.239  0.00  0.00    +0.023 A 
ATOM      8  C   UNL     1       3.604   2.139   0.221  0.00  0.00    +0.004 A 
ATOM      9  C   UNL     1       3.544   3.506  -0.033  0.00  0.00    +0.166 A 
ATOM     10  C   UNL     1       2.323   4.128  -0.268  0.00  0.00    +0.202 A 
ATOM     11  C   UNL     1       1.152   3.380  -0.250  0.00  0.00    +0.177 A 
ATOM     12  O   UNL     1      -0.040   3.984  -0.467  0.00  0.00    -0.481 OA
ATOM     13  C   UNL     1      -0.860   2.690  -2.335  0.00  0.00    +0.056 C 
ENDROOT
BRANCH   8  14
ATOM     14  C   UNL     1       4.936   1.482   0.478  0.00  0.00    -0.009 C 
ATOM     15  C   UNL     1       4.727  -0.013   0.727  0.00  0.00    +0.015 C 
ATOM     16  C   UNL     1       5.843   1.674  -0.739  0.00  0.00    +0.015 C 
ATOM     17  C   UNL     1       5.590   2.117   1.707  0.00  0.00    +0.015 C 
ENDBRANCH   8  14
BRANCH  10  18
ATOM     18  O   UNL     1       2.275   5.465  -0.516  0.00  0.00    -0.501 OA
ATOM     19  H   UNL     1       2.348   5.694  -1.453  0.00  0.00    +0.292 HD
ENDBRANCH  10  18
BRANCH   9  20
ATOM     20  O   UNL     1       4.687   4.238  -0.051  0.00  0.00    -0.503 OA
ATOM     21  H   UNL     1       5.106   4.294  -0.921  0.00  0.00    +0.292 HD
ENDBRANCH   9  20
TORSDOF 3
