REMARK  Name = ZINC12781767
REMARK  10 active torsions:
REMARK  status: ('A' for Active; 'I' for Inactive)
REMARK    1  A    between atoms: C_1  and  C_2
REMARK    2  A    between atoms: C_3  and  C_29
REMARK    3  A    between atoms: N_9  and  C_24
REMARK    4  A    between atoms: C_10  and  S_12
REMARK    5  A    between atoms: S_12  and  C_13
REMARK    6  A    between atoms: C_13  and  C_14
REMARK    7  A    between atoms: N_19  and  C_20
REMARK    8  A    between atoms: C_20  and  C_21
REMARK    9  A    between atoms: C_20  and  C_22
REMARK   10  A    between atoms: C_20  and  C_23
REMARK                            x       y       z     vdW  Elec       q    Type
REMARK                         _______ _______ _______ _____ _____    ______ ____
ROOT
ATOM      1  C   UNL     1      -2.832  -0.054   0.577  0.00  0.00    +0.045 C 
ATOM      2  C   UNL     1      -2.598   1.420   0.373  0.00  0.00    -0.026 A 
ATOM      3  C   UNL     1      -3.631   2.275   0.352  0.00  0.00    -0.008 A 
ATOM      4  S   UNL     1      -2.855   3.858   0.089  0.00  0.00    -0.073 S 
ATOM      5  C   UNL     1      -1.163   3.326   0.015  0.00  0.00    +0.117 A 
ATOM      6  C   UNL     1      -1.250   1.932   0.192  0.00  0.00    +0.075 A 
ATOM      7  C   UNL     1      -0.006   1.225   0.183  0.00  0.00    +0.263 A 
ATOM      8  O   UNL     1       0.017   0.016   0.333  0.00  0.00    -0.267 OA
ATOM      9  N   UNL     1       1.136   1.912   0.002  0.00  0.00    -0.284 N 
ATOM     10  C   UNL     1       1.129   3.266  -0.168  0.00  0.00    +0.173 A 
ATOM     11  N   UNL     1      -0.001   3.943  -0.159  0.00  0.00    -0.216 NA
ATOM     12  C   UNL     1      -5.098   1.969   0.512  0.00  0.00    +0.052 C 
ENDROOT
BRANCH   9  13
ATOM     13  C   UNL     1       2.413   1.193  -0.014  0.00  0.00    +0.093 C 
ATOM     14  C   UNL     1       2.426   0.165  -1.165  0.00  0.00    +0.025 C 
ATOM     15  C   UNL     1       3.189  -1.050  -0.580  0.00  0.00    +0.002 C 
ATOM     16  C   UNL     1       2.695  -1.090   0.888  0.00  0.00    +0.002 C 
ATOM     17  C   UNL     1       2.584   0.395   1.291  0.00  0.00    +0.025 C 
ENDBRANCH   9  13
BRANCH  10  18
ATOM     18  S   UNL     1       2.652   4.121  -0.401  0.00  0.00    -0.078 S 
BRANCH  18  19
ATOM     19  C   UNL     1       2.040   5.817  -0.563  0.00  0.00    +0.173 C 
BRANCH  19  20
ATOM     20  C   UNL     1       3.201   6.752  -0.777  0.00  0.00    +0.231 C 
ATOM     21  O   UNL     1       4.332   6.316  -0.816  0.00  0.00    -0.274 OA
ATOM     22  N   UNL     1       2.984   8.074  -0.924  0.00  0.00    -0.239 N 
ATOM     23  C   UNL     1       4.023   8.911  -1.116  0.00  0.00    +0.306 C 
ATOM     24  O   UNL     1       5.156   8.474  -1.155  0.00  0.00    -0.252 OA
ATOM     25  N   UNL     1       3.805  10.233  -1.263  0.00  0.00    -0.294 N 
ATOM     26  H   UNL     1       2.079   8.423  -0.893  0.00  0.00    +0.159 HD
ATOM     27  H   UNL     1       2.900  10.582  -1.232  0.00  0.00    +0.151 HD
BRANCH  25  28
ATOM     28  C   UNL     1       4.934  11.143  -1.471  0.00  0.00    +0.028 C 
ATOM     29  C   UNL     1       5.681  10.746  -2.747  0.00  0.00    +0.031 C 
ATOM     30  C   UNL     1       4.416  12.576  -1.608  0.00  0.00    +0.031 C 
ATOM     31  C   UNL     1       5.886  11.056  -0.276  0.00  0.00    +0.031 C 
ENDBRANCH  25  28
ENDBRANCH  19  20
ENDBRANCH  18  19
ENDBRANCH  10  18
TORSDOF 5
