REMARK  Name = ZINC14184668
REMARK  4 active torsions:
REMARK  status: ('A' for Active; 'I' for Inactive)
REMARK    1  A    between atoms: C_1  and  C_2
REMARK    2  A    between atoms: N_11  and  C_15
REMARK    3  A    between atoms: C_15  and  N_16
REMARK    4  A    between atoms: C_20  and  C_22
REMARK                            x       y       z     vdW  Elec       q    Type
REMARK                         _______ _______ _______ _____ _____    ______ ____
ROOT
ATOM      1  C   UNL     1      -0.598   1.476   0.164  0.00  0.00    +0.010 C 
ATOM      2  C   UNL     1      -0.718  -0.049   0.212  0.00  0.00    +0.018 C 
ATOM      3  C   UNL     1      -0.197  -0.643  -1.099  0.00  0.00    +0.006 C 
ATOM      4  C   UNL     1      -0.298  -2.169  -1.041  0.00  0.00    +0.000 C 
ATOM      5  C   UNL     1       0.549  -2.695   0.119  0.00  0.00    +0.003 C 
ATOM      6  C   UNL     1       0.031  -2.108   1.435  0.00  0.00    +0.035 C 
ATOM      7  C   UNL     1       0.106  -0.586   1.378  0.00  0.00    +0.115 C 
ATOM      8  C   UNL     1      -0.368   0.015   2.681  0.00  0.00    +0.248 C 
ATOM      9  O   UNL     1      -1.468  -0.089   3.180  0.00  0.00    -0.273 OA
ATOM     10  N   UNL     1       0.691   0.692   3.172  0.00  0.00    -0.211 N 
ATOM     11  C   UNL     1       1.753   0.598   2.364  0.00  0.00    +0.310 C 
ATOM     12  O   UNL     1       2.825   1.124   2.592  0.00  0.00    -0.252 OA
ATOM     13  N   UNL     1       1.502  -0.144   1.268  0.00  0.00    -0.285 N 
ATOM     14  H   UNL     1       2.120  -0.346   0.549  0.00  0.00    +0.151 HD
ENDROOT
BRANCH  10  15
ATOM     15  C   UNL     1       0.678   1.437   4.433  0.00  0.00    +0.205 C 
BRANCH  15  16
ATOM     16  N   UNL     1       1.087   0.549   5.530  0.00  0.00    -0.279 NA
ATOM     17  C   UNL     1      -0.053  -0.260   6.010  0.00  0.00    +0.086 C 
ATOM     18  C   UNL     1       0.194  -0.430   7.530  0.00  0.00    +0.017 C 
ATOM     19  C   UNL     1       0.787   0.954   7.907  0.00  0.00    +0.025 C 
ATOM     20  C   UNL     1       1.624   1.324   6.665  0.00  0.00    +0.088 C 
BRANCH  20  21
ATOM     21  C   UNL     1       1.499   2.799   6.383  0.00  0.00    -0.030 A 
ATOM     22  C   UNL     1       0.249   3.368   6.220  0.00  0.00    +0.005 A 
ATOM     23  C   UNL     1       0.135   4.721   5.961  0.00  0.00    +0.000 A 
ATOM     24  C   UNL     1       1.269   5.505   5.867  0.00  0.00    +0.000 A 
ATOM     25  C   UNL     1       2.518   4.936   6.031  0.00  0.00    +0.000 A 
ATOM     26  C   UNL     1       2.633   3.584   6.294  0.00  0.00    +0.005 A 
ENDBRANCH  20  21
ENDBRANCH  15  16
ENDBRANCH  10  15
TORSDOF 3
