REMARK  Name = ZINC54080078
REMARK  8 active torsions:
REMARK  status: ('A' for Active; 'I' for Inactive)
REMARK    1  A    between atoms: C_1  and  C_2
REMARK    2  A    between atoms: C_4  and  N_13
REMARK    3  A    between atoms: C_7  and  N_8
REMARK    4  A    between atoms: N_8  and  S_9
REMARK    5  A    between atoms: S_9  and  C_12
REMARK    6  A    between atoms: N_13  and  C_14
REMARK    7  A    between atoms: C_14  and  C_16
REMARK    8  A    between atoms: C_14  and  C_17
REMARK                            x       y       z     vdW  Elec       q    Type
REMARK                         _______ _______ _______ _____ _____    ______ ____
ROOT
ATOM      1  C   UNL     1      -0.035   1.794   0.042  0.00  0.00    +0.046 C 
ATOM      2  C   UNL     1       0.129   0.299  -0.060  0.00  0.00    -0.026 A 
ATOM      3  C   UNL     1       0.308  -0.293  -1.295  0.00  0.00    +0.028 A 
ATOM      4  C   UNL     1       0.459  -1.670  -1.389  0.00  0.00    +0.028 A 
ATOM      5  C   UNL     1       0.431  -2.452  -0.241  0.00  0.00    +0.025 A 
ATOM      6  C   UNL     1       0.252  -1.859   0.993  0.00  0.00    +0.026 A 
ATOM      7  C   UNL     1       0.106  -0.482   1.088  0.00  0.00    +0.051 A 
ENDROOT
BRANCH   7   8
ATOM      8  N   UNL     1      -0.069   0.120   2.340  0.00  0.00    -0.221 N 
ATOM      9  H   UNL     1      -0.646   0.894   2.429  0.00  0.00    +0.173 HD
BRANCH   8  10
ATOM     10  S   UNL     1       0.708  -0.492   3.668  0.00  0.00    +0.040 S 
ATOM     11  O   UNL     1       0.381   0.402   4.723  0.00  0.00    -0.155 OA
ATOM     12  O   UNL     1       0.310  -1.855   3.725  0.00  0.00    -0.155 OA
ATOM     13  C   UNL     1       2.474  -0.372   3.272  0.00  0.00    +0.218 C 
ENDBRANCH   8  10
ENDBRANCH   7   8
BRANCH   4  14
ATOM     14  N   UNL     1       0.640  -2.271  -2.640  0.00  0.00    -0.341 N 
ATOM     15  H   UNL     1       0.659  -1.725  -3.442  0.00  0.00    +0.146 HD
BRANCH  14  16
ATOM     16  C   UNL     1       0.800  -3.724  -2.740  0.00  0.00    +0.070 C 
ATOM     17  C   UNL     1      -0.578  -4.387  -2.784  0.00  0.00    +0.028 C 
BRANCH  16  18
ATOM     18  C   UNL     1       1.572  -4.066  -4.015  0.00  0.00    +0.009 C 
ATOM     19  C   UNL     1       1.866  -5.580  -4.065  0.00  0.00    +0.005 C 
ATOM     20  C   UNL     1       3.280  -5.672  -4.690  0.00  0.00    +0.000 C 
ATOM     21  C   UNL     1       4.011  -4.459  -4.063  0.00  0.00    +0.000 C 
ATOM     22  C   UNL     1       2.936  -3.353  -4.014  0.00  0.00    +0.005 C 
ENDBRANCH  16  18
ENDBRANCH  14  16
ENDBRANCH   4  14
TORSDOF 5
