REMARK  Name = ZINC35120508
REMARK  12 active torsions:
REMARK  status: ('A' for Active; 'I' for Inactive)
REMARK    1  A    between atoms: C_1  and  C_2
REMARK    2  A    between atoms: C_2  and  C_3
REMARK    3  A    between atoms: C_3  and  C_4
REMARK    4  A    between atoms: C_4  and  C_5
REMARK    5  A    between atoms: C_5  and  C_6
REMARK    6  A    between atoms: C_9  and  C_13
REMARK    7  A    between atoms: C_13  and  O_15
REMARK    8  A    between atoms: O_15  and  C_16
REMARK    9  A    between atoms: C_16  and  C_17
REMARK   10  A    between atoms: C_17  and  C_18
REMARK   11  A    between atoms: C_17  and  C_19
REMARK   12  A    between atoms: C_20  and  C_22
REMARK                            x       y       z     vdW  Elec       q    Type
REMARK                         _______ _______ _______ _____ _____    ______ ____
ROOT
ATOM      1  C   UNL     1       1.449  -3.998   2.540  0.00  0.00    +0.135 C 
ATOM      2  N   UNL     1       2.146  -4.590   3.702  0.00  0.00    -0.271 N 
ATOM      3  C   UNL     1       1.577  -5.811   4.247  0.00  0.00    +0.196 C 
ATOM      4  C   UNL     1       0.295  -6.298   3.526  0.00  0.00    +0.105 C 
ATOM      5  S   UNL     1      -0.241  -4.719   2.727  0.00  0.00    -0.136 S 
ATOM      6  C   UNL     1       3.250  -4.026   4.230  0.00  0.00    +0.248 C 
ATOM      7  O   UNL     1       3.802  -3.112   3.649  0.00  0.00    -0.270 OA
ENDROOT
BRANCH   6   8
ATOM      8  C   UNL     1       3.791  -4.520   5.514  0.00  0.00    +0.040 A 
ATOM      9  C   UNL     1       3.244  -5.655   6.114  0.00  0.00    +0.013 A 
ATOM     10  C   UNL     1       3.753  -6.112   7.313  0.00  0.00    +0.004 A 
ATOM     11  C   UNL     1       4.803  -5.448   7.921  0.00  0.00    +0.038 A 
ATOM     12  C   UNL     1       5.351  -4.320   7.332  0.00  0.00    +0.124 A 
ATOM     13  C   UNL     1       4.854  -3.856   6.128  0.00  0.00    +0.051 A 
ATOM     14  F   UNL     1       6.375  -3.676   7.931  0.00  0.00    -0.205 F 
ENDBRANCH   6   8
BRANCH   3  15
ATOM     15  C   UNL     1       2.613  -6.902   4.159  0.00  0.00    +0.329 C 
ATOM     16  O   UNL     1       3.701  -6.665   3.691  0.00  0.00    -0.249 OA
BRANCH  15  17
ATOM     17  O   UNL     1       2.327  -8.137   4.602  0.00  0.00    -0.463 OA
BRANCH  17  18
ATOM     18  C   UNL     1       3.357  -9.121   4.488  0.00  0.00    +0.235 C 
BRANCH  18  19
ATOM     19  C   UNL     1       2.850 -10.455   5.040  0.00  0.00    +0.020 C 
ATOM     20  C   UNL     1       1.703 -10.966   4.166  0.00  0.00    +0.010 C 
ATOM     21  C   UNL     1       3.990 -11.476   5.034  0.00  0.00    +0.010 C 
ENDBRANCH  18  19
ENDBRANCH  17  18
ENDBRANCH  15  17
ENDBRANCH   3  15
BRANCH   1  22
ATOM     22  C   UNL     1       1.410  -2.471   2.641  0.00  0.00    +0.033 C 
BRANCH  22  23
ATOM     23  C   UNL     1       0.611  -1.903   1.467  0.00  0.00    +0.003 C 
BRANCH  23  24
ATOM     24  C   UNL     1       0.572  -0.376   1.568  0.00  0.00    -0.000 C 
BRANCH  24  26
ATOM     25  C   UNL     1      -0.266   1.719   0.495  0.00  0.00    +0.004 C 
ATOM     26  C   UNL     1      -0.227   0.192   0.394  0.00  0.00    -0.003 C 
ENDBRANCH  24  26
ENDBRANCH  23  24
ENDBRANCH  22  23
ENDBRANCH   1  22
TORSDOF 9
