REMARK  Name = ZINC48546804
REMARK  5 active torsions:
REMARK  status: ('A' for Active; 'I' for Inactive)
REMARK    1  A    between atoms: C_4  and  C_7
REMARK    2  A    between atoms: C_18  and  N_32
REMARK    3  A    between atoms: C_20  and  O_23
REMARK    4  A    between atoms: O_23  and  C_24
REMARK    5  A    between atoms: C_24  and  C_26
REMARK                            x       y       z     vdW  Elec       q    Type
REMARK                         _______ _______ _______ _____ _____    ______ ____
ROOT
ATOM      1  C   UNL     1       3.711  -0.707  -0.038  0.00  0.00    +0.282 C 
ATOM      2  O   UNL     1       4.444  -0.340  -1.208  0.00  0.00    -0.345 OA
ATOM      3  C   UNL     1       5.694  -1.024  -1.361  0.00  0.00    +0.197 C 
ATOM      4  C   UNL     1       5.421  -2.528  -1.373  0.00  0.00    +0.178 C 
ATOM      5  C   UNL     1       4.663  -2.894  -0.090  0.00  0.00    +0.169 C 
ATOM      6  O   UNL     1       3.466  -2.118  -0.036  0.00  0.00    -0.340 OA
ATOM      7  C   UNL     1       4.351  -4.390  -0.117  0.00  0.00    +0.103 C 
ATOM      8  C   UNL     1       5.673  -5.159  -0.236  0.00  0.00    +0.015 C 
ATOM      9  C   UNL     1       6.432  -4.688  -1.478  0.00  0.00    +0.298 C 
ATOM     10  O   UNL     1       6.636  -3.273  -1.418  0.00  0.00    -0.335 OA
ATOM     11 CL   UNL     1       3.506  -4.860   1.405  0.00  0.00    -0.121 Cl
ENDROOT
BRANCH   1  15
ATOM     12  C   UNL     1      -0.017   1.378   0.010  0.00  0.00    +0.000 A 
ATOM     13  C   UNL     1       1.171   2.086   0.002  0.00  0.00    +0.000 A 
ATOM     14  C   UNL     1       2.377   1.411  -0.013  0.00  0.00    +0.008 A 
ATOM     15  C   UNL     1       2.396   0.029  -0.020  0.00  0.00    +0.008 A 
ATOM     16  C   UNL     1       1.208  -0.679  -0.012  0.00  0.00    +0.008 A 
ATOM     17  C   UNL     1       0.002  -0.004   0.002  0.00  0.00    +0.000 A 
ENDBRANCH   1  15
BRANCH   8  18
ATOM     18  N   UNL     1       5.393  -6.597  -0.352  0.00  0.00    +0.385 N 
ATOM     19  H   UNL     1       4.830  -6.765  -1.172  0.00  0.00    -0.089 HD
ATOM     20  H   UNL     1       6.262  -7.103  -0.430  0.00  0.00    -0.089 HD
ATOM     21  H   UNL     1       4.895  -6.909   0.468  0.00  0.00    -0.089 HD
ENDBRANCH   8  18
BRANCH   9  22
ATOM     22  O   UNL     1       5.675  -5.008  -2.647  0.00  0.00    -0.433 OA
BRANCH  22  23
ATOM     23  C   UNL     1       6.290  -4.851  -3.836  0.00  0.00    +0.341 C 
ATOM     24  O   UNL     1       7.436  -4.453  -3.878  0.00  0.00    -0.245 OA
BRANCH  23  25
ATOM     25  C   UNL     1       5.569  -5.163  -5.087  0.00  0.00    +0.059 A 
ATOM     26  C   UNL     1       4.248  -5.615  -5.041  0.00  0.00    +0.015 A 
ATOM     27  C   UNL     1       3.581  -5.904  -6.213  0.00  0.00    +0.001 A 
ATOM     28  C   UNL     1       4.217  -5.747  -7.432  0.00  0.00    +0.000 A 
ATOM     29  C   UNL     1       5.525  -5.300  -7.484  0.00  0.00    +0.001 A 
ATOM     30  C   UNL     1       6.202  -5.001  -6.320  0.00  0.00    +0.015 A 
ENDBRANCH  23  25
ENDBRANCH  22  23
ENDBRANCH   9  22
TORSDOF 5
