REMARK  Name = ZINC66926321
REMARK  6 active torsions:
REMARK  status: ('A' for Active; 'I' for Inactive)
REMARK    1  A    between atoms: C_1  and  C_2
REMARK    2  A    between atoms: C_7  and  C_8
REMARK    3  A    between atoms: C_11  and  N_13
REMARK    4  A    between atoms: N_16  and  N_17
REMARK    5  A    between atoms: C_18  and  C_20
REMARK    6  A    between atoms: C_20  and  C_21
REMARK                            x       y       z     vdW  Elec       q    Type
REMARK                         _______ _______ _______ _____ _____    ______ ____
ROOT
ATOM      1  N   UNL     1       1.374  -4.817   0.099  0.00  0.00    -0.288 N 
ATOM      2  C   UNL     1       1.512  -6.130  -0.173  0.00  0.00    +0.317 C 
ATOM      3  O   UNL     1       0.529  -6.840  -0.255  0.00  0.00    -0.251 OA
ATOM      4  N   UNL     1       2.740  -6.655  -0.355  0.00  0.00    -0.218 N 
ATOM      5  H   UNL     1       2.159  -4.250   0.164  0.00  0.00    +0.151 HD
ATOM      6  H   UNL     1       2.839  -7.600  -0.550  0.00  0.00    +0.174 HD
ENDROOT
BRANCH   1  17
ATOM      7  C   UNL     1      -0.018   1.503   0.010  0.00  0.00    +0.044 C 
ATOM      8  C   UNL     1       0.002  -0.004   0.002  0.00  0.00    -0.044 A 
ATOM      9  C   UNL     1       0.006  -0.685  -1.201  0.00  0.00    +0.004 A 
ATOM     10  C   UNL     1       0.021  -2.069  -1.208  0.00  0.00    +0.009 A 
ATOM     11  C   UNL     1       0.033  -2.762  -0.018  0.00  0.00    +0.018 A 
ATOM     12  C   UNL     1       0.037  -2.089   1.197  0.00  0.00    +0.129 A 
ATOM     13  C   UNL     1       0.023  -0.696   1.195  0.00  0.00    -0.006 A 
ATOM     14  C   UNL     1       0.024   0.057   2.500  0.00  0.00    +0.048 C 
ATOM     15  O   UNL     1       0.073  -2.960   2.243  0.00  0.00    -0.489 OA
ATOM     16  C   UNL     1      -0.351  -4.258   1.793  0.00  0.00    +0.256 C 
ATOM     17  C   UNL     1       0.040  -4.246   0.296  0.00  0.00    +0.146 C 
ENDBRANCH   1  17
BRANCH   4  18
ATOM     18  N   UNL     1       3.873  -5.837  -0.261  0.00  0.00    -0.233 N 
ATOM     19  C   UNL     1       5.101  -6.362  -0.442  0.00  0.00    +0.234 C 
ATOM     20  O   UNL     1       5.225  -7.543  -0.687  0.00  0.00    -0.274 OA
ATOM     21  H   UNL     1       3.774  -4.892  -0.065  0.00  0.00    +0.173 HD
BRANCH  19  22
ATOM     22  C   UNL     1       6.320  -5.481  -0.341  0.00  0.00    +0.135 C 
BRANCH  22  23
ATOM     23  C   UNL     1       7.557  -6.307  -0.584  0.00  0.00    -0.003 A 
ATOM     24  C   UNL     1       8.253  -6.839   0.485  0.00  0.00    +0.007 A 
ATOM     25  C   UNL     1       9.388  -7.596   0.263  0.00  0.00    +0.000 A 
ATOM     26  C   UNL     1       9.829  -7.822  -1.028  0.00  0.00    +0.003 A 
ATOM     27  C   UNL     1       9.134  -7.291  -2.098  0.00  0.00    +0.038 A 
ATOM     28  C   UNL     1       7.994  -6.537  -1.877  0.00  0.00    +0.127 A 
ATOM     29  F   UNL     1       7.311  -6.021  -2.923  0.00  0.00    -0.205 F 
ENDBRANCH  22  23
ENDBRANCH  19  22
ENDBRANCH   4  18
TORSDOF 4
