REMARK  Name = ZINC28012110
REMARK  8 active torsions:
REMARK  status: ('A' for Active; 'I' for Inactive)
REMARK    1  A    between atoms: C_1  and  C_2
REMARK    2  A    between atoms: C_2  and  C_3
REMARK    3  A    between atoms: C_2  and  C_4
REMARK    4  A    between atoms: C_2  and  C_5
REMARK    5  A    between atoms: C_7  and  C_10
REMARK    6  A    between atoms: C_10  and  S_11
REMARK    7  A    between atoms: S_11  and  C_12
REMARK    8  A    between atoms: C_15  and  C_18
REMARK                            x       y       z     vdW  Elec       q    Type
REMARK                         _______ _______ _______ _____ _____    ______ ____
ROOT
ATOM      1  C   UNL     1      -0.668   3.560   0.028  0.00  0.00    +0.185 A 
ATOM      2  N   UNL     1      -1.135   2.277   0.019  0.00  0.00    -0.201 NA
ATOM      3  H   UNL     1       1.391   4.304   0.020  0.00  0.00    +0.191 HD
ATOM      4  C   UNL     1      -0.018   1.474   0.010  0.00  0.00    +0.182 A 
ATOM      5  N   UNL     1       1.027   2.268   0.014  0.00  0.00    -0.152 NA
ATOM      6  N   UNL     1       0.645   3.496   0.021  0.00  0.00    -0.253 N 
ENDROOT
BRANCH   4   7
ATOM      7  C   UNL     1       0.002  -0.004  -0.002  0.00  0.00    +0.021 A 
ATOM      8  C   UNL     1      -1.195  -0.721   0.012  0.00  0.00    +0.011 A 
ATOM      9  C   UNL     1      -1.169  -2.101  -0.004  0.00  0.00    +0.001 A 
ATOM     10  C   UNL     1       0.040  -2.773  -0.022  0.00  0.00    +0.000 A 
ATOM     11  C   UNL     1       1.230  -2.068  -0.031  0.00  0.00    +0.001 A 
ATOM     12  C   UNL     1       1.218  -0.688  -0.020  0.00  0.00    +0.011 A 
ENDBRANCH   4   7
BRANCH   1  13
ATOM     13  S   UNL     1      -1.642   5.028   0.045  0.00  0.00    -0.079 S 
BRANCH  13  14
ATOM     14  C   UNL     1      -0.331   6.276   0.038  0.00  0.00    +0.157 C 
BRANCH  14  17
ATOM     15  C   UNL     1      -1.778   9.501  -0.552  0.00  0.00    +0.233 A 
ATOM     16  N   UNL     1      -1.278   8.385  -1.026  0.00  0.00    -0.195 NA
ATOM     17  C   UNL     1      -0.947   7.651   0.051  0.00  0.00    +0.182 A 
ATOM     18  N   UNL     1      -1.250   8.348   1.106  0.00  0.00    -0.060 NA
ATOM     19  O   UNL     1      -1.729   9.414   0.781  0.00  0.00    -0.337 OA
BRANCH  15  21
ATOM     20  C   UNL     1      -3.469  10.192  -2.230  0.00  0.00    +0.020 C 
ATOM     21  C   UNL     1      -2.304  10.662  -1.357  0.00  0.00    +0.041 C 
ATOM     22  C   UNL     1      -2.787  11.761  -0.409  0.00  0.00    +0.020 C 
ATOM     23  C   UNL     1      -1.188  11.211  -2.248  0.00  0.00    +0.020 C 
ENDBRANCH  15  21
ENDBRANCH  14  17
ENDBRANCH  13  14
ENDBRANCH   1  13
TORSDOF 5
