REMARK  Name = ZINC36510672
REMARK  25 active torsions:
REMARK  status: ('A' for Active; 'I' for Inactive)
REMARK    1  A    between atoms: C_1  and  C_2
REMARK    2  A    between atoms: C_2  and  C_3
REMARK    3  A    between atoms: C_3  and  C_4
REMARK    4  A    between atoms: C_4  and  C_5
REMARK    5  A    between atoms: C_5  and  C_6
REMARK    6  A    between atoms: C_6  and  N_7
REMARK    7  A    between atoms: N_7  and  C_8
REMARK    8  A    between atoms: C_8  and  C_10
REMARK    9  A    between atoms: C_8  and  C_19
REMARK   10  A    between atoms: C_13  and  N_16
REMARK   11  A    between atoms: N_21  and  C_22
REMARK   12  A    between atoms: C_22  and  C_23
REMARK   13  A    between atoms: C_22  and  C_24
REMARK   14  A    between atoms: C_22  and  C_25
REMARK   15  A    between atoms: C_25  and  C_26
REMARK   16  A    between atoms: C_26  and  C_27
REMARK   17  A    between atoms: C_26  and  C_28
REMARK   18  A    between atoms: C_26  and  C_29
REMARK   19  A    between atoms: C_30  and  C_32
REMARK   20  A    between atoms: C_32  and  C_34
REMARK   21  A    between atoms: C_32  and  C_36
REMARK   22  A    between atoms: C_34  and  C_35
REMARK   23  A    between atoms: C_36  and  C_37
REMARK   24  A    between atoms: C_37  and  C_38
REMARK   25  A    between atoms: C_38  and  C_39
REMARK                            x       y       z     vdW  Elec       q    Type
REMARK                         _______ _______ _______ _____ _____    ______ ____
ROOT
ATOM      1  C   UNL     1      -4.394  -7.040  -0.476  0.00  0.00    +0.192 C 
ENDROOT
BRANCH   1   2
ATOM      2  C   UNL     1      -4.184  -5.548  -0.495  0.00  0.00    -0.018 A 
ATOM      3  C   UNL     1      -2.903  -5.032  -0.552  0.00  0.00    +0.008 A 
ATOM      4  C   UNL     1      -2.710  -3.663  -0.570  0.00  0.00    +0.033 A 
ATOM      5  C   UNL     1      -3.798  -2.811  -0.530  0.00  0.00    +0.126 A 
ATOM      6  C   UNL     1      -5.079  -3.328  -0.474  0.00  0.00    +0.033 A 
ATOM      7  C   UNL     1      -5.272  -4.696  -0.461  0.00  0.00    +0.008 A 
BRANCH   5   8
ATOM      8  N   UNL     1      -3.591  -1.345  -0.548  0.00  0.00    +0.056 N 
ATOM      9  O   UNL     1      -2.471  -0.893  -0.597  0.00  0.00    -0.126 OA
ATOM     10  O   UNL     1      -4.543  -0.600  -0.514  0.00  0.00    -0.126 OA
ENDBRANCH   5   8
ENDBRANCH   1   2
BRANCH   1  11
ATOM     11  C   UNL     1      -4.116  -7.605  -1.845  0.00  0.00    +0.238 C 
ATOM     12  O   UNL     1      -3.324  -8.513  -1.977  0.00  0.00    -0.273 OA
ATOM     13  N   UNL     1      -4.748  -7.099  -2.923  0.00  0.00    -0.308 N 
ATOM     14  H   UNL     1      -5.382  -6.373  -2.817  0.00  0.00    +0.149 HD
BRANCH  13  15
ATOM     15  C   UNL     1      -4.478  -7.648  -4.254  0.00  0.00    +0.030 C 
ATOM     16  C   UNL     1      -3.067  -7.251  -4.692  0.00  0.00    +0.031 C 
ATOM     17  C   UNL     1      -4.588  -9.173  -4.210  0.00  0.00    +0.031 C 
BRANCH  15  18
ATOM     18  C   UNL     1      -5.496  -7.092  -5.251  0.00  0.00    +0.031 C 
BRANCH  18  19
ATOM     19  C   UNL     1      -6.889  -7.107  -4.619  0.00  0.00    -0.036 C 
ATOM     20  C   UNL     1      -7.024  -5.927  -3.654  0.00  0.00    +0.010 C 
ATOM     21  C   UNL     1      -7.949  -6.992  -5.716  0.00  0.00    +0.010 C 
ATOM     22  C   UNL     1      -7.088  -8.417  -3.854  0.00  0.00    +0.010 C 
ENDBRANCH  18  19
ENDBRANCH  15  18
ENDBRANCH  13  15
ENDBRANCH   1  11
BRANCH   1  23
ATOM     23  N   UNL     1      -3.483  -7.649   0.497  0.00  0.00    -0.286 N 
ATOM     24  C   UNL     1      -3.540  -7.285   1.794  0.00  0.00    +0.220 C 
ATOM     25  O   UNL     1      -4.197  -6.320   2.124  0.00  0.00    -0.275 OA
BRANCH  23  26
ATOM     26  C   UNL     1      -2.511  -8.655   0.061  0.00  0.00    +0.109 C 
BRANCH  26  27
ATOM     27  C   UNL     1      -1.342  -7.963  -0.642  0.00  0.00    +0.019 C 
BRANCH  27  28
ATOM     28  C   UNL     1      -0.321  -9.012  -1.085  0.00  0.00    +0.002 C 
BRANCH  28  29
ATOM     29  C   UNL     1       0.848  -8.320  -1.789  0.00  0.00    -0.000 C 
BRANCH  29  31
ATOM     30  C   UNL     1       3.039  -8.677  -2.936  0.00  0.00    +0.004 C 
ATOM     31  C   UNL     1       1.870  -9.369  -2.232  0.00  0.00    -0.003 C 
ENDBRANCH  29  31
ENDBRANCH  28  29
ENDBRANCH  27  28
ENDBRANCH  26  27
ENDBRANCH  23  26
BRANCH  24  32
ATOM     32  C   UNL     1      -2.788  -8.075   2.833  0.00  0.00    +0.075 C 
BRANCH  32  33
ATOM     33  C   UNL     1      -1.285  -7.844   2.660  0.00  0.00    +0.009 C 
ATOM     34  C   UNL     1      -0.991  -6.343   2.717  0.00  0.00    +0.004 C 
ENDBRANCH  32  33
BRANCH  32  35
ATOM     35  C   UNL     1      -3.217  -7.620   4.229  0.00  0.00    +0.013 C 
BRANCH  35  36
ATOM     36  C   UNL     1      -2.472  -8.441   5.284  0.00  0.00    +0.000 C 
BRANCH  36  37
ATOM     37  C   UNL     1      -2.994  -8.077   6.675  0.00  0.00    -0.003 C 
ATOM     38  C   UNL     1      -2.249  -8.898   7.730  0.00  0.00    +0.004 C 
ENDBRANCH  36  37
ENDBRANCH  35  36
ENDBRANCH  32  35
ENDBRANCH  24  32
ENDBRANCH   1  23
TORSDOF 17
