REMARK  Name = ZINC67387206
REMARK  9 active torsions:
REMARK  status: ('A' for Active; 'I' for Inactive)
REMARK    1  A    between atoms: C_3  and  O_10
REMARK    2  A    between atoms: C_6  and  N_7
REMARK    3  A    between atoms: O_10  and  C_11
REMARK    4  A    between atoms: C_11  and  C_12
REMARK    5  A    between atoms: C_12  and  N_13
REMARK    6  A    between atoms: N_13  and  C_14
REMARK    7  A    between atoms: N_13  and  C_21
REMARK    8  A    between atoms: C_14  and  C_15
REMARK    9  A    between atoms: C_21  and  C_22
REMARK                            x       y       z     vdW  Elec       q    Type
REMARK                         _______ _______ _______ _____ _____    ______ ____
ROOT
ATOM      1  N   UNL     1       6.050   3.241   1.092  0.00  0.00    -0.294 NA
ENDROOT
BRANCH   1   2
ATOM      2  C   UNL     1       6.093   2.816  -0.314  0.00  0.00    +0.125 C 
BRANCH   2   3
ATOM      3  C   UNL     1       5.052   1.720  -0.547  0.00  0.00    +0.244 C 
BRANCH   3   4
ATOM      4  O   UNL     1       3.740   2.273  -0.422  0.00  0.00    -0.491 OA
BRANCH   4   7
ATOM      5  C   UNL     1       0.329   1.034  -0.677  0.00  0.00    +0.036 A 
ATOM      6  C   UNL     1       1.392   1.897  -0.494  0.00  0.00    +0.048 A 
ATOM      7  C   UNL     1       2.693   1.426  -0.601  0.00  0.00    +0.121 A 
ATOM      8  C   UNL     1       2.923   0.089  -0.892  0.00  0.00    +0.048 A 
ATOM      9  C   UNL     1       1.856  -0.770  -1.074  0.00  0.00    +0.036 A 
ATOM     10  C   UNL     1       0.561  -0.298  -0.966  0.00  0.00    +0.126 A 
BRANCH  10  11
ATOM     11  N   UNL     1      -0.580  -1.221  -1.161  0.00  0.00    +0.056 N 
ATOM     12  O   UNL     1      -1.713  -0.810  -1.067  0.00  0.00    -0.126 OA
ATOM     13  O   UNL     1      -0.378  -2.386  -1.415  0.00  0.00    -0.126 OA
ENDBRANCH  10  11
ENDBRANCH   4   7
ENDBRANCH   3   4
ENDBRANCH   2   3
ENDBRANCH   1   2
BRANCH   1  14
ATOM     14  C   UNL     1       7.273   3.967   1.460  0.00  0.00    +0.116 C 
BRANCH  14  15
ATOM     15  C   UNL     1       8.423   2.973   1.636  0.00  0.00    +0.132 C 
ATOM     16  C   UNL     1       9.710   3.713   2.081  0.00  0.00    +0.035 C 
ATOM     17  C   UNL     1      10.476   2.567   2.797  0.00  0.00    +0.031 C 
ATOM     18  C   UNL     1       9.328   1.749   3.425  0.00  0.00    +0.160 C 
ATOM     19  O   UNL     1       8.129   2.054   2.700  0.00  0.00    -0.375 OA
ENDBRANCH  14  15
ENDBRANCH   1  14
BRANCH   1  20
ATOM     20  C   UNL     1       4.855   4.052   1.361  0.00  0.00    +0.116 C 
BRANCH  20  21
ATOM     21  C   UNL     1       4.763   4.341   2.860  0.00  0.00    +0.132 C 
ATOM     22  C   UNL     1       3.446   5.092   3.183  0.00  0.00    +0.035 C 
ATOM     23  C   UNL     1       3.247   4.710   4.675  0.00  0.00    +0.031 C 
ATOM     24  C   UNL     1       3.809   3.273   4.723  0.00  0.00    +0.160 C 
ATOM     25  O   UNL     1       4.688   3.113   3.602  0.00  0.00    -0.375 OA
ENDBRANCH  20  21
ENDBRANCH   1  20
TORSDOF 9
