REMARK  Name = ZINC67145303
REMARK  11 active torsions:
REMARK  status: ('A' for Active; 'I' for Inactive)
REMARK    1  A    between atoms: C_1  and  N_2
REMARK    2  A    between atoms: N_2  and  C_3
REMARK    3  A    between atoms: N_2  and  C_25
REMARK    4  A    between atoms: C_3  and  C_4
REMARK    5  A    between atoms: C_4  and  C_5
REMARK    6  A    between atoms: C_5  and  N_6
REMARK    7  A    between atoms: C_7  and  C_9
REMARK    8  A    between atoms: C_9  and  C_10
REMARK    9  A    between atoms: C_10  and  C_11
REMARK   10  A    between atoms: C_11  and  C_12
REMARK   11  A    between atoms: C_12  and  C_13
REMARK                            x       y       z     vdW  Elec       q    Type
REMARK                         _______ _______ _______ _____ _____    ______ ____
ROOT
ATOM      1  N   UNL     1      -0.175  -0.187  -4.885  0.00  0.00    -0.315 N 
ATOM      2  C   UNL     1       0.267  -0.518  -6.115  0.00  0.00    +0.213 C 
ATOM      3  O   UNL     1       1.304  -1.133  -6.242  0.00  0.00    -0.276 OA
ATOM      4  H   UNL     1      -1.005   0.305  -4.784  0.00  0.00    +0.149 HD
ENDROOT
BRANCH   1   5
ATOM      5  C   UNL     1       0.598  -0.571  -3.702  0.00  0.00    +0.102 C 
BRANCH   5   6
ATOM      6  C   UNL     1      -0.118  -0.077  -2.443  0.00  0.00    +0.000 C 
BRANCH   6   7
ATOM      7  C   UNL     1       0.690  -0.478  -1.207  0.00  0.00    -0.077 C 
BRANCH   7   9
ATOM      8  C   UNL     1      -0.018   1.465   0.010  0.00  0.00    -0.096 C 
ATOM      9  N   UNL     1       0.002  -0.004   0.002  0.00  0.00    +0.380 N 
ATOM     10  H   UNL     1      -0.945  -0.353   0.009  0.00  0.00    -0.082 HD
BRANCH   9  11
ATOM     11  C   UNL     1       0.713  -0.491   1.192  0.00  0.00    -0.069 C 
ATOM     12  C   UNL     1       0.733  -2.021   1.184  0.00  0.00    -0.015 C 
ATOM     13  C   UNL     1       1.473  -2.527   2.423  0.00  0.00    -0.002 C 
ATOM     14  C   UNL     1       0.757  -2.034   3.682  0.00  0.00    -0.000 C 
ATOM     15  C   UNL     1       0.736  -0.504   3.691  0.00  0.00    -0.002 C 
ATOM     16  C   UNL     1      -0.004   0.003   2.451  0.00  0.00    -0.015 C 
ENDBRANCH   9  11
ENDBRANCH   7   9
ENDBRANCH   6   7
ENDBRANCH   5   6
ENDBRANCH   1   5
BRANCH   2  17
ATOM     17  C   UNL     1      -0.528  -0.123  -7.333  0.00  0.00    +0.096 C 
BRANCH  17  18
ATOM     18  C   UNL     1       0.188  -0.617  -8.592  0.00  0.00    +0.009 C 
BRANCH  18  19
ATOM     19  C   UNL     1      -0.620  -0.216  -9.828  0.00  0.00    +0.002 C 
BRANCH  19  20
ATOM     20  C   UNL     1       0.096  -0.709 -11.087  0.00  0.00    +0.016 C 
BRANCH  20  21
ATOM     21  C   UNL     1      -0.711  -0.309 -12.323  0.00  0.00    +0.069 C 
ATOM     22  C   UNL     1      -0.022  -0.748 -13.590  0.00  0.00    +0.108 C 
ATOM     23  C   UNL     1      -0.360  -2.250 -13.843  0.00  0.00    +0.105 C 
ATOM     24  C   UNL     1      -1.882  -2.312 -13.944  0.00  0.00    +0.093 C 
ATOM     25  S   UNL     1      -2.288  -1.277 -12.436  0.00  0.00    -0.154 S 
ATOM     26  N   UNL     1       0.483  -2.487 -14.993  0.00  0.00    -0.294 N 
ATOM     27  C   UNL     1       1.577  -1.688 -14.814  0.00  0.00    +0.300 C 
ATOM     28  O   UNL     1       2.607  -1.804 -15.450  0.00  0.00    -0.253 OA
ATOM     29  N   UNL     1       1.389  -0.762 -13.835  0.00  0.00    -0.294 N 
ATOM     30  H   UNL     1       0.309  -3.087 -15.736  0.00  0.00    +0.151 HD
ATOM     31  H   UNL     1       2.069  -0.222 -13.403  0.00  0.00    +0.151 HD
ENDBRANCH  20  21
ENDBRANCH  19  20
ENDBRANCH  18  19
ENDBRANCH  17  18
ENDBRANCH   2  17
TORSDOF 10
