REMARK  Name = ZINC04806101
REMARK  4 active torsions:
REMARK  status: ('A' for Active; 'I' for Inactive)
REMARK    1  A    between atoms: C_1  and  C_2
REMARK    2  A    between atoms: C_4  and  N_19
REMARK    3  A    between atoms: N_19  and  C_20
REMARK    4  A    between atoms: C_20  and  C_21
REMARK                            x       y       z     vdW  Elec       q    Type
REMARK                         _______ _______ _______ _____ _____    ______ ____
ROOT
ATOM      1  C   UNL     1       4.748   4.608  -0.020  0.00  0.00    +0.046 C 
ATOM      2  C   UNL     1       3.509   3.750  -0.012  0.00  0.00    -0.019 A 
ATOM      3  C   UNL     1       3.616   2.395  -0.022  0.00  0.00    +0.029 A 
ATOM      4  C   UNL     1       2.529   1.496  -0.016  0.00  0.00    +0.039 A 
ATOM      5  C   UNL     1       1.224   1.992   0.001  0.00  0.00    +0.056 A 
ATOM      6  C   UNL     1       1.076   3.422   0.012  0.00  0.00    +0.062 A 
ATOM      7  C   UNL     1       2.186   4.368   0.007  0.00  0.00    +0.118 A 
ATOM      8  N   UNL     1       1.575   5.522   0.021  0.00  0.00    -0.077 NA
ATOM      9  O   UNL     1       0.349   5.419   0.033  0.00  0.00    -0.353 OA
ATOM     10  C   UNL     1      -0.085   4.152   0.028  0.00  0.00    +0.176 A 
ATOM     11  C   UNL     1      -1.330   3.384   0.034  0.00  0.00    +0.031 A 
ATOM     12  C   UNL     1      -2.565   4.039   0.047  0.00  0.00    +0.012 A 
ATOM     13  C   UNL     1      -3.733   3.312   0.053  0.00  0.00    +0.001 A 
ATOM     14  C   UNL     1      -3.696   1.924   0.045  0.00  0.00    +0.001 A 
ATOM     15  C   UNL     1      -2.494   1.255   0.031  0.00  0.00    +0.012 A 
ATOM     16  C   UNL     1      -1.291   1.969   0.019  0.00  0.00    +0.033 A 
ATOM     17  C   UNL     1      -0.015   1.215   0.009  0.00  0.00    +0.196 C 
ATOM     18  O   UNL     1       0.002  -0.004   0.002  0.00  0.00    -0.287 OA
ENDROOT
BRANCH   4  19
ATOM     19  N   UNL     1       2.753   0.137  -0.026  0.00  0.00    -0.342 N 
ATOM     20  H   UNL     1       2.003  -0.479  -0.022  0.00  0.00    +0.146 HD
BRANCH  19  21
ATOM     21  C   UNL     1       4.124  -0.379  -0.044  0.00  0.00    +0.113 C 
BRANCH  21  22
ATOM     22  C   UNL     1       4.094  -1.909  -0.053  0.00  0.00    +0.098 C 
ATOM     23 BR   UNL     1       5.934  -2.601  -0.077  0.00  0.00    -0.090 Br
ENDBRANCH  21  22
ENDBRANCH  19  21
ENDBRANCH   4  19
TORSDOF 3
