REMARK  Name = ZINC35856058
REMARK  12 active torsions:
REMARK  status: ('A' for Active; 'I' for Inactive)
REMARK    1  A    between atoms: C_1  and  C_2
REMARK    2  A    between atoms: C_5  and  C_8
REMARK    3  A    between atoms: C_12  and  O_25
REMARK    4  A    between atoms: C_19  and  C_21
REMARK    5  A    between atoms: C_21  and  C_22
REMARK    6  A    between atoms: C_22  and  C_23
REMARK    7  A    between atoms: C_22  and  C_24
REMARK    8  A    between atoms: O_25  and  C_26
REMARK    9  A    between atoms: C_26  and  C_28
REMARK   10  A    between atoms: C_26  and  C_29
REMARK   11  A    between atoms: N_31  and  C_32
REMARK   12  A    between atoms: C_32  and  C_33
REMARK                            x       y       z     vdW  Elec       q    Type
REMARK                         _______ _______ _______ _____ _____    ______ ____
ROOT
ATOM      1  C   UNL     1       0.055  -4.290  -0.027  0.00  0.00    +0.137 C 
ATOM      2  C   UNL     1       1.482  -4.766   0.087  0.00  0.00    -0.016 A 
ATOM      3  C   UNL     1       2.310  -4.596  -1.013  0.00  0.00    +0.051 A 
ATOM      4  C   UNL     1       3.632  -5.003  -0.966  0.00  0.00    +0.122 A 
ATOM      5  C   UNL     1       4.130  -5.584   0.192  0.00  0.00    +0.046 A 
ATOM      6  C   UNL     1       3.303  -5.756   1.281  0.00  0.00    +0.007 A 
ATOM      7  C   UNL     1       1.973  -5.353   1.232  0.00  0.00    -0.040 A 
ATOM      8  C   UNL     1       1.125  -5.598   2.453  0.00  0.00    +0.054 C 
ATOM      9  C   UNL     1      -0.114  -4.705   2.443  0.00  0.00    +0.113 C 
ATOM     10  N   UNL     1      -0.726  -4.794   1.108  0.00  0.00    -0.290 N 
ATOM     11  C   UNL     1      -1.955  -5.318   0.935  0.00  0.00    +0.217 C 
ATOM     12  O   UNL     1      -2.438  -5.380  -0.176  0.00  0.00    -0.276 OA
ENDROOT
BRANCH   1  17
ATOM     13  C   UNL     1      -0.048   1.487  -0.021  0.00  0.00    +0.044 C 
ATOM     14  C   UNL     1      -0.021  -0.019  -0.023  0.00  0.00    -0.050 A 
ATOM     15  C   UNL     1       0.598  -0.701   1.008  0.00  0.00    +0.004 A 
ATOM     16  C   UNL     1       0.623  -2.083   1.007  0.00  0.00    +0.006 A 
ATOM     17  C   UNL     1       0.027  -2.784  -0.025  0.00  0.00    -0.023 A 
ATOM     18  C   UNL     1      -0.593  -2.103  -1.056  0.00  0.00    +0.006 A 
ATOM     19  C   UNL     1      -0.621  -0.720  -1.052  0.00  0.00    +0.004 A 
ENDBRANCH   1  17
BRANCH  11  20
ATOM     20  C   UNL     1      -2.731  -5.827   2.123  0.00  0.00    +0.099 C 
BRANCH  20  21
ATOM     21  C   UNL     1      -4.085  -6.365   1.655  0.00  0.00    -0.008 C 
ATOM     22  C   UNL     1      -3.866  -7.587   0.761  0.00  0.00    +0.008 C 
ATOM     23  C   UNL     1      -4.922  -6.767   2.871  0.00  0.00    +0.008 C 
ENDBRANCH  20  21
ENDBRANCH  11  20
BRANCH   4  24
ATOM     24  O   UNL     1       4.438  -4.834  -2.047  0.00  0.00    -0.480 OA
BRANCH  24  25
ATOM     25  C   UNL     1       5.755  -5.385  -1.966  0.00  0.00    +0.255 C 
ATOM     26  C   UNL     1       6.683  -4.388  -1.269  0.00  0.00    +0.062 C 
BRANCH  25  27
ATOM     27  C   UNL     1       6.269  -5.663  -3.355  0.00  0.00    +0.254 C 
ATOM     28  O   UNL     1       5.615  -5.331  -4.322  0.00  0.00    -0.272 OA
ATOM     29  N   UNL     1       7.455  -6.280  -3.524  0.00  0.00    -0.310 N 
ATOM     30  H   UNL     1       7.978  -6.545  -2.752  0.00  0.00    +0.149 HD
BRANCH  29  31
ATOM     31  C   UNL     1       7.955  -6.550  -4.875  0.00  0.00    +0.135 C 
BRANCH  31  32
ATOM     32  C   UNL     1       9.310  -7.253  -4.786  0.00  0.00    +0.135 C 
ATOM     33  C   UNL     1       9.901  -7.433  -6.201  0.00  0.00    +0.035 C 
ATOM     34  C   UNL     1      10.538  -8.847  -6.114  0.00  0.00    +0.031 C 
ATOM     35  C   UNL     1       9.543  -9.560  -5.164  0.00  0.00    +0.160 C 
ATOM     36  O   UNL     1       9.146  -8.556  -4.214  0.00  0.00    -0.375 OA
ENDBRANCH  31  32
ENDBRANCH  29  31
ENDBRANCH  25  27
ENDBRANCH  24  25
ENDBRANCH   4  24
TORSDOF 8
