REMARK  Name = ZINC14754100
REMARK  8 active torsions:
REMARK  status: ('A' for Active; 'I' for Inactive)
REMARK    1  A    between atoms: C_1  and  C_2
REMARK    2  A    between atoms: C_2  and  N_3
REMARK    3  A    between atoms: C_4  and  C_6
REMARK    4  A    between atoms: N_9  and  C_11
REMARK    5  A    between atoms: C_11  and  C_12
REMARK    6  A    between atoms: C_19  and  C_21
REMARK    7  A    between atoms: C_21  and  N_68
REMARK    8  A    between atoms: C_25  and  C_28
REMARK                            x       y       z     vdW  Elec       q    Type
REMARK                         _______ _______ _______ _____ _____    ______ ____
ROOT
ATOM      1  C   UNL     1       1.120   3.627   0.011  0.00  0.00    +0.152 A 
ATOM      2  C   UNL     1       2.234   4.482   0.010  0.00  0.00    +0.023 A 
ATOM      3  C   UNL     1       1.740   5.744   0.012  0.00  0.00    +0.046 A 
ATOM      4  N   UNL     1       0.400   5.643   0.028  0.00  0.00    -0.267 N 
ATOM      5  N   UNL     1       0.049   4.403   0.026  0.00  0.00    -0.166 NA
ATOM      6  C   UNL     1       2.590   6.988   0.000  0.00  0.00    +0.074 C 
ATOM      7  C   UNL     1       4.015   6.617   0.430  0.00  0.00    +0.114 C 
ATOM      8  N   UNL     1       4.433   5.396  -0.276  0.00  0.00    -0.298 N 
ATOM      9  C   UNL     1       3.701   4.144  -0.004  0.00  0.00    +0.147 C 
ATOM     10  C   UNL     1       5.460   5.421  -1.148  0.00  0.00    +0.199 C 
ATOM     11  O   UNL     1       5.792   4.405  -1.722  0.00  0.00    -0.278 OA
ENDROOT
BRANCH   1  13
ATOM     12  N   UNL     1      -0.018   1.461   0.010  0.00  0.00    -0.310 N 
ATOM     13  C   UNL     1       1.140   2.151   0.003  0.00  0.00    +0.264 C 
ATOM     14  O   UNL     1       2.201   1.557  -0.011  0.00  0.00    -0.268 OA
ATOM     15  H   UNL     1      -0.864   1.934   0.017  0.00  0.00    +0.149 HD
BRANCH  12  17
ATOM     16  C   UNL     1      -1.433  -0.534   0.013  0.00  0.00    +0.024 C 
ATOM     17  C   UNL     1       0.002  -0.004   0.002  0.00  0.00    +0.101 C 
ENDBRANCH  12  17
ENDBRANCH   1  13
BRANCH   4  18
ATOM     18  C   UNL     1      -0.528   6.777   0.045  0.00  0.00    +0.147 C 
BRANCH  18  19
ATOM     19  C   UNL     1      -0.833   7.165   1.494  0.00  0.00    +0.010 C 
ATOM     20  C   UNL     1      -2.277   7.015   1.976  0.00  0.00    +0.005 C 
ATOM     21  C   UNL     1      -1.694   8.407   1.726  0.00  0.00    +0.005 C 
ENDBRANCH  18  19
ENDBRANCH   4  18
BRANCH  10  22
ATOM     22  C   UNL     1       6.195   6.710  -1.411  0.00  0.00    +0.019 C 
BRANCH  22  28
ATOM     23  C   UNL     1       6.703   6.117  -3.703  0.00  0.00    -0.078 C 
ATOM     24  C   UNL     1       7.831   6.022  -4.732  0.00  0.00    -0.018 C 
ATOM     25  C   UNL     1       8.839   4.961  -4.280  0.00  0.00    +0.004 C 
ATOM     26  C   UNL     1       9.370   5.330  -2.893  0.00  0.00    +0.002 C 
ATOM     27  C   UNL     1       8.197   5.446  -1.917  0.00  0.00    -0.070 C 
ATOM     28  N   UNL     1       7.277   6.500  -2.395  0.00  0.00    +0.386 N 
ATOM     29  H   UNL     1       7.802   7.375  -2.505  0.00  0.00    -0.081 HD
BRANCH  26  30
ATOM     30  C   UNL     1      10.318   4.261  -2.415  0.00  0.00    -0.046 A 
ATOM     31  C   UNL     1       9.872   2.961  -2.262  0.00  0.00    +0.004 A 
ATOM     32  C   UNL     1      10.743   1.979  -1.828  0.00  0.00    +0.000 A 
ATOM     33  C   UNL     1      12.056   2.298  -1.539  0.00  0.00    +0.000 A 
ATOM     34  C   UNL     1      12.501   3.598  -1.688  0.00  0.00    +0.000 A 
ATOM     35  C   UNL     1      11.631   4.580  -2.126  0.00  0.00    +0.004 A 
ENDBRANCH  26  30
ENDBRANCH  22  28
ENDBRANCH  10  22
TORSDOF 7
