REMARK  Name = ZINC55825219
REMARK  6 active torsions:
REMARK  status: ('A' for Active; 'I' for Inactive)
REMARK    1  A    between atoms: C_3  and  C_10
REMARK    2  A    between atoms: C_5  and  N_7
REMARK    3  A    between atoms: C_12  and  C_15
REMARK    4  A    between atoms: C_15  and  N_16
REMARK    5  A    between atoms: N_16  and  C_17
REMARK    6  A    between atoms: C_20  and  C_23
REMARK                            x       y       z     vdW  Elec       q    Type
REMARK                         _______ _______ _______ _____ _____    ______ ____
ROOT
ATOM      1  C   UNL     1       3.660   2.164  -0.022  0.00  0.00    +0.202 A 
ATOM      2  N   UNL     1       3.778   3.504  -0.011  0.00  0.00    -0.190 NA
ATOM      3  C   UNL     1       5.036   3.841  -0.023  0.00  0.00    +0.245 A 
ATOM      4  O   UNL     1       5.775   2.724  -0.042  0.00  0.00    -0.336 OA
ATOM      5  N   UNL     1       4.860   1.639  -0.035  0.00  0.00    -0.056 NA
ENDROOT
BRANCH   1   8
ATOM      6  C   UNL     1      -0.017   1.379   0.010  0.00  0.00    +0.003 A 
ATOM      7  C   UNL     1       1.168   2.088   0.002  0.00  0.00    +0.012 A 
ATOM      8  C   UNL     1       2.384   1.408  -0.013  0.00  0.00    +0.025 A 
ATOM      9  C   UNL     1       2.397   0.014  -0.021  0.00  0.00    +0.044 A 
ATOM     10  C   UNL     1       1.206  -0.684  -0.013  0.00  0.00    +0.127 A 
ATOM     11  C   UNL     1       0.002  -0.004   0.002  0.00  0.00    +0.033 A 
BRANCH  10  12
ATOM     12  N   UNL     1       1.219  -2.165  -0.022  0.00  0.00    +0.056 N 
ATOM     13  O   UNL     1       2.271  -2.760  -0.035  0.00  0.00    -0.126 OA
ATOM     14  O   UNL     1       0.177  -2.778  -0.015  0.00  0.00    -0.126 OA
ENDBRANCH  10  12
ENDBRANCH   1   8
BRANCH   3  15
ATOM     15  C   UNL     1       5.570   5.250  -0.017  0.00  0.00    +0.200 C 
BRANCH  15  16
ATOM     16  N   UNL     1       5.760   5.695   1.366  0.00  0.00    -0.335 N 
ATOM     17  H   UNL     1       5.546   5.099   2.100  0.00  0.00    +0.147 HD
BRANCH  16  18
ATOM     18  C   UNL     1       6.248   6.973   1.625  0.00  0.00    +0.028 A 
ATOM     19  C   UNL     1       6.550   7.828   0.570  0.00  0.00    +0.024 A 
ATOM     20  C   UNL     1       7.033   9.092   0.823  0.00  0.00    +0.020 A 
ATOM     21  C   UNL     1       7.220   9.516   2.142  0.00  0.00    +0.052 A 
ATOM     22  C   UNL     1       6.916   8.654   3.200  0.00  0.00    +0.020 A 
ATOM     23  C   UNL     1       6.428   7.394   2.939  0.00  0.00    +0.024 A 
BRANCH  21  24
ATOM     24  C   UNL     1       7.723  10.830   2.409  0.00  0.00    +0.099 C 
ATOM     25  N   UNL     1       8.121  11.873   2.620  0.00  0.00    -0.191 NA
ENDBRANCH  21  24
ENDBRANCH  16  18
ENDBRANCH  15  16
ENDBRANCH   3  15
TORSDOF 6
