REMARK  Name = ZINC09237124
REMARK  9 active torsions:
REMARK  status: ('A' for Active; 'I' for Inactive)
REMARK    1  A    between atoms: C_1  and  C_2
REMARK    2  A    between atoms: C_2  and  O_3
REMARK    3  A    between atoms: O_3  and  C_4
REMARK    4  A    between atoms: C_7  and  C_10
REMARK    5  A    between atoms: C_12  and  C_27
REMARK    6  A    between atoms: C_18  and  C_21
REMARK    7  A    between atoms: N_29  and  C_30
REMARK    8  A    between atoms: C_33  and  C_37
REMARK    9  A    between atoms: C_35  and  C_36
REMARK                            x       y       z     vdW  Elec       q    Type
REMARK                         _______ _______ _______ _____ _____    ______ ____
ROOT
ATOM      1  C   UNL     1      -1.212  -2.205   0.584  0.00  0.00    +0.140 C 
ATOM      2  C   UNL     1      -0.238  -2.935  -0.349  0.00  0.00    +0.166 C 
ATOM      3  S   UNL     1       1.442  -2.356   0.035  0.00  0.00    -0.069 S 
ATOM      4  C   UNL     1       1.086  -0.630   0.145  0.00  0.00    +0.210 A 
ATOM      5  N   UNL     1       1.930   0.366   0.180  0.00  0.00    -0.121 NA
ATOM      6  N   UNL     1       1.286   1.477   0.274  0.00  0.00    -0.127 NA
ATOM      7  C   UNL     1      -0.008   1.247   0.301  0.00  0.00    +0.182 A 
ATOM      8  N   UNL     1      -0.177  -0.113   0.213  0.00  0.00    -0.221 N 
ATOM      9  N   UNL     1      -1.347  -0.803   0.188  0.00  0.00    -0.272 N 
ATOM     10  H   UNL     1      -2.053  -0.337   0.739  0.00  0.00    +0.167 HD
ENDROOT
BRANCH   1  14
ATOM     11  C   UNL     1      -5.041  -4.092   0.385  0.00  0.00    +0.121 A 
ATOM     12  C   UNL     1      -4.185  -4.368   1.441  0.00  0.00    +0.046 A 
ATOM     13  C   UNL     1      -2.947  -3.757   1.503  0.00  0.00    +0.009 A 
ATOM     14  C   UNL     1      -2.562  -2.870   0.514  0.00  0.00    -0.024 A 
ATOM     15  C   UNL     1      -3.417  -2.589  -0.536  0.00  0.00    +0.009 A 
ATOM     16  C   UNL     1      -4.653  -3.202  -0.606  0.00  0.00    +0.046 A 
BRANCH  11  17
ATOM     17  O   UNL     1      -6.259  -4.692   0.322  0.00  0.00    -0.492 OA
BRANCH  17  19
ATOM     18  C   UNL     1      -8.408  -5.128  -0.694  0.00  0.00    +0.048 C 
ATOM     19  C   UNL     1      -7.088  -4.360  -0.793  0.00  0.00    +0.225 C 
ENDBRANCH  17  19
ENDBRANCH  11  17
ENDBRANCH   1  14
BRANCH   7  20
ATOM     20  C   UNL     1      -1.079   2.261   0.401  0.00  0.00    +0.021 A 
ATOM     21  C   UNL     1      -2.383   1.944   0.020  0.00  0.00    +0.011 A 
ATOM     22  C   UNL     1      -3.379   2.893   0.121  0.00  0.00    +0.001 A 
ATOM     23  C   UNL     1      -3.085   4.161   0.589  0.00  0.00    +0.000 A 
ATOM     24  C   UNL     1      -1.793   4.485   0.963  0.00  0.00    +0.001 A 
ATOM     25  C   UNL     1      -0.789   3.543   0.872  0.00  0.00    +0.011 A 
ENDBRANCH   7  20
BRANCH   2  26
ATOM     26  C   UNL     1      -0.330  -4.422  -0.121  0.00  0.00    +0.233 C 
ATOM     27  O   UNL     1      -0.653  -4.850   0.966  0.00  0.00    -0.274 OA
ATOM     28  N   UNL     1      -0.052  -5.276  -1.126  0.00  0.00    -0.284 N 
ATOM     29  H   UNL     1       0.258  -4.936  -1.980  0.00  0.00    +0.155 HD
BRANCH  28  30
ATOM     30  C   UNL     1      -0.212  -6.653  -0.938  0.00  0.00    +0.036 A 
ATOM     31  C   UNL     1      -0.128  -7.196   0.338  0.00  0.00    +0.024 A 
ATOM     32  C   UNL     1      -0.286  -8.555   0.521  0.00  0.00    +0.005 A 
ATOM     33  C   UNL     1      -0.528  -9.377  -0.565  0.00  0.00    -0.050 A 
ATOM     34  C   UNL     1      -0.612  -8.840  -1.837  0.00  0.00    +0.008 A 
ATOM     35  C   UNL     1      -0.461  -7.480  -2.025  0.00  0.00    -0.029 A 
ATOM     36  C   UNL     1      -0.560  -6.895  -3.411  0.00  0.00    +0.045 C 
ATOM     37  C   UNL     1      -0.700 -10.860  -0.362  0.00  0.00    +0.044 C 
ENDBRANCH  28  30
ENDBRANCH   2  26
TORSDOF 6
