REMARK  Name = ZINC63375165
REMARK  6 active torsions:
REMARK  status: ('A' for Active; 'I' for Inactive)
REMARK    1  A    between atoms: C_1  and  C_2
REMARK    2  A    between atoms: C_2  and  C_3
REMARK    3  A    between atoms: C_6  and  C_9
REMARK    4  A    between atoms: N_16  and  C_31
REMARK    5  A    between atoms: C_19  and  C_30
REMARK    6  A    between atoms: C_31  and  C_32
REMARK                            x       y       z     vdW  Elec       q    Type
REMARK                         _______ _______ _______ _____ _____    ______ ____
ROOT
ATOM      1  C   UNL     1       2.780  -1.972   4.671  0.00  0.00    +0.065 C 
ATOM      2  C   UNL     1       2.191  -3.302   5.148  0.00  0.00    +0.121 C 
ATOM      3  N   UNL     1       2.473  -3.594   6.543  0.00  0.00    -0.283 N 
ATOM      4  C   UNL     1       2.258  -4.884   6.966  0.00  0.00    +0.234 C 
ATOM      5  O   UNL     1       1.984  -5.771   6.186  0.00  0.00    -0.274 OA
ATOM      6  C   UNL     1       2.380  -5.145   8.452  0.00  0.00    +0.204 C 
ATOM      7  N   UNL     1       1.700  -4.056   9.177  0.00  0.00    -0.286 N 
ATOM      8  C   UNL     1       1.974  -2.782   8.763  0.00  0.00    +0.242 C 
ATOM      9  O   UNL     1       1.502  -1.806   9.307  0.00  0.00    -0.273 OA
ATOM     10  C   UNL     1       2.904  -2.675   7.582  0.00  0.00    +0.135 C 
ATOM     11  C   UNL     1       3.208  -1.268   7.170  0.00  0.00    +0.139 C 
ATOM     12  C   UNL     1       2.591  -0.998   5.807  0.00  0.00    -0.027 C 
ATOM     13  C   UNL     1       1.931   0.145   5.912  0.00  0.00    -0.000 A 
ATOM     14  C   UNL     1       1.221   0.968   4.920  0.00  0.00    +0.010 A 
ATOM     15  C   UNL     1       0.624   2.094   5.390  0.00  0.00    +0.001 A 
ATOM     16  C   UNL     1       0.661   2.481   6.733  0.00  0.00    +0.002 A 
ATOM     17  C   UNL     1       1.298   1.792   7.712  0.00  0.00    +0.026 A 
ATOM     18  C   UNL     1       1.971   0.592   7.339  0.00  0.00    +0.043 A 
ATOM     19  N   UNL     1       2.652  -0.241   8.050  0.00  0.00    -0.375 N 
ATOM     20  C   UNL     1       4.240  -3.230   8.079  0.00  0.00    +0.044 C 
ATOM     21  H   UNL     1       2.779  -0.185   9.010  0.00  0.00    +0.160 HD
ENDROOT
BRANCH   1  25
ATOM     22  C   UNL     1       0.697  -0.606   1.200  0.00  0.00    -0.048 A 
ATOM     23  C   UNL     1       2.061  -0.822   1.147  0.00  0.00    +0.004 A 
ATOM     24  C   UNL     1       2.735  -1.264   2.270  0.00  0.00    +0.004 A 
ATOM     25  C   UNL     1       2.045  -1.489   3.447  0.00  0.00    -0.039 A 
ATOM     26  C   UNL     1       0.681  -1.272   3.500  0.00  0.00    +0.004 A 
ATOM     27  C   UNL     1       0.007  -0.826   2.378  0.00  0.00    +0.004 A 
BRANCH  22  29
ATOM     28  C   UNL     1      -0.049   1.406  -0.043  0.00  0.00    +0.009 C 
ATOM     29  C   UNL     1      -0.038  -0.124  -0.024  0.00  0.00    +0.032 C 
ENDBRANCH  22  29
ENDBRANCH   1  25
BRANCH   7  30
ATOM     30  C   UNL     1       0.777  -4.324  10.283  0.00  0.00    +0.147 C 
BRANCH  30  31
ATOM     31  C   UNL     1       1.543  -4.351  11.581  0.00  0.00    +0.023 A 
ATOM     32  C   UNL     1       2.084  -5.540  12.041  0.00  0.00    +0.129 A 
ATOM     33  C   UNL     1       2.787  -5.563  13.234  0.00  0.00    +0.039 A 
ATOM     34  C   UNL     1       2.949  -4.401  13.963  0.00  0.00    +0.004 A 
ATOM     35  C   UNL     1       2.410  -3.214  13.504  0.00  0.00    +0.020 A 
ATOM     36  C   UNL     1       1.711  -3.188  12.309  0.00  0.00    +0.048 A 
ATOM     37 CL   UNL     1       1.040  -1.696  11.729  0.00  0.00    -0.083 Cl
ATOM     38  F   UNL     1       1.924  -6.676  11.328  0.00  0.00    -0.205 F 
ENDBRANCH  30  31
ENDBRANCH   7  30
TORSDOF 4
