REMARK  Name = ZINC40172667
REMARK  11 active torsions:
REMARK  status: ('A' for Active; 'I' for Inactive)
REMARK    1  A    between atoms: C_1  and  C_2
REMARK    2  A    between atoms: C_2  and  C_3
REMARK    3  A    between atoms: C_3  and  C_5
REMARK    4  A    between atoms: C_3  and  N_23
REMARK    5  A    between atoms: N_7  and  C_8
REMARK    6  A    between atoms: C_11  and  S_14
REMARK    7  A    between atoms: S_14  and  N_17
REMARK    8  A    between atoms: C_27  and  S_28
REMARK    9  A    between atoms: S_28  and  C_29
REMARK   10  A    between atoms: C_29  and  C_30
REMARK   11  A    between atoms: C_30  and  C_31
REMARK                            x       y       z     vdW  Elec       q    Type
REMARK                         _______ _______ _______ _____ _____    ______ ____
ROOT
ATOM      1  C   UNL     1      -0.880  -0.482  -0.205  0.00  0.00    +0.178 C 
ENDROOT
BRANCH   1   2
ATOM      2  N   UNL     1      -0.878  -1.915   0.101  0.00  0.00    -0.279 N 
ATOM      3  C   UNL     1      -0.289  -2.895  -0.648  0.00  0.00    +0.216 A 
ATOM      4  N   UNL     1      -0.501  -4.042  -0.052  0.00  0.00    -0.113 NA
ATOM      5  N   UNL     1      -1.245  -3.796   1.110  0.00  0.00    -0.121 NA
ATOM      6  C   UNL     1      -1.458  -2.505   1.188  0.00  0.00    +0.194 A 
ATOM      7  N   UNL     1       0.410  -2.708  -1.833  0.00  0.00    -0.328 N 
ATOM      8  H   UNL     1       0.515  -1.815  -2.199  0.00  0.00    +0.145 HD
ATOM      9  H   UNL     1       0.795  -3.469  -2.295  0.00  0.00    +0.145 HD
BRANCH   6  10
ATOM     10  S   UNL     1      -2.342  -1.677   2.468  0.00  0.00    -0.086 S 
BRANCH  10  11
ATOM     11  C   UNL     1      -2.845  -3.011   3.589  0.00  0.00    +0.082 C 
BRANCH  11  12
ATOM     12  C   UNL     1      -3.632  -2.423   4.761  0.00  0.00    +0.046 C 
BRANCH  12  13
ATOM     13  C   UNL     1      -4.050  -3.532   5.692  0.00  0.00    -0.047 A 
ATOM     14  C   UNL     1      -5.257  -4.178   5.500  0.00  0.00    +0.003 A 
ATOM     15  C   UNL     1      -5.640  -5.195   6.354  0.00  0.00    +0.000 A 
ATOM     16  C   UNL     1      -4.816  -5.566   7.400  0.00  0.00    +0.000 A 
ATOM     17  C   UNL     1      -3.609  -4.921   7.592  0.00  0.00    +0.000 A 
ATOM     18  C   UNL     1      -3.224  -3.907   6.736  0.00  0.00    +0.003 A 
ENDBRANCH  12  13
ENDBRANCH  11  12
ENDBRANCH  10  11
ENDBRANCH   6  10
ENDBRANCH   1   2
BRANCH   1  19
ATOM     19  C   UNL     1      -1.553  -0.254  -1.534  0.00  0.00    +0.240 C 
ATOM     20  O   UNL     1      -1.543  -1.126  -2.377  0.00  0.00    -0.273 OA
ATOM     21  N   UNL     1      -2.166   0.920  -1.786  0.00  0.00    -0.284 N 
ATOM     22  H   UNL     1      -2.254   1.582  -1.083  0.00  0.00    +0.155 HD
BRANCH  21  23
ATOM     23  C   UNL     1      -2.675   1.183  -3.063  0.00  0.00    +0.034 A 
ATOM     24  C   UNL     1      -3.154   0.143  -3.849  0.00  0.00    +0.025 A 
ATOM     25  C   UNL     1      -3.656   0.406  -5.109  0.00  0.00    +0.030 A 
ATOM     26  C   UNL     1      -3.683   1.704  -5.587  0.00  0.00    +0.106 A 
ATOM     27  C   UNL     1      -3.207   2.741  -4.806  0.00  0.00    +0.030 A 
ATOM     28  C   UNL     1      -2.709   2.486  -3.543  0.00  0.00    +0.025 A 
BRANCH  26  29
ATOM     29  S   UNL     1      -4.324   2.035  -7.194  0.00  0.00    +0.061 S 
ATOM     30  O   UNL     1      -3.736   3.256  -7.622  0.00  0.00    -0.153 OA
ATOM     31  O   UNL     1      -4.203   0.830  -7.936  0.00  0.00    -0.153 OA
BRANCH  29  32
ATOM     32  N   UNL     1      -5.946   2.325  -7.024  0.00  0.00    -0.177 NA
ATOM     33  C   UNL     1      -6.915   1.224  -7.100  0.00  0.00    +0.109 C 
ATOM     34  C   UNL     1      -7.792   1.250  -5.844  0.00  0.00    +0.017 C 
ATOM     35  C   UNL     1      -8.425   2.635  -5.697  0.00  0.00    +0.003 C 
ATOM     36  C   UNL     1      -7.324   3.687  -5.540  0.00  0.00    +0.017 C 
ATOM     37  C   UNL     1      -6.442   3.688  -6.787  0.00  0.00    +0.109 C 
ENDBRANCH  29  32
ENDBRANCH  26  29
ENDBRANCH  21  23
ENDBRANCH   1  19
BRANCH   1  39
ATOM     38  C   UNL     1       1.182  -0.023   1.128  0.00  0.00    +0.006 C 
ATOM     39  C   UNL     1       0.561   0.028  -0.269  0.00  0.00    +0.031 C 
ENDBRANCH   1  39
TORSDOF 10
