REMARK  Name = ZINC62850268
REMARK  6 active torsions:
REMARK  status: ('A' for Active; 'I' for Inactive)
REMARK    1  A    between atoms: C_1  and  C_2
REMARK    2  A    between atoms: C_2  and  C_3
REMARK    3  A    between atoms: C_3  and  C_9
REMARK    4  A    between atoms: N_14  and  C_17
REMARK    5  A    between atoms: C_17  and  C_19
REMARK    6  A    between atoms: C_17  and  C_20
REMARK                            x       y       z     vdW  Elec       q    Type
REMARK                         _______ _______ _______ _____ _____    ______ ____
ROOT
ATOM      1  C   UNL     1       0.065   0.106  -2.597  0.00  0.00    +0.221 C 
ATOM      2  O   UNL     1      -0.484  -0.672  -3.348  0.00  0.00    -0.275 OA
ATOM      3  N   UNL     1       0.124   1.416  -2.909  0.00  0.00    -0.305 N 
ATOM      4  C   UNL     1       0.697   2.392  -1.970  0.00  0.00    +0.089 C 
ATOM      5  C   UNL     1       1.729   3.241  -2.720  0.00  0.00    -0.058 C 
ATOM      6  N   UNL     1       1.102   3.837  -3.906  0.00  0.00    +0.391 N 
ATOM      7  C   UNL     1       0.701   2.781  -4.845  0.00  0.00    -0.058 C 
ATOM      8  C   UNL     1      -0.377   1.909  -4.202  0.00  0.00    +0.089 C 
ATOM      9  H   UNL     1       0.287   4.363  -3.626  0.00  0.00    -0.081 HD
ENDROOT
BRANCH   1  10
ATOM     10  C   UNL     1       0.681  -0.391  -1.315  0.00  0.00    +0.044 C 
ATOM     11  C   UNL     1       0.466  -1.903  -1.194  0.00  0.00    -0.003 C 
ATOM     12  C   UNL     1      -1.034  -2.195  -1.114  0.00  0.00    -0.082 C 
ATOM     13  N   UNL     1      -1.605  -1.523   0.059  0.00  0.00    +0.379 N 
ATOM     14  C   UNL     1      -1.466  -0.069  -0.083  0.00  0.00    -0.082 C 
ATOM     15  C   UNL     1       0.017   0.305  -0.123  0.00  0.00    -0.003 C 
ATOM     16  H   UNL     1      -2.582  -1.760   0.139  0.00  0.00    -0.086 HD
ATOM     17  H   UNL     1      -1.118  -1.826   0.889  0.00  0.00    -0.086 HD
BRANCH  10  19
ATOM     18  C   UNL     1       2.866  -0.901  -2.413  0.00  0.00    +0.005 C 
ATOM     19  C   UNL     1       2.180  -0.086  -1.315  0.00  0.00    +0.012 C 
ENDBRANCH  10  19
ENDBRANCH   1  10
BRANCH   6  20
ATOM     20  C   UNL     1       2.059   4.736  -4.564  0.00  0.00    +0.044 C 
ATOM     21  C   UNL     1       2.469   5.844  -3.592  0.00  0.00    -0.002 C 
BRANCH  20  22
ATOM     22  C   UNL     1       1.417   5.349  -5.782  0.00  0.00    +0.343 C 
ATOM     23  O   UNL     1       0.221   5.211  -5.976  0.00  0.00    -0.248 OA
ATOM     24  O   UNL     1       2.093   5.984  -6.574  0.00  0.00    -0.248 OA
ENDBRANCH  20  22
ENDBRANCH   6  20
TORSDOF 4
