REMARK  Name = ZINC08624242
REMARK  13 active torsions:
REMARK  status: ('A' for Active; 'I' for Inactive)
REMARK    1  A    between atoms: C_1  and  C_2
REMARK    2  A    between atoms: C_3  and  C_18
REMARK    3  A    between atoms: C_4  and  C_17
REMARK    4  A    between atoms: N_5  and  C_7
REMARK    5  A    between atoms: C_10  and  C_13
REMARK    6  A    between atoms: C_13  and  C_14
REMARK    7  A    between atoms: C_13  and  C_15
REMARK    8  A    between atoms: C_13  and  C_16
REMARK    9  A    between atoms: C_21  and  N_66
REMARK   10  A    between atoms: C_25  and  C_26
REMARK   11  A    between atoms: C_25  and  N_66
REMARK   12  A    between atoms: C_29  and  O_32
REMARK   13  A    between atoms: O_32  and  C_33
REMARK                            x       y       z     vdW  Elec       q    Type
REMARK                         _______ _______ _______ _____ _____    ______ ____
ROOT
ATOM      1  C   UNL     1      -0.672   1.268   3.047  0.00  0.00    +0.068 C 
ATOM      2  C   UNL     1      -1.996   1.079   2.352  0.00  0.00    +0.064 A 
ATOM      3  C   UNL     1      -2.268   1.380   1.013  0.00  0.00    +0.003 A 
ATOM      4  C   UNL     1      -3.565   1.074   0.773  0.00  0.00    +0.046 A 
ATOM      5  N   UNL     1      -4.092   0.590   1.920  0.00  0.00    -0.236 N 
ATOM      6  N   UNL     1      -3.087   0.606   2.897  0.00  0.00    -0.171 NA
ATOM      7  C   UNL     1      -4.290   1.242  -0.537  0.00  0.00    +0.066 C 
ENDROOT
BRANCH   5   8
ATOM      8  C   UNL     1      -5.412   0.153   2.102  0.00  0.00    +0.066 A 
ATOM      9  C   UNL     1      -6.101   0.484   3.261  0.00  0.00    +0.028 A 
ATOM     10  C   UNL     1      -7.402   0.057   3.435  0.00  0.00    +0.006 A 
ATOM     11  C   UNL     1      -8.016  -0.709   2.461  0.00  0.00    -0.042 A 
ATOM     12  C   UNL     1      -7.331  -1.046   1.308  0.00  0.00    +0.006 A 
ATOM     13  C   UNL     1      -6.030  -0.616   1.126  0.00  0.00    +0.028 A 
BRANCH  11  14
ATOM     14  C   UNL     1      -9.435  -1.179   2.656  0.00  0.00    -0.013 C 
ATOM     15  C   UNL     1      -9.473  -2.708   2.635  0.00  0.00    +0.015 C 
ATOM     16  C   UNL     1      -9.958  -0.674   4.002  0.00  0.00    +0.015 C 
ATOM     17  C   UNL     1     -10.313  -0.631   1.530  0.00  0.00    +0.015 C 
ENDBRANCH  11  14
ENDBRANCH   5   8
BRANCH   3  18
ATOM     18  C   UNL     1      -1.293   1.949   0.015  0.00  0.00    +0.044 C 
ATOM     19  C   UNL     1      -0.704   3.281   0.539  0.00  0.00    +0.000 C 
ATOM     20  C   UNL     1       0.751   3.195   0.022  0.00  0.00    -0.047 C 
ATOM     21  C   UNL     1       1.016   1.715  -0.132  0.00  0.00    -0.046 C 
ATOM     22  C   UNL     1      -0.098   1.035  -0.133  0.00  0.00    -0.025 C 
BRANCH  20  23
ATOM     23  N   UNL     1       0.867   3.876  -1.281  0.00  0.00    +0.386 N 
ATOM     24  H   UNL     1       0.282   4.720  -1.275  0.00  0.00    -0.085 HD
ATOM     25  H   UNL     1       0.547   3.244  -2.024  0.00  0.00    -0.085 HD
BRANCH  23  26
ATOM     26  C   UNL     1       2.269   4.258  -1.536  0.00  0.00    -0.046 C 
BRANCH  26  27
ATOM     27  C   UNL     1       2.356   4.951  -2.871  0.00  0.00    -0.064 A 
ATOM     28  C   UNL     1       2.592   4.214  -4.018  0.00  0.00    +0.005 A 
ATOM     29  C   UNL     1       2.667   4.846  -5.243  0.00  0.00    +0.046 A 
ATOM     30  C   UNL     1       2.518   6.223  -5.322  0.00  0.00    +0.120 A 
ATOM     31  C   UNL     1       2.288   6.961  -4.170  0.00  0.00    +0.046 A 
ATOM     32  C   UNL     1       2.207   6.323  -2.948  0.00  0.00    +0.005 A 
BRANCH  30  33
ATOM     33  O   UNL     1       2.598   6.849  -6.527  0.00  0.00    -0.495 OA
ATOM     34  C   UNL     1       2.837   6.026  -7.670  0.00  0.00    +0.277 C 
ENDBRANCH  30  33
ENDBRANCH  26  27
ENDBRANCH  23  26
ENDBRANCH  20  23
ENDBRANCH   3  18
TORSDOF 7
