REMARK  Name = ZINC23861467
REMARK  11 active torsions:
REMARK  status: ('A' for Active; 'I' for Inactive)
REMARK    1  A    between atoms: C_1  and  C_2
REMARK    2  A    between atoms: C_9  and  N_13
REMARK    3  A    between atoms: C_10  and  C_11
REMARK    4  A    between atoms: C_14  and  C_16
REMARK    5  A    between atoms: C_16  and  N_17
REMARK    6  A    between atoms: N_17  and  C_18
REMARK    7  A    between atoms: N_17  and  C_19
REMARK    8  A    between atoms: C_19  and  C_20
REMARK    9  A    between atoms: N_22  and  C_23
REMARK   10  A    between atoms: C_26  and  O_29
REMARK   11  A    between atoms: O_29  and  C_30
REMARK                            x       y       z     vdW  Elec       q    Type
REMARK                         _______ _______ _______ _____ _____    ______ ____
ROOT
ATOM      1  N   UNL     1       3.804  -4.712  -0.371  0.00  0.00    +0.389 N 
ATOM      2  C   UNL     1       4.415  -4.255  -1.627  0.00  0.00    -0.095 C 
ATOM      3  H   UNL     1       4.378  -4.277   0.461  0.00  0.00    -0.081 HD
ENDROOT
BRANCH   1   4
ATOM      4  C   UNL     1       3.876  -6.174  -0.253  0.00  0.00    +0.019 C 
BRANCH   4   6
ATOM      5  N   UNL     1       5.626  -7.905  -0.006  0.00  0.00    -0.281 N 
ATOM      6  C   UNL     1       5.316  -6.599  -0.127  0.00  0.00    +0.201 C 
ATOM      7  O   UNL     1       6.197  -5.765  -0.135  0.00  0.00    -0.278 OA
ATOM      8  H   UNL     1       4.827  -8.661   0.001  0.00  0.00    +0.155 HD
BRANCH   5  16
ATOM      9  C   UNL     1      13.222  -9.703   0.529  0.00  0.00    +0.008 C 
ATOM     10  C   UNL     1      11.740  -9.766   0.152  0.00  0.00    -0.009 C 
ATOM     11  C   UNL     1      11.032 -10.804   1.028  0.00  0.00    +0.008 C 
ATOM     12  C   UNL     1       9.620 -11.056   0.498  0.00  0.00    +0.037 C 
ATOM     13  C   UNL     1       8.906  -9.718   0.347  0.00  0.00    -0.018 A 
ATOM     14  C   UNL     1       9.602  -8.560   0.302  0.00  0.00    -0.004 A 
ATOM     15  S   UNL     1       8.371  -7.301   0.117  0.00  0.00    -0.077 S 
ATOM     16  C   UNL     1       6.952  -8.296   0.110  0.00  0.00    +0.090 A 
ATOM     17  C   UNL     1       7.465  -9.578   0.243  0.00  0.00    +0.084 A 
ATOM     18  C   UNL     1      11.088  -8.395   0.384  0.00  0.00    +0.046 C 
BRANCH  17  19
ATOM     19  C   UNL     1       6.603 -10.721   0.276  0.00  0.00    +0.102 C 
ATOM     20  N   UNL     1       5.920 -11.628   0.303  0.00  0.00    -0.191 NA
ENDBRANCH  17  19
ENDBRANCH   5  16
ENDBRANCH   4   6
ENDBRANCH   1   4
BRANCH   1  21
ATOM     21  C   UNL     1       2.417  -4.241  -0.258  0.00  0.00    +0.019 C 
BRANCH  21  22
ATOM     22  C   UNL     1       2.405  -2.739  -0.137  0.00  0.00    +0.201 C 
ATOM     23  O   UNL     1       3.449  -2.122  -0.144  0.00  0.00    -0.278 OA
ATOM     24  N   UNL     1       1.234  -2.083  -0.020  0.00  0.00    -0.287 N 
ATOM     25  H   UNL     1       0.293  -2.646   0.063  0.00  0.00    +0.155 HD
BRANCH  24  26
ATOM     26  C   UNL     1       1.215  -0.682  -0.005  0.00  0.00    +0.034 A 
ATOM     27  C   UNL     1       0.161   0.005  -0.594  0.00  0.00    +0.027 A 
ATOM     28  C   UNL     1       0.143   1.386  -0.578  0.00  0.00    +0.048 A 
ATOM     29  C   UNL     1       1.177   2.087   0.025  0.00  0.00    +0.130 A 
ATOM     30  C   UNL     1       2.230   1.401   0.614  0.00  0.00    +0.048 A 
ATOM     31  C   UNL     1       2.249   0.021   0.599  0.00  0.00    +0.027 A 
BRANCH  29  32
ATOM     32  O   UNL     1       1.158   3.446   0.040  0.00  0.00    -0.406 OA
BRANCH  32  33
ATOM     33  C   UNL     1       2.255   4.103   0.679  0.00  0.00    +0.575 C 
ATOM     34  F   UNL     1       3.447   3.750   0.038  0.00  0.00    -0.133 F 
ATOM     35  F   UNL     1       2.077   5.489   0.603  0.00  0.00    -0.133 F 
ATOM     36  F   UNL     1       2.314   3.713   2.021  0.00  0.00    -0.133 F 
ENDBRANCH  32  33
ENDBRANCH  29  32
ENDBRANCH  24  26
ENDBRANCH  21  22
ENDBRANCH   1  21
TORSDOF 9
