REMARK  Name = ZINC32925313
REMARK  9 active torsions:
REMARK  status: ('A' for Active; 'I' for Inactive)
REMARK    1  A    between atoms: C_4  and  O_36
REMARK    2  A    between atoms: C_5  and  N_7
REMARK    3  A    between atoms: C_8  and  C_10
REMARK    4  A    between atoms: C_10  and  O_11
REMARK    5  A    between atoms: O_11  and  C_12
REMARK    6  A    between atoms: C_12  and  C_14
REMARK    7  A    between atoms: C_18  and  S_20
REMARK    8  A    between atoms: S_20  and  N_23
REMARK    9  A    between atoms: N_26  and  C_29
REMARK                            x       y       z     vdW  Elec       q    Type
REMARK                         _______ _______ _______ _____ _____    ______ ____
ROOT
ATOM      1  C   UNL     1      -0.423  -1.304   8.390  0.00  0.00    +0.061 A 
ATOM      2  C   UNL     1      -0.396  -2.688   8.204  0.00  0.00    +0.015 A 
ATOM      3  C   UNL     1      -0.465  -3.529   9.295  0.00  0.00    +0.003 A 
ATOM      4  C   UNL     1      -0.571  -3.005  10.571  0.00  0.00    +0.028 A 
ATOM      5  C   UNL     1      -0.603  -1.635  10.763  0.00  0.00    +0.106 A 
ATOM      6  C   UNL     1      -0.530  -0.782   9.681  0.00  0.00    +0.043 A 
ENDROOT
BRANCH   5   7
ATOM      7  S   UNL     1      -0.739  -0.978  12.392  0.00  0.00    +0.061 S 
ATOM      8  O   UNL     1      -0.242  -1.975  13.274  0.00  0.00    -0.153 OA
ATOM      9  O   UNL     1      -0.200   0.336  12.347  0.00  0.00    -0.153 OA
BRANCH   7  10
ATOM     10  N   UNL     1      -2.353  -0.816  12.722  0.00  0.00    -0.174 NA
ATOM     11  C   UNL     1      -3.067   0.431  12.408  0.00  0.00    +0.128 C 
ATOM     12  C   UNL     1      -4.325   0.076  11.600  0.00  0.00    +0.122 C 
ATOM     13  N   UNL     1      -5.112  -0.919  12.341  0.00  0.00    -0.327 N 
ATOM     14  C   UNL     1      -4.366  -2.174  12.504  0.00  0.00    +0.122 C 
ATOM     15  C   UNL     1      -3.111  -1.914  13.343  0.00  0.00    +0.128 C 
BRANCH  13  16
ATOM     16  C   UNL     1      -6.345  -1.145  11.722  0.00  0.00    +0.030 A 
ATOM     17  C   UNL     1      -6.709  -2.432  11.347  0.00  0.00    +0.026 A 
ATOM     18  C   UNL     1      -7.929  -2.654  10.740  0.00  0.00    +0.040 A 
ATOM     19  C   UNL     1      -8.785  -1.593  10.495  0.00  0.00    +0.124 A 
ATOM     20  C   UNL     1      -8.422  -0.308  10.864  0.00  0.00    +0.040 A 
ATOM     21  C   UNL     1      -7.205  -0.083  11.476  0.00  0.00    +0.026 A 
ATOM     22  F   UNL     1      -9.976  -1.812   9.897  0.00  0.00    -0.205 F 
ENDBRANCH  13  16
ENDBRANCH   7  10
ENDBRANCH   5   7
BRANCH   1  23
ATOM     23  C   UNL     1      -0.344  -0.397   7.227  0.00  0.00    +0.340 C 
ATOM     24  O   UNL     1      -0.372   0.806   7.392  0.00  0.00    -0.245 OA
BRANCH  23  25
ATOM     25  O   UNL     1      -0.240  -0.904   5.983  0.00  0.00    -0.452 OA
BRANCH  25  26
ATOM     26  C   UNL     1      -0.168   0.046   4.888  0.00  0.00    +0.328 C 
BRANCH  26  28
ATOM     27  N   UNL     1       0.025  -0.018   2.423  0.00  0.00    -0.280 N 
ATOM     28  C   UNL     1      -0.056  -0.699   3.583  0.00  0.00    +0.255 C 
ATOM     29  O   UNL     1      -0.040  -1.912   3.577  0.00  0.00    -0.272 OA
ATOM     30  H   UNL     1       0.102   1.079   2.433  0.00  0.00    +0.155 HD
BRANCH  27  35
ATOM     31  C   UNL     1      -0.592  -2.638  -0.086  0.00  0.00    +0.002 A 
ATOM     32  C   UNL     1      -0.016  -2.071  -1.208  0.00  0.00    +0.004 A 
ATOM     33  C   UNL     1       0.570  -0.822  -1.133  0.00  0.00    +0.047 A 
ATOM     34  C   UNL     1       0.591  -0.138   0.072  0.00  0.00    +0.138 A 
ATOM     35  C   UNL     1       0.012  -0.708   1.203  0.00  0.00    +0.075 A 
ATOM     36  C   UNL     1      -0.579  -1.960   1.119  0.00  0.00    +0.027 A 
BRANCH  34  37
ATOM     37  O   UNL     1       1.171   1.090   0.149  0.00  0.00    -0.505 OA
ATOM     38  H   UNL     1       1.188   1.632   1.106  0.00  0.00    +0.292 HD
ENDBRANCH  34  37
ENDBRANCH  27  35
ENDBRANCH  26  28
ENDBRANCH  25  26
ENDBRANCH  23  25
ENDBRANCH   1  23
TORSDOF 9
