REMARK  Name = ZINC64093307
REMARK  14 active torsions:
REMARK  status: ('A' for Active; 'I' for Inactive)
REMARK    1  A    between atoms: C_1  and  C_2
REMARK    2  A    between atoms: C_3  and  C_20
REMARK    3  A    between atoms: C_5  and  C_7
REMARK    4  A    between atoms: C_11  and  N_13
REMARK    5  A    between atoms: C_14  and  C_16
REMARK    6  A    between atoms: C_16  and  C_17
REMARK    7  A    between atoms: C_17  and  C_18
REMARK    8  A    between atoms: C_17  and  C_19
REMARK    9  A    between atoms: C_20  and  N_21
REMARK   10  A    between atoms: C_22  and  C_24
REMARK   11  A    between atoms: C_24  and  C_25
REMARK   12  A    between atoms: C_25  and  N_26
REMARK   13  A    between atoms: N_26  and  C_27
REMARK   14  A    between atoms: N_26  and  C_28
REMARK                            x       y       z     vdW  Elec       q    Type
REMARK                         _______ _______ _______ _____ _____    ______ ____
ROOT
ATOM      1  C   UNL     1       0.001   1.454  -0.895  0.00  0.00    +0.088 C 
ATOM      2  C   UNL     1       0.017  -0.038  -0.685  0.00  0.00    +0.127 A 
ATOM      3  C   UNL     1      -1.059  -0.841  -0.588  0.00  0.00    +0.100 A 
ATOM      4  N   UNL     1      -0.620  -2.096  -0.405  0.00  0.00    -0.212 NA
ATOM      5  C   UNL     1       0.693  -2.083  -0.388  0.00  0.00    +0.228 A 
ATOM      6  O   UNL     1       1.110  -0.817  -0.566  0.00  0.00    -0.440 OA
ENDROOT
BRANCH   5   7
ATOM      7  C   UNL     1       1.565  -3.263  -0.209  0.00  0.00    +0.039 A 
ATOM      8  C   UNL     1       1.004  -4.530  -0.044  0.00  0.00    +0.013 A 
ATOM      9  C   UNL     1       1.821  -5.630   0.122  0.00  0.00    +0.003 A 
ATOM     10  C   UNL     1       3.196  -5.481   0.127  0.00  0.00    +0.023 A 
ATOM     11  C   UNL     1       3.764  -4.224  -0.036  0.00  0.00    +0.034 A 
ATOM     12  C   UNL     1       2.952  -3.114  -0.210  0.00  0.00    +0.036 A 
BRANCH  11  13
ATOM     13  N   UNL     1       5.156  -4.079  -0.030  0.00  0.00    -0.285 N 
ATOM     14  C   UNL     1       5.714  -2.960   0.472  0.00  0.00    +0.217 C 
ATOM     15  O   UNL     1       5.019  -2.121   1.005  0.00  0.00    -0.275 OA
ATOM     16  H   UNL     1       5.718  -4.784  -0.387  0.00  0.00    +0.155 HD
BRANCH  14  17
ATOM     17  C   UNL     1       7.203  -2.751   0.371  0.00  0.00    +0.099 C 
BRANCH  17  18
ATOM     18  C   UNL     1       7.575  -1.412   1.013  0.00  0.00    -0.008 C 
ATOM     19  C   UNL     1       9.097  -1.256   1.022  0.00  0.00    +0.008 C 
ATOM     20  C   UNL     1       6.950  -0.270   0.209  0.00  0.00    +0.008 C 
ENDBRANCH  17  18
ENDBRANCH  14  17
ENDBRANCH  11  13
ENDBRANCH   5   7
BRANCH   3  21
ATOM     21  C   UNL     1      -2.500  -0.409  -0.669  0.00  0.00    +0.163 C 
BRANCH  21  22
ATOM     22  N   UNL     1      -2.948  -0.460  -2.063  0.00  0.00    -0.310 N 
ATOM     23  C   UNL     1      -4.211  -0.114  -2.378  0.00  0.00    +0.215 C 
ATOM     24  O   UNL     1      -4.978   0.241  -1.507  0.00  0.00    -0.276 OA
ATOM     25  H   UNL     1      -2.334  -0.743  -2.759  0.00  0.00    +0.149 HD
BRANCH  23  26
ATOM     26  C   UNL     1      -4.672  -0.167  -3.812  0.00  0.00    +0.111 C 
BRANCH  26  27
ATOM     27  C   UNL     1      -6.135   0.273  -3.894  0.00  0.00    +0.093 C 
BRANCH  27  28
ATOM     28  N   UNL     1      -6.584   0.221  -5.292  0.00  0.00    -0.300 NA
ATOM     29  C   UNL     1      -6.606  -1.162  -5.787  0.00  0.00    +0.105 C 
BRANCH  28  30
ATOM     30  C   UNL     1      -7.899   0.857  -5.446  0.00  0.00    +0.079 C 
ATOM     31  C   UNL     1      -8.964   0.035  -4.700  0.00  0.00    +0.043 C 
ATOM     32  C   UNL     1     -10.379   0.504  -5.115  0.00  0.00    +0.167 C 
ATOM     33  S   UNL     1     -10.111   1.135  -6.822  0.00  0.00    -0.029 S 
ATOM     34  O   UNL     1     -10.402   2.525  -6.852  0.00  0.00    -0.174 OA
ATOM     35  O   UNL     1     -10.757   0.266  -7.742  0.00  0.00    -0.174 OA
ATOM     36  C   UNL     1      -8.289   0.900  -6.951  0.00  0.00    +0.184 C 
ENDBRANCH  28  30
ENDBRANCH  27  28
ENDBRANCH  26  27
ENDBRANCH  23  26
ENDBRANCH  21  22
ENDBRANCH   3  21
TORSDOF 10
