REMARK  Name = ZINC22068488
REMARK  12 active torsions:
REMARK  status: ('A' for Active; 'I' for Inactive)
REMARK    1  A    between atoms: C_1  and  C_2
REMARK    2  A    between atoms: N_7  and  C_9
REMARK    3  A    between atoms: C_12  and  C_18
REMARK    4  A    between atoms: C_14  and  N_15
REMARK    5  A    between atoms: N_20  and  C_21
REMARK    6  A    between atoms: C_21  and  C_22
REMARK    7  A    between atoms: C_25  and  C_28
REMARK    8  A    between atoms: C_28  and  S_29
REMARK    9  A    between atoms: S_29  and  N_32
REMARK   10  A    between atoms: N_32  and  C_33
REMARK   11  A    between atoms: C_33  and  C_34
REMARK   12  A    between atoms: C_33  and  C_35
REMARK                            x       y       z     vdW  Elec       q    Type
REMARK                         _______ _______ _______ _____ _____    ______ ____
ROOT
ATOM      1  C   UNL     1      -2.956   3.436   4.398  0.00  0.00    +0.244 C 
ATOM      2  O   UNL     1      -2.384   4.017   5.301  0.00  0.00    -0.270 OA
ATOM      3  N   UNL     1      -4.292   3.268   4.444  0.00  0.00    -0.307 N 
ATOM      4  H   UNL     1      -4.809   2.744   3.627  0.00  0.00    +0.149 HD
ENDROOT
BRANCH   1   8
ATOM      5  C   UNL     1      -0.741   1.940   1.098  0.00  0.00    +0.060 A 
ATOM      6  C   UNL     1      -2.122   1.771   1.142  0.00  0.00    +0.026 A 
ATOM      7  C   UNL     1      -2.842   2.249   2.213  0.00  0.00    +0.015 A 
ATOM      8  C   UNL     1      -2.186   2.916   3.252  0.00  0.00    +0.039 A 
ATOM      9  C   UNL     1      -0.800   3.090   3.202  0.00  0.00    +0.047 A 
ATOM     10  C   UNL     1      -0.085   2.603   2.131  0.00  0.00    +0.148 A 
BRANCH   5  16
ATOM     11  C   UNL     1       0.556  -2.036  -1.365  0.00  0.00    +0.009 C 
ATOM     12  C   UNL     1       0.743  -0.525  -1.216  0.00  0.00    +0.003 C 
ATOM     13  C   UNL     1       0.392   0.166  -2.536  0.00  0.00    +0.006 C 
ATOM     14  C   UNL     1       0.523   1.681  -2.361  0.00  0.00    +0.019 C 
ATOM     15  C   UNL     1      -0.393   2.140  -1.224  0.00  0.00    +0.105 C 
ATOM     16  N   UNL     1      -0.016   1.451   0.017  0.00  0.00    -0.328 N 
ATOM     17  C   UNL     1      -0.179  -0.003  -0.112  0.00  0.00    +0.108 C 
ENDBRANCH   5  16
BRANCH  10  18
ATOM     18  N   UNL     1       1.383   2.787   2.078  0.00  0.00    +0.058 N 
ATOM     19  O   UNL     1       1.970   3.279   3.025  0.00  0.00    -0.126 OA
ATOM     20  O   UNL     1       2.003   2.445   1.088  0.00  0.00    -0.126 OA
ENDBRANCH  10  18
ENDBRANCH   1   8
BRANCH   3  21
ATOM     21  C   UNL     1      -5.056   3.785   5.582  0.00  0.00    +0.139 C 
BRANCH  21  22
ATOM     22  C   UNL     1      -6.517   3.469   5.392  0.00  0.00    -0.030 A 
ATOM     23  C   UNL     1      -7.339   4.366   4.736  0.00  0.00    +0.005 A 
ATOM     24  C   UNL     1      -8.678   4.074   4.558  0.00  0.00    +0.005 A 
ATOM     25  C   UNL     1      -9.198   2.888   5.042  0.00  0.00    -0.025 A 
ATOM     26  C   UNL     1      -8.377   1.993   5.703  0.00  0.00    +0.005 A 
ATOM     27  C   UNL     1      -7.037   2.283   5.878  0.00  0.00    +0.005 A 
BRANCH  25  28
ATOM     28  C   UNL     1     -10.658   2.571   4.851  0.00  0.00    +0.220 C 
BRANCH  28  29
ATOM     29  S   UNL     1     -11.605   3.209   6.260  0.00  0.00    +0.034 S 
ATOM     30  O   UNL     1     -11.279   2.484   7.438  0.00  0.00    -0.158 OA
ATOM     31  O   UNL     1     -11.590   4.630   6.257  0.00  0.00    -0.158 OA
BRANCH  29  32
ATOM     32  N   UNL     1     -13.178   2.803   5.936  0.00  0.00    -0.192 NA
ATOM     33  H   UNL     1     -13.877   3.584   5.601  0.00  0.00    +0.148 HD
BRANCH  32  34
ATOM     34  C   UNL     1     -13.574   1.394   5.883  0.00  0.00    +0.070 C 
ATOM     35  C   UNL     1     -14.995   1.243   6.431  0.00  0.00    +0.025 C 
ATOM     36  C   UNL     1     -13.532   0.906   4.433  0.00  0.00    +0.025 C 
ENDBRANCH  32  34
ENDBRANCH  29  32
ENDBRANCH  28  29
ENDBRANCH  25  28
ENDBRANCH  21  22
ENDBRANCH   3  21
TORSDOF 9
