REMARK  Name = ZINC39632586
REMARK  5 active torsions:
REMARK  status: ('A' for Active; 'I' for Inactive)
REMARK    1  A    between atoms: C_4  and  O_7
REMARK    2  A    between atoms: O_7  and  C_8
REMARK    3  A    between atoms: C_11  and  C_14
REMARK    4  A    between atoms: C_18  and  C_27
REMARK    5  A    between atoms: N_29  and  C_30
REMARK                            x       y       z     vdW  Elec       q    Type
REMARK                         _______ _______ _______ _____ _____    ______ ____
ROOT
ATOM      1  C   UNL     1       3.156  -6.143  -0.426  0.00  0.00    +0.248 C 
ATOM      2  O   UNL     1       4.137  -6.859  -0.362  0.00  0.00    -0.270 OA
ATOM      3  N   UNL     1       1.938  -6.686  -0.621  0.00  0.00    -0.296 N 
ATOM      4  C   UNL     1       0.630  -5.990  -0.667  0.00  0.00    +0.121 C 
ATOM      5  C   UNL     1      -0.149  -6.699  -1.798  0.00  0.00    +0.100 C 
ATOM      6  C   UNL     1       0.492  -8.093  -1.903  0.00  0.00    -0.004 C 
ATOM      7  C   UNL     1       1.604  -8.114  -0.843  0.00  0.00    +0.115 C 
ATOM      8  C   UNL     1       1.092  -8.295  -3.291  0.00  0.00    -0.010 C 
ATOM      9  C   UNL     1       1.673  -9.708  -3.390  0.00  0.00    -0.082 C 
ATOM     10  N   UNL     1       0.614 -10.694  -3.144  0.00  0.00    +0.379 N 
ATOM     11  C   UNL     1       0.106 -10.552  -1.774  0.00  0.00    -0.082 C 
ATOM     12  C   UNL     1      -0.541  -9.175  -1.607  0.00  0.00    -0.010 C 
ATOM     13  H   UNL     1      -0.141 -10.545  -3.797  0.00  0.00    -0.086 HD
ATOM     14  H   UNL     1       0.985 -11.623  -3.269  0.00  0.00    -0.086 HD
ENDROOT
BRANCH   1  18
ATOM     15  C   UNL     1       3.636  -1.984  -0.077  0.00  0.00    +0.220 A 
ATOM     16  C   UNL     1       2.471  -2.556   0.424  0.00  0.00    +0.068 A 
ATOM     17  C   UNL     1       2.291  -3.920   0.321  0.00  0.00    +0.020 A 
ATOM     18  C   UNL     1       3.299  -4.681  -0.291  0.00  0.00    +0.055 A 
ATOM     19  C   UNL     1       4.439  -4.033  -0.769  0.00  0.00    +0.127 A 
ATOM     20  N   UNL     1       4.567  -2.728  -0.654  0.00  0.00    -0.220 NA
BRANCH  15  21
ATOM     21  O   UNL     1       3.818  -0.645   0.022  0.00  0.00    -0.438 OA
BRANCH  21  25
ATOM     22  C   UNL     1       7.146   0.997  -1.781  0.00  0.00    +0.000 A 
ATOM     23  C   UNL     1       6.154   0.423  -2.555  0.00  0.00    +0.004 A 
ATOM     24  C   UNL     1       5.039  -0.127  -1.954  0.00  0.00    +0.046 A 
ATOM     25  C   UNL     1       4.915  -0.104  -0.572  0.00  0.00    +0.130 A 
ATOM     26  C   UNL     1       5.911   0.472   0.202  0.00  0.00    +0.046 A 
ATOM     27  C   UNL     1       7.024   1.021  -0.404  0.00  0.00    +0.004 A 
ENDBRANCH  21  25
ENDBRANCH  15  21
ENDBRANCH   1  18
BRANCH   5  28
ATOM     28  C   UNL     1      -1.608  -6.816  -1.436  0.00  0.00    +0.218 C 
ATOM     29  O   UNL     1      -1.945  -6.822  -0.271  0.00  0.00    -0.275 OA
ATOM     30  N   UNL     1      -2.537  -6.915  -2.406  0.00  0.00    -0.312 N 
ATOM     31  H   UNL     1      -2.268  -6.910  -3.338  0.00  0.00    +0.149 HD
BRANCH  30  32
ATOM     32  C   UNL     1      -3.955  -7.029  -2.055  0.00  0.00    +0.073 C 
ATOM     33  C   UNL     1      -4.330  -8.511  -1.846  0.00  0.00    +0.022 C 
ATOM     34  C   UNL     1      -5.762  -8.625  -2.425  0.00  0.00    +0.002 C 
ATOM     35  C   UNL     1      -5.704  -7.699  -3.666  0.00  0.00    +0.002 C 
ATOM     36  C   UNL     1      -4.828  -6.513  -3.212  0.00  0.00    +0.022 C 
ENDBRANCH  30  32
ENDBRANCH   5  28
TORSDOF 5
