REMARK  Name = ZINC00058713
REMARK  4 active torsions:
REMARK  status: ('A' for Active; 'I' for Inactive)
REMARK    1  A    between atoms: C_4  and  C_7
REMARK    2  A    between atoms: C_10  and  C_13
REMARK    3  A    between atoms: C_15  and  C_26
REMARK    4  A    between atoms: C_16  and  N_25
REMARK                            x       y       z     vdW  Elec       q    Type
REMARK                         _______ _______ _______ _____ _____    ______ ____
ROOT
ATOM      1  C   UNL     1      -5.037   4.211   0.047  0.00  0.00    +0.101 C 
ATOM      2  C   UNL     1      -5.822   3.848  -1.183  0.00  0.00    +0.098 C 
ATOM      3  C   UNL     1      -6.840   2.961  -1.112  0.00  0.00    +0.198 C 
ATOM      4  O   UNL     1      -7.177   2.376   0.048  0.00  0.00    -0.445 OA
ATOM      5  C   UNL     1      -6.826   2.949   1.215  0.00  0.00    +0.115 C 
ATOM      6  C   UNL     1      -5.815   3.834   1.284  0.00  0.00    +0.046 C 
ATOM      7  C   UNL     1      -5.451   4.436   2.505  0.00  0.00    +0.163 C 
ATOM      8  O   UNL     1      -4.519   5.214   2.531  0.00  0.00    -0.292 OA
ATOM      9  C   UNL     1      -6.195   4.130   3.776  0.00  0.00    +0.080 C 
ATOM     10  C   UNL     1      -7.637   3.747   3.425  0.00  0.00    +0.016 C 
ATOM     11  C   UNL     1      -7.602   2.567   2.453  0.00  0.00    +0.075 C 
ENDROOT
BRANCH   1  15
ATOM     12  C   UNL     1      -1.310   2.116   0.020  0.00  0.00    -0.018 A 
ATOM     13  C   UNL     1      -2.510   1.408   0.016  0.00  0.00    +0.009 A 
ATOM     14  C   UNL     1      -3.711   2.090   0.030  0.00  0.00    +0.005 A 
ATOM     15  C   UNL     1      -3.724   3.473   0.038  0.00  0.00    -0.035 A 
ATOM     16  C   UNL     1      -2.535   4.181   0.036  0.00  0.00    +0.005 A 
ATOM     17  C   UNL     1      -1.329   3.510   0.027  0.00  0.00    +0.009 A 
BRANCH  12  21
ATOM     18  C   UNL     1       2.396   0.033  -0.021  0.00  0.00    +0.000 A 
ATOM     19  C   UNL     1       1.208  -0.675  -0.013  0.00  0.00    +0.001 A 
ATOM     20  C   UNL     1       0.002  -0.004   0.002  0.00  0.00    +0.008 A 
ATOM     21  C   UNL     1      -0.017   1.389   0.010  0.00  0.00    -0.018 A 
ATOM     22  C   UNL     1       1.183   2.097   0.002  0.00  0.00    +0.008 A 
ATOM     23  C   UNL     1       2.383   1.416  -0.014  0.00  0.00    +0.001 A 
ENDBRANCH  12  21
ENDBRANCH   1  15
BRANCH   3  24
ATOM     24  N   UNL     1      -7.544   2.652  -2.249  0.00  0.00    -0.328 N 
ATOM     25  H   UNL     1      -8.276   2.017  -2.209  0.00  0.00    +0.145 HD
ATOM     26  H   UNL     1      -7.310   3.069  -3.093  0.00  0.00    +0.145 HD
ENDBRANCH   3  24
BRANCH   2  27
ATOM     27  C   UNL     1      -5.490   4.446  -2.441  0.00  0.00    +0.101 C 
ATOM     28  N   UNL     1      -5.226   4.920  -3.440  0.00  0.00    -0.191 NA
ENDBRANCH   2  27
TORSDOF 4
