REMARK  Name = ZINC22619948
REMARK  13 active torsions:
REMARK  status: ('A' for Active; 'I' for Inactive)
REMARK    1  A    between atoms: C_1  and  N_2
REMARK    2  A    between atoms: N_2  and  C_3
REMARK    3  A    between atoms: N_2  and  C_4
REMARK    4  A    between atoms: C_4  and  C_6
REMARK    5  A    between atoms: C_4  and  C_27
REMARK    6  A    between atoms: C_6  and  N_7
REMARK    7  A    between atoms: C_8  and  C_10
REMARK    8  A    between atoms: C_10  and  C_11
REMARK    9  A    between atoms: C_11  and  N_12
REMARK   10  A    between atoms: N_12  and  S_13
REMARK   11  A    between atoms: S_13  and  C_16
REMARK   12  A    between atoms: C_19  and  O_22
REMARK   13  A    between atoms: O_22  and  C_23
REMARK                            x       y       z     vdW  Elec       q    Type
REMARK                         _______ _______ _______ _____ _____    ______ ____
ROOT
ATOM      1  C   UNL     1      -0.676   2.789  -4.239  0.00  0.00    +0.112 C 
ENDROOT
BRANCH   1   3
ATOM      2  N   UNL     1      -1.743   4.883  -5.013  0.00  0.00    -0.317 N 
ATOM      3  C   UNL     1      -0.834   4.288  -4.215  0.00  0.00    +0.214 C 
ATOM      4  O   UNL     1      -0.143   4.959  -3.477  0.00  0.00    -0.276 OA
ATOM      5  H   UNL     1      -2.370   4.275  -5.681  0.00  0.00    +0.149 HD
BRANCH   2   6
ATOM      6  C   UNL     1      -1.896   6.340  -4.989  0.00  0.00    +0.093 C 
BRANCH   6   7
ATOM      7  C   UNL     1      -2.986   6.754  -5.980  0.00  0.00    -0.020 C 
BRANCH   7   8
ATOM      8  C   UNL     1      -3.059   8.258  -6.047  0.00  0.00    -0.041 A 
ATOM      9  C   UNL     1      -1.934   9.017  -5.783  0.00  0.00    +0.003 A 
ATOM     10  C   UNL     1      -2.001  10.396  -5.844  0.00  0.00    +0.000 A 
ATOM     11  C   UNL     1      -3.193  11.017  -6.168  0.00  0.00    +0.001 A 
ATOM     12  C   UNL     1      -4.318  10.259  -6.432  0.00  0.00    +0.020 A 
ATOM     13  C   UNL     1      -4.250   8.878  -6.377  0.00  0.00    +0.043 A 
ATOM     14 CL   UNL     1      -5.661   7.925  -6.715  0.00  0.00    -0.083 Cl
ENDBRANCH   7   8
BRANCH   7  16
ATOM     15  C   UNL     1      -3.791   6.405  -8.237  0.00  0.00    -0.096 C 
ATOM     16  N   UNL     1      -2.666   6.220  -7.311  0.00  0.00    +0.382 N 
ATOM     17  C   UNL     1      -1.441   6.831  -7.843  0.00  0.00    -0.096 C 
ATOM     18  H   UNL     1      -2.487   5.139  -7.207  0.00  0.00    -0.082 HD
ENDBRANCH   7  16
ENDBRANCH   6   7
ENDBRANCH   2   6
ENDBRANCH   1   3
BRANCH   1  19
ATOM     19  C   UNL     1       0.413   2.375  -3.248  0.00  0.00    +0.115 C 
BRANCH  19  20
ATOM     20  N   UNL     1       0.566   0.918  -3.271  0.00  0.00    -0.189 NA
ATOM     21  H   UNL     1      -0.273   0.282  -3.588  0.00  0.00    +0.148 HD
BRANCH  20  22
ATOM     22  S   UNL     1       1.903   0.215  -2.592  0.00  0.00    +0.058 S 
ATOM     23  O   UNL     1       1.748  -1.188  -2.750  0.00  0.00    -0.153 OA
ATOM     24  O   UNL     1       3.031   0.918  -3.095  0.00  0.00    -0.153 OA
BRANCH  22  25
ATOM     25  C   UNL     1       1.839   0.538  -0.862  0.00  0.00    +0.105 A 
ATOM     26  C   UNL     1       2.437   1.675  -0.349  0.00  0.00    +0.032 A 
ATOM     27  C   UNL     1       2.383   1.934   1.007  0.00  0.00    +0.048 A 
ATOM     28  C   UNL     1       1.739   1.045   1.856  0.00  0.00    +0.130 A 
ATOM     29  C   UNL     1       1.146  -0.098   1.340  0.00  0.00    +0.048 A 
ATOM     30  C   UNL     1       1.197  -0.348  -0.017  0.00  0.00    +0.032 A 
BRANCH  28  31
ATOM     31  O   UNL     1       1.690   1.295   3.191  0.00  0.00    -0.406 OA
BRANCH  31  32
ATOM     32  C   UNL     1       2.322   2.490   3.652  0.00  0.00    +0.575 C 
ATOM     33  F   UNL     1       1.726   3.599   3.040  0.00  0.00    -0.133 F 
ATOM     34  F   UNL     1       2.177   2.590   5.040  0.00  0.00    -0.133 F 
ATOM     35  F   UNL     1       3.682   2.454   3.327  0.00  0.00    -0.133 F 
ENDBRANCH  31  32
ENDBRANCH  28  31
ENDBRANCH  22  25
ENDBRANCH  20  22
ENDBRANCH  19  20
ENDBRANCH   1  19
TORSDOF 11
