REMARK  Name = ZINC32492705
REMARK  9 active torsions:
REMARK  status: ('A' for Active; 'I' for Inactive)
REMARK    1  A    between atoms: C_1  and  C_2
REMARK    2  A    between atoms: C_2  and  N_3
REMARK    3  A    between atoms: N_3  and  C_4
REMARK    4  A    between atoms: C_4  and  C_5
REMARK    5  A    between atoms: N_7  and  C_8
REMARK    6  A    between atoms: C_13  and  C_14
REMARK    7  A    between atoms: C_18  and  C_20
REMARK    8  A    between atoms: C_20  and  C_21
REMARK    9  A    between atoms: C_21  and  N_22
REMARK                            x       y       z     vdW  Elec       q    Type
REMARK                         _______ _______ _______ _____ _____    ______ ____
ROOT
ATOM      1  N   UNL     1       0.003  -0.004  -0.019  0.00  0.00    -0.293 N 
ATOM      2  C   UNL     1       0.016  -0.688   1.143  0.00  0.00    +0.218 C 
ATOM      3  O   UNL     1       0.010  -0.090   2.198  0.00  0.00    -0.276 OA
ENDROOT
BRANCH   1   5
ATOM      4  C   UNL     1       1.454  -0.958  -1.741  0.00  0.00    +0.024 C 
ATOM      5  C   UNL     1       0.010  -0.726  -1.294  0.00  0.00    +0.105 C 
ENDBRANCH   1   5
BRANCH   1   6
ATOM      6  C   UNL     1      -0.017   1.460  -0.007  0.00  0.00    +0.203 C 
BRANCH   6   7
ATOM      7  C   UNL     1       1.396   1.982  -0.006  0.00  0.00    +0.235 C 
ATOM      8  O   UNL     1       2.329   1.207  -0.015  0.00  0.00    -0.274 OA
ATOM      9  N   UNL     1       1.624   3.311   0.004  0.00  0.00    -0.284 N 
ATOM     10  H   UNL     1       0.781   4.014  -0.062  0.00  0.00    +0.155 HD
BRANCH   9  11
ATOM     11  C   UNL     1       2.933   3.795   0.100  0.00  0.00    +0.045 A 
ATOM     12  C   UNL     1       3.977   3.106  -0.505  0.00  0.00    +0.024 A 
ATOM     13  C   UNL     1       5.267   3.590  -0.413  0.00  0.00    +0.002 A 
ATOM     14  C   UNL     1       5.522   4.753   0.290  0.00  0.00    +0.001 A 
ATOM     15  C   UNL     1       4.487   5.439   0.897  0.00  0.00    +0.014 A 
ATOM     16  C   UNL     1       3.193   4.963   0.805  0.00  0.00    +0.076 A 
BRANCH  16  17
ATOM     17  C   UNL     1       2.066   5.710   1.469  0.00  0.00    +0.419 C 
ATOM     18  F   UNL     1       2.572   6.845   2.112  0.00  0.00    -0.166 F 
ATOM     19  F   UNL     1       1.132   6.100   0.502  0.00  0.00    -0.166 F 
ATOM     20  F   UNL     1       1.445   4.880   2.408  0.00  0.00    -0.166 F 
ENDBRANCH  16  17
ENDBRANCH   9  11
ENDBRANCH   6   7
ENDBRANCH   1   6
BRANCH   2  21
ATOM     21  C   UNL     1       0.036  -2.195   1.130  0.00  0.00    +0.117 C 
BRANCH  21  22
ATOM     22  C   UNL     1       0.048  -2.717   2.568  0.00  0.00    +0.135 C 
BRANCH  22  23
ATOM     23  N   UNL     1       0.068  -4.182   2.556  0.00  0.00    -0.298 N 
ATOM     24  C   UNL     1      -1.103  -4.871   2.559  0.00  0.00    +0.202 A 
ATOM     25  N   UNL     1      -1.168  -6.168   2.543  0.00  0.00    -0.237 NA
ATOM     26  C   UNL     1      -0.050  -6.936   2.534  0.00  0.00    +0.078 A 
ATOM     27  C   UNL     1      -0.119  -8.331   2.524  0.00  0.00    +0.028 A 
ATOM     28  C   UNL     1       1.042  -9.071   2.515  0.00  0.00    +0.002 A 
ATOM     29  C   UNL     1       2.283  -8.448   2.516  0.00  0.00    +0.001 A 
ATOM     30  C   UNL     1       2.377  -7.073   2.526  0.00  0.00    +0.015 A 
ATOM     31  C   UNL     1       1.214  -6.306   2.535  0.00  0.00    +0.065 A 
ATOM     32  C   UNL     1       1.253  -4.836   2.547  0.00  0.00    +0.262 A 
ATOM     33  O   UNL     1       2.309  -4.231   2.549  0.00  0.00    -0.267 OA
ENDBRANCH  22  23
ENDBRANCH  21  22
ENDBRANCH   2  21
TORSDOF 8
