REMARK  Name = ZINC45533820
REMARK  7 active torsions:
REMARK  status: ('A' for Active; 'I' for Inactive)
REMARK    1  A    between atoms: C_1  and  C_2
REMARK    2  A    between atoms: C_2  and  C_3
REMARK    3  A    between atoms: C_2  and  C_4
REMARK    4  A    between atoms: C_4  and  C_6
REMARK    5  A    between atoms: C_4  and  N_23
REMARK    6  A    between atoms: C_6  and  N_7
REMARK    7  A    between atoms: N_10  and  N_11
REMARK                            x       y       z     vdW  Elec       q    Type
REMARK                         _______ _______ _______ _____ _____    ______ ____
ROOT
ATOM      1  N   UNL     1      -3.417  -0.677  -1.339  0.00  0.00    -0.300 N 
ATOM      2  C   UNL     1      -4.131  -0.599  -2.480  0.00  0.00    +0.316 C 
ATOM      3  O   UNL     1      -3.629  -0.122  -3.479  0.00  0.00    -0.251 OA
ATOM      4  N   UNL     1      -5.401  -1.050  -2.513  0.00  0.00    -0.219 N 
ATOM      5  H   UNL     1      -3.818  -1.057  -0.542  0.00  0.00    +0.150 HD
ATOM      6  H   UNL     1      -5.914  -0.994  -3.334  0.00  0.00    +0.174 HD
ENDROOT
BRANCH   4   7
ATOM      7  N   UNL     1      -5.979  -1.599  -1.361  0.00  0.00    -0.246 N 
ATOM      8  C   UNL     1      -7.290  -2.064  -1.395  0.00  0.00    +0.158 A 
ATOM      9  C   UNL     1      -7.870  -2.606  -0.247  0.00  0.00    +0.050 A 
ATOM     10  C   UNL     1      -9.177  -3.055  -0.331  0.00  0.00    +0.053 A 
ATOM     11  C   UNL     1      -9.832  -2.937  -1.556  0.00  0.00    +0.176 A 
ATOM     12  N   UNL     1      -9.203  -2.409  -2.592  0.00  0.00    -0.128 NA
ATOM     13  N   UNL     1      -7.993  -1.988  -2.515  0.00  0.00    -0.131 NA
ATOM     14  N   UNL     1     -11.154  -3.378  -1.689  0.00  0.00    -0.220 N 
ATOM     15  C   UNL     1     -11.904  -3.328  -2.820  0.00  0.00    +0.116 A 
ATOM     16  C   UNL     1     -13.119  -3.849  -2.530  0.00  0.00    +0.041 A 
ATOM     17  C   UNL     1     -13.114  -4.230  -1.183  0.00  0.00    +0.135 A 
ATOM     18  N   UNL     1     -11.938  -3.954  -0.681  0.00  0.00    -0.173 NA
ATOM     19  H   UNL     1      -5.466  -1.655  -0.540  0.00  0.00    +0.172 HD
ENDBRANCH   4   7
BRANCH   1  20
ATOM     20  C   UNL     1      -2.037  -0.187  -1.303  0.00  0.00    +0.091 C 
BRANCH  20  21
ATOM     21  C   UNL     1      -1.406  -0.538   0.045  0.00  0.00    -0.048 C 
BRANCH  21  22
ATOM     22  N   UNL     1      -1.176  -1.987   0.116  0.00  0.00    +0.383 N 
ATOM     23  C   UNL     1      -0.325  -2.387  -1.021  0.00  0.00    -0.078 C 
ATOM     24  C   UNL     1       0.394  -3.660  -0.649  0.00  0.00    -0.019 C 
ATOM     25  C   UNL     1      -0.347  -4.901  -1.181  0.00  0.00    -0.002 C 
ATOM     26  C   UNL     1      -1.875  -4.769  -1.018  0.00  0.00    -0.002 C 
ATOM     27  C   UNL     1      -2.261  -4.162   0.306  0.00  0.00    -0.019 C 
ATOM     28  C   UNL     1      -2.412  -2.636   0.137  0.00  0.00    -0.078 C 
ATOM     29  H   UNL     1      -0.687  -2.195   0.974  0.00  0.00    -0.081 HD
ENDBRANCH  21  22
BRANCH  21  31
ATOM     30  C   UNL     1      -0.326   1.705   0.252  0.00  0.00    +0.005 C 
ATOM     31  C   UNL     1      -0.073   0.198   0.192  0.00  0.00    -0.029 C 
ATOM     32  C   UNL     1       0.621  -0.254   1.478  0.00  0.00    +0.005 C 
ENDBRANCH  21  31
ENDBRANCH  20  21
ENDBRANCH   1  20
TORSDOF 5
