REMARK  Name = ZINC03323227
REMARK  9 active torsions:
REMARK  status: ('A' for Active; 'I' for Inactive)
REMARK    1  A    between atoms: C_1  and  C_2
REMARK    2  A    between atoms: C_2  and  N_3
REMARK    3  A    between atoms: C_4  and  C_25
REMARK    4  A    between atoms: C_7  and  S_8
REMARK    5  A    between atoms: S_8  and  C_9
REMARK    6  A    between atoms: C_9  and  C_10
REMARK    7  A    between atoms: N_12  and  C_13
REMARK    8  A    between atoms: C_18  and  N_19
REMARK    9  A    between atoms: C_30  and  C_31
REMARK                            x       y       z     vdW  Elec       q    Type
REMARK                         _______ _______ _______ _____ _____    ______ ____
ROOT
ATOM      1  C   UNL     1       1.286  -7.236   0.047  0.00  0.00    +0.173 C 
ENDROOT
BRANCH   1   2
ATOM      2  C   UNL     1       1.773  -8.662   0.019  0.00  0.00    +0.228 C 
ATOM      3  O   UNL     1       2.962  -8.895  -0.028  0.00  0.00    -0.275 OA
ATOM      4  N   UNL     1       0.887  -9.677   0.046  0.00  0.00    -0.283 N 
ATOM      5  H   UNL     1      -0.064  -9.491   0.015  0.00  0.00    +0.155 HD
BRANCH   4   6
ATOM      6  C   UNL     1       1.341 -11.001   0.118  0.00  0.00    +0.055 A 
ATOM      7  C   UNL     1       2.583 -11.340  -0.397  0.00  0.00    +0.025 A 
ATOM      8  C   UNL     1       3.031 -12.645  -0.319  0.00  0.00    +0.002 A 
ATOM      9  C   UNL     1       2.239 -13.619   0.262  0.00  0.00    +0.002 A 
ATOM     10  C   UNL     1       0.998 -13.291   0.772  0.00  0.00    +0.025 A 
ATOM     11  C   UNL     1       0.542 -11.983   0.704  0.00  0.00    +0.051 A 
BRANCH  11  12
ATOM     12  N   UNL     1      -0.715 -11.649   1.220  0.00  0.00    -0.324 N 
ATOM     13  C   UNL     1      -0.762 -11.868   2.673  0.00  0.00    +0.133 C 
ATOM     14  C   UNL     1      -2.132 -11.435   3.204  0.00  0.00    +0.178 C 
ATOM     15  O   UNL     1      -3.155 -12.157   2.513  0.00  0.00    -0.377 OA
ATOM     16  C   UNL     1      -3.138 -11.966   1.096  0.00  0.00    +0.178 C 
ATOM     17  C   UNL     1      -1.779 -12.405   0.544  0.00  0.00    +0.133 C 
ENDBRANCH  11  12
ENDBRANCH   4   6
ENDBRANCH   1   2
BRANCH   1  18
ATOM     18  S   UNL     1       2.704  -6.112   0.001  0.00  0.00    -0.077 S 
BRANCH  18  23
ATOM     19  N   UNL     1       2.451  -3.327   0.022  0.00  0.00    -0.302 N 
ATOM     20  C   UNL     1       1.412  -2.426   0.073  0.00  0.00    +0.165 A 
ATOM     21  N   UNL     1       0.300  -3.122   0.111  0.00  0.00    -0.128 NA
ATOM     22  N   UNL     1       0.568  -4.378   0.093  0.00  0.00    -0.122 NA
ATOM     23  C   UNL     1       1.869  -4.562   0.043  0.00  0.00    +0.192 A 
BRANCH  20  24
ATOM     24  C   UNL     1       1.527  -0.952   0.078  0.00  0.00    +0.022 A 
ATOM     25  C   UNL     1       2.356  -0.310  -0.844  0.00  0.00    +0.012 A 
ATOM     26  C   UNL     1       2.459   1.065  -0.834  0.00  0.00    +0.001 A 
ATOM     27  C   UNL     1       1.743   1.809   0.088  0.00  0.00    +0.000 A 
ATOM     28  C   UNL     1       0.920   1.179   1.005  0.00  0.00    +0.004 A 
ATOM     29  C   UNL     1       0.808  -0.196   1.005  0.00  0.00    -0.040 A 
ATOM     30  C   UNL     1      -0.088  -0.880   2.005  0.00  0.00    +0.044 C 
ENDBRANCH  20  24
BRANCH  19  32
ATOM     31  C   UNL     1       4.420  -2.813   1.379  0.00  0.00    +0.027 C 
ATOM     32  C   UNL     1       3.883  -3.024  -0.038  0.00  0.00    +0.122 C 
ENDBRANCH  19  32
ENDBRANCH  18  23
ENDBRANCH   1  18
TORSDOF 7
