REMARK  Name = ZINC54314379
REMARK  6 active torsions:
REMARK  status: ('A' for Active; 'I' for Inactive)
REMARK    1  A    between atoms: C_1  and  C_2
REMARK    2  A    between atoms: C_5  and  C_11
REMARK    3  A    between atoms: C_7  and  N_8
REMARK    4  A    between atoms: N_13  and  C_14
REMARK    5  A    between atoms: C_14  and  C_15
REMARK    6  A    between atoms: C_15  and  C_21
REMARK                            x       y       z     vdW  Elec       q    Type
REMARK                         _______ _______ _______ _____ _____    ______ ____
ROOT
ATOM      1  C   UNL     1       1.270  -6.681   0.798  0.00  0.00    +0.244 C 
ATOM      2  O   UNL     1       0.377  -6.340   1.549  0.00  0.00    -0.270 OA
ATOM      3  N   UNL     1       0.993  -6.990  -0.484  0.00  0.00    -0.310 N 
ATOM      4  H   UNL     1       1.706  -7.262  -1.083  0.00  0.00    +0.149 HD
ENDROOT
BRANCH   1   9
ATOM      5  C   UNL     1       6.688  -6.971   2.718  0.00  0.00    +0.046 C 
ATOM      6  C   UNL     1       5.269  -6.896   2.216  0.00  0.00    -0.020 A 
ATOM      7  C   UNL     1       4.987  -7.214   0.899  0.00  0.00    +0.006 A 
ATOM      8  C   UNL     1       3.691  -7.147   0.432  0.00  0.00    +0.013 A 
ATOM      9  C   UNL     1       2.662  -6.756   1.292  0.00  0.00    +0.039 A 
ATOM     10  C   UNL     1       2.953  -6.436   2.618  0.00  0.00    +0.046 A 
ATOM     11  C   UNL     1       4.254  -6.513   3.074  0.00  0.00    +0.130 A 
BRANCH  11  12
ATOM     12  N   UNL     1       4.564  -6.180   4.482  0.00  0.00    +0.057 N 
ATOM     13  O   UNL     1       5.401  -6.812   5.083  0.00  0.00    -0.126 OA
ATOM     14  O   UNL     1       3.979  -5.276   5.032  0.00  0.00    -0.126 OA
ENDBRANCH  11  12
ENDBRANCH   1   9
BRANCH   3  15
ATOM     15  C   UNL     1      -0.386  -6.916  -0.973  0.00  0.00    +0.116 C 
BRANCH  15  16
ATOM     16  C   UNL     1      -0.432  -7.355  -2.438  0.00  0.00    +0.015 C 
ATOM     17  C   UNL     1      -1.857  -7.193  -2.977  0.00  0.00    +0.041 C 
ATOM     18  C   UNL     1      -2.797  -8.116  -2.197  0.00  0.00    +0.160 C 
ATOM     19  O   UNL     1      -2.341  -9.466  -2.312  0.00  0.00    -0.380 OA
ATOM     20  C   UNL     1      -1.033  -9.687  -1.781  0.00  0.00    +0.160 C 
ATOM     21  C   UNL     1      -0.022  -8.827  -2.544  0.00  0.00    +0.041 C 
BRANCH  16  22
ATOM     22  C   UNL     1       0.514  -6.508  -3.248  0.00  0.00    -0.038 A 
ATOM     23  C   UNL     1       1.534  -7.105  -3.966  0.00  0.00    +0.004 A 
ATOM     24  C   UNL     1       2.403  -6.329  -4.710  0.00  0.00    +0.002 A 
ATOM     25  C   UNL     1       2.253  -4.955  -4.736  0.00  0.00    +0.020 A 
ATOM     26  C   UNL     1       1.233  -4.357  -4.018  0.00  0.00    +0.041 A 
ATOM     27  C   UNL     1       0.359  -5.135  -3.279  0.00  0.00    +0.024 A 
ATOM     28 CL   UNL     1       1.043  -2.632  -4.051  0.00  0.00    -0.084 Cl
ENDBRANCH  16  22
ENDBRANCH  15  16
ENDBRANCH   3  15
TORSDOF 5
