REMARK  Name = ZINC39693390
REMARK  11 active torsions:
REMARK  status: ('A' for Active; 'I' for Inactive)
REMARK    1  A    between atoms: C_1  and  C_2
REMARK    2  A    between atoms: C_2  and  C_3
REMARK    3  A    between atoms: C_2  and  C_4
REMARK    4  A    between atoms: C_2  and  O_5
REMARK    5  A    between atoms: O_5  and  C_6
REMARK    6  A    between atoms: N_8  and  C_9
REMARK    7  A    between atoms: C_9  and  C_10
REMARK    8  A    between atoms: C_10  and  N_11
REMARK    9  A    between atoms: C_12  and  C_14
REMARK   10  A    between atoms: C_25  and  C_27
REMARK   11  A    between atoms: C_30  and  C_33
REMARK                            x       y       z     vdW  Elec       q    Type
REMARK                         _______ _______ _______ _____ _____    ______ ____
ROOT
ATOM      1  C   UNL     1       7.588   0.098  -5.724  0.00  0.00    +0.100 C 
ATOM      2  C   UNL     1       7.970   1.594  -5.775  0.00  0.00    +0.121 C 
ATOM      3  N   UNL     1       9.094   1.661  -6.738  0.00  0.00    -0.296 N 
ATOM      4  C   UNL     1       8.719   0.706  -7.809  0.00  0.00    +0.115 C 
ATOM      5  C   UNL     1       8.081  -0.481  -7.061  0.00  0.00    -0.004 C 
ATOM      6  C   UNL     1       6.906  -1.038  -7.860  0.00  0.00    -0.010 C 
ATOM      7  C   UNL     1       7.428  -1.660  -9.158  0.00  0.00    -0.082 C 
ATOM      8  N   UNL     1       8.381  -2.731  -8.841  0.00  0.00    +0.379 N 
ATOM      9  C   UNL     1       9.551  -2.171  -8.154  0.00  0.00    -0.082 C 
ATOM     10  C   UNL     1       9.120  -1.570  -6.814  0.00  0.00    -0.010 C 
ATOM     11  C   UNL     1      10.206   2.419  -6.660  0.00  0.00    +0.247 C 
ATOM     12  O   UNL     1      10.434   3.061  -5.653  0.00  0.00    -0.270 OA
ATOM     13  H   UNL     1       7.935  -3.410  -8.244  0.00  0.00    -0.086 HD
ATOM     14  H   UNL     1       8.677  -3.179  -9.695  0.00  0.00    -0.086 HD
ENDROOT
BRANCH  11  15
ATOM     15  C   UNL     1      11.148   2.469  -7.798  0.00  0.00    +0.037 A 
ATOM     16  C   UNL     1      10.721   2.113  -9.078  0.00  0.00    +0.013 A 
ATOM     17  C   UNL     1      11.605   2.163 -10.136  0.00  0.00    +0.013 A 
ATOM     18  C   UNL     1      12.913   2.564  -9.930  0.00  0.00    +0.055 A 
ATOM     19  C   UNL     1      13.343   2.918  -8.663  0.00  0.00    +0.013 A 
ATOM     20  C   UNL     1      12.467   2.879  -7.598  0.00  0.00    +0.013 A 
BRANCH  18  21
ATOM     21  C   UNL     1      13.873   2.616 -11.090  0.00  0.00    +0.417 C 
ATOM     22  F   UNL     1      13.823   3.883 -11.681  0.00  0.00    -0.166 F 
ATOM     23  F   UNL     1      15.171   2.366 -10.632  0.00  0.00    -0.166 F 
ATOM     24  F   UNL     1      13.517   1.646 -12.033  0.00  0.00    -0.166 F 
ENDBRANCH  18  21
ENDBRANCH  11  15
BRANCH   1  26
ATOM     25  N   UNL     1       5.578  -1.125  -4.961  0.00  0.00    -0.314 N 
ATOM     26  C   UNL     1       6.094  -0.058  -5.603  0.00  0.00    +0.218 C 
ATOM     27  O   UNL     1       5.356   0.776  -6.082  0.00  0.00    -0.275 OA
ATOM     28  H   UNL     1       6.168  -1.793  -4.577  0.00  0.00    +0.149 HD
BRANCH  25  29
ATOM     29  C   UNL     1       4.126  -1.277  -4.843  0.00  0.00    +0.123 C 
BRANCH  29  30
ATOM     30  C   UNL     1       3.808  -2.562  -4.076  0.00  0.00    +0.126 C 
BRANCH  30  33
ATOM     31  C   UNL     1       1.839  -3.781  -3.317  0.00  0.00    +0.401 C 
ATOM     32  O   UNL     1       2.579  -4.617  -2.836  0.00  0.00    -0.226 OA
ATOM     33  N   UNL     1       2.356  -2.714  -3.958  0.00  0.00    -0.280 N 
ATOM     34  H   UNL     1       1.766  -2.047  -4.342  0.00  0.00    +0.152 HD
BRANCH  31  35
ATOM     35  O   UNL     1       0.505  -3.921  -3.209  0.00  0.00    -0.445 OA
BRANCH  35  37
ATOM     36  C   UNL     1       0.557  -5.065  -1.080  0.00  0.00    +0.055 C 
ATOM     37  C   UNL     1       0.027  -5.076  -2.516  0.00  0.00    +0.107 C 
ATOM     38  C   UNL     1       0.516  -6.338  -3.230  0.00  0.00    +0.055 C 
ATOM     39  C   UNL     1      -1.502  -5.062  -2.495  0.00  0.00    +0.055 C 
ENDBRANCH  35  37
ENDBRANCH  31  35
ENDBRANCH  30  33
ENDBRANCH  29  30
ENDBRANCH  25  29
ENDBRANCH   1  26
TORSDOF 8
