REMARK  Name = ZINC08685810
REMARK  10 active torsions:
REMARK  status: ('A' for Active; 'I' for Inactive)
REMARK    1  A    between atoms: C_1  and  C_2
REMARK    2  A    between atoms: N_6  and  C_24
REMARK    3  A    between atoms: C_7  and  C_8
REMARK    4  A    between atoms: C_7  and  C_16
REMARK    5  A    between atoms: C_9  and  C_10
REMARK    6  A    between atoms: N_18  and  C_19
REMARK    7  A    between atoms: C_27  and  S_30
REMARK    8  A    between atoms: S_30  and  N_33
REMARK    9  A    between atoms: N_33  and  C_34
REMARK   10  A    between atoms: N_33  and  C_35
REMARK                            x       y       z     vdW  Elec       q    Type
REMARK                         _______ _______ _______ _____ _____    ______ ____
ROOT
ATOM      1  C   UNL     1       0.059   1.538   0.313  0.00  0.00    +0.020 C 
ATOM      2  C   UNL     1      -0.080   0.028   0.107  0.00  0.00    +0.109 C 
ATOM      3  C   UNL     1      -1.337  -0.557   0.717  0.00  0.00    +0.227 C 
ATOM      4  O   UNL     1      -2.523  -0.428   0.495  0.00  0.00    -0.275 OA
ATOM      5  N   UNL     1      -0.614  -1.282   1.609  0.00  0.00    -0.252 N 
ATOM      6  C   UNL     1       0.701  -0.809   1.132  0.00  0.00    +0.147 C 
ENDROOT
BRANCH   5   7
ATOM      7  C   UNL     1      -0.986  -2.168   2.626  0.00  0.00    +0.038 A 
ATOM      8  C   UNL     1      -0.025  -2.682   3.487  0.00  0.00    +0.025 A 
ATOM      9  C   UNL     1      -0.396  -3.557   4.490  0.00  0.00    +0.030 A 
ATOM     10  C   UNL     1      -1.721  -3.921   4.636  0.00  0.00    +0.106 A 
ATOM     11  C   UNL     1      -2.680  -3.412   3.780  0.00  0.00    +0.030 A 
ATOM     12  C   UNL     1      -2.317  -2.532   2.779  0.00  0.00    +0.025 A 
BRANCH  10  13
ATOM     13  S   UNL     1      -2.190  -5.037   5.917  0.00  0.00    +0.060 S 
ATOM     14  O   UNL     1      -3.406  -5.644   5.501  0.00  0.00    -0.153 OA
ATOM     15  O   UNL     1      -1.032  -5.795   6.239  0.00  0.00    -0.153 OA
BRANCH  13  16
ATOM     16  N   UNL     1      -2.547  -4.128   7.253  0.00  0.00    -0.183 NA
ATOM     17  C   UNL     1      -3.915  -3.648   7.469  0.00  0.00    +0.131 C 
ATOM     18  C   UNL     1      -1.496  -3.801   8.220  0.00  0.00    +0.131 C 
ENDBRANCH  13  16
ENDBRANCH  10  13
ENDBRANCH   5   7
BRANCH   6  19
ATOM     19  C   UNL     1       1.452   0.018   2.144  0.00  0.00    +0.242 C 
ATOM     20  O   UNL     1       2.623   0.280   1.964  0.00  0.00    -0.273 OA
ATOM     21  N   UNL     1       0.824   0.465   3.249  0.00  0.00    -0.310 N 
ATOM     22  H   UNL     1      -0.090   0.196   3.429  0.00  0.00    +0.149 HD
BRANCH  21  23
ATOM     23  C   UNL     1       1.520   1.360   4.176  0.00  0.00    +0.073 C 
ATOM     24  C   UNL     1       2.301   0.534   5.220  0.00  0.00    +0.022 C 
ATOM     25  C   UNL     1       2.154   1.344   6.532  0.00  0.00    +0.002 C 
ATOM     26  C   UNL     1       0.698   1.865   6.450  0.00  0.00    +0.002 C 
ATOM     27  C   UNL     1       0.501   2.206   4.959  0.00  0.00    +0.022 C 
ENDBRANCH  21  23
ENDBRANCH   6  19
BRANCH   6  28
ATOM     28  C   UNL     1       1.547  -1.892   0.512  0.00  0.00    +0.010 C 
ATOM     29  C   UNL     1       1.332  -3.162   0.826  0.00  0.00    +0.006 C 
BRANCH  29  30
ATOM     30  C   UNL     1       2.162  -4.224   0.218  0.00  0.00    -0.025 A 
ATOM     31  C   UNL     1       3.175  -3.892  -0.681  0.00  0.00    +0.008 A 
ATOM     32  C   UNL     1       3.946  -4.888  -1.246  0.00  0.00    +0.001 A 
ATOM     33  C   UNL     1       3.715  -6.213  -0.921  0.00  0.00    +0.000 A 
ATOM     34  C   UNL     1       2.712  -6.548  -0.029  0.00  0.00    +0.001 A 
ATOM     35  C   UNL     1       1.938  -5.561   0.546  0.00  0.00    +0.008 A 
ENDBRANCH  29  30
ENDBRANCH   6  28
TORSDOF 7
