REMARK  Name = ZINC14988439
REMARK  5 active torsions:
REMARK  status: ('A' for Active; 'I' for Inactive)
REMARK    1  A    between atoms: C_5  and  C_6
REMARK    2  A    between atoms: C_7  and  C_19
REMARK    3  A    between atoms: C_19  and  N_53
REMARK    4  A    between atoms: C_20  and  C_21
REMARK    5  A    between atoms: C_20  and  N_53
REMARK                            x       y       z     vdW  Elec       q    Type
REMARK                         _______ _______ _______ _____ _____    ______ ____
ROOT
ATOM      1  C   UNL     1       0.250   1.224  -7.270  0.00  0.00    +0.074 A 
ATOM      2  C   UNL     1       0.769   1.943  -6.181  0.00  0.00    -0.038 A 
ATOM      3  C   UNL     1       1.503   3.070  -6.401  0.00  0.00    +0.014 A 
ATOM      4  C   UNL     1       1.713   3.483  -7.731  0.00  0.00    +0.004 A 
ATOM      5  C   UNL     1       2.459   4.636  -8.025  0.00  0.00    +0.059 A 
ATOM      6  C   UNL     1       2.645   5.012  -9.324  0.00  0.00    +0.167 A 
ATOM      7  C   UNL     1       2.097   4.255 -10.373  0.00  0.00    +0.168 A 
ATOM      8  C   UNL     1       1.368   3.130 -10.115  0.00  0.00    +0.078 A 
ATOM      9  C   UNL     1       1.159   2.718  -8.788  0.00  0.00    +0.075 A 
ATOM     10  N   UNL     1       0.447   1.620  -8.514  0.00  0.00    -0.246 NA
ATOM     11  O   UNL     1       2.433   4.851 -11.555  0.00  0.00    -0.453 OA
ATOM     12  C   UNL     1       2.832   6.191 -11.211  0.00  0.00    +0.466 C 
ATOM     13  O   UNL     1       3.317   6.072  -9.862  0.00  0.00    -0.453 OA
ENDROOT
BRANCH   1  18
ATOM     14  C   UNL     1      -1.738  -0.233  -7.695  0.00  0.00    +0.017 A 
ATOM     15  C   UNL     1      -2.405  -1.375  -7.419  0.00  0.00    +0.046 A 
ATOM     16  S   UNL     1      -1.364  -2.137  -6.188  0.00  0.00    -0.104 S 
ATOM     17  C   UNL     1      -0.121  -0.932  -6.110  0.00  0.00    +0.055 A 
ATOM     18  C   UNL     1      -0.541  -0.002  -7.017  0.00  0.00    +0.008 A 
ENDBRANCH   1  18
BRANCH   2  19
ATOM     19  C   UNL     1       0.519   1.467  -4.773  0.00  0.00    -0.045 C 
BRANCH  19  20
ATOM     20  N   UNL     1       1.022   2.478  -3.824  0.00  0.00    +0.382 N 
ATOM     21  H   UNL     1       0.600   3.387  -4.043  0.00  0.00    -0.085 HD
ATOM     22  H   UNL     1       2.043   2.545  -3.911  0.00  0.00    -0.085 HD
BRANCH  20  23
ATOM     23  C   UNL     1       0.675   2.099  -2.442  0.00  0.00    -0.078 C 
BRANCH  23  24
ATOM     24  C   UNL     1       1.209   3.164  -1.481  0.00  0.00    -0.020 C 
ATOM     25  C   UNL     1       0.399   4.480  -1.616  0.00  0.00    +0.010 C 
ATOM     26  C   UNL     1      -0.226   4.676  -0.192  0.00  0.00    +0.018 C 
ATOM     27  C   UNL     1      -1.219   3.504  -0.088  0.00  0.00    -0.027 C 
ATOM     28  C   UNL     1      -0.528   2.384   0.032  0.00  0.00    -0.027 C 
ATOM     29  C   UNL     1       0.971   2.734   0.007  0.00  0.00    +0.019 C 
ATOM     30  C   UNL     1       0.919   4.122   0.689  0.00  0.00    -0.017 C 
ATOM     31  C   UNL     1       2.109   4.902   1.153  0.00  0.00    +0.008 C 
ATOM     32  C   UNL     1       1.075   4.368   2.158  0.00  0.00    +0.008 C 
ENDBRANCH  23  24
ENDBRANCH  20  23
ENDBRANCH  19  20
ENDBRANCH   2  19
TORSDOF 5
