REMARK  Name = ZINC49987589
REMARK  7 active torsions:
REMARK  status: ('A' for Active; 'I' for Inactive)
REMARK    1  A    between atoms: C_1  and  C_2
REMARK    2  A    between atoms: C_5  and  N_9
REMARK    3  A    between atoms: C_6  and  C_8
REMARK    4  A    between atoms: N_9  and  C_10
REMARK    5  A    between atoms: N_9  and  C_11
REMARK    6  A    between atoms: C_12  and  C_19
REMARK    7  A    between atoms: C_19  and  O_20
REMARK                            x       y       z     vdW  Elec       q    Type
REMARK                         _______ _______ _______ _____ _____    ______ ____
ROOT
ATOM      1  C   UNL     1      -1.075  -4.598   0.705  0.00  0.00    +0.150 A 
ATOM      2  C   UNL     1      -2.292  -4.018   0.680  0.00  0.00    +0.091 A 
ATOM      3  N   UNL     1      -3.128  -4.756   1.522  0.00  0.00    -0.293 N 
ATOM      4  C   UNL     1      -4.438  -4.730   1.949  0.00  0.00    +0.101 A 
ATOM      5  C   UNL     1      -4.896  -5.648   2.799  0.00  0.00    +0.067 A 
ATOM      6  S   UNL     1      -3.447  -6.657   3.069  0.00  0.00    -0.058 S 
ATOM      7  C   UNL     1      -2.336  -5.759   2.011  0.00  0.00    +0.179 A 
ATOM      8  N   UNL     1      -1.131  -5.663   1.523  0.00  0.00    -0.206 NA
ENDROOT
BRANCH   1   9
ATOM      9  N   UNL     1       0.056  -4.168  -0.007  0.00  0.00    -0.286 N 
ATOM     10  C   UNL     1       1.336  -4.859   0.164  0.00  0.00    +0.137 C 
BRANCH   9  15
ATOM     11  C   UNL     1      -0.334   0.251  -3.540  0.00  0.00    +0.044 C 
ATOM     12  C   UNL     1      -0.230  -0.924  -2.601  0.00  0.00    -0.050 A 
ATOM     13  C   UNL     1      -0.463  -2.204  -3.069  0.00  0.00    +0.005 A 
ATOM     14  C   UNL     1      -0.369  -3.282  -2.212  0.00  0.00    +0.024 A 
ATOM     15  C   UNL     1      -0.039  -3.079  -0.877  0.00  0.00    +0.038 A 
ATOM     16  C   UNL     1       0.195  -1.792  -0.411  0.00  0.00    -0.029 A 
ATOM     17  C   UNL     1       0.104  -0.719  -1.275  0.00  0.00    +0.008 A 
ATOM     18  C   UNL     1       0.553  -1.567   1.036  0.00  0.00    +0.045 C 
ENDBRANCH   9  15
ENDBRANCH   1   9
BRANCH   2  19
ATOM     19  C   UNL     1      -2.680  -2.796  -0.112  0.00  0.00    +0.213 C 
BRANCH  19  20
ATOM     20  O   UNL     1      -2.337  -1.622   0.625  0.00  0.00    -0.389 OA
ATOM     21  H   UNL     1      -2.559  -0.795   0.175  0.00  0.00    +0.210 HD
ENDBRANCH  19  20
ENDBRANCH   2  19
TORSDOF 4
