REMARK  Name = ZINC04645992
REMARK  6 active torsions:
REMARK  status: ('A' for Active; 'I' for Inactive)
REMARK    1  A    between atoms: C_1  and  C_2
REMARK    2  A    between atoms: C_9  and  N_14
REMARK    3  A    between atoms: C_10  and  C_11
REMARK    4  A    between atoms: C_15  and  C_17
REMARK    5  A    between atoms: C_17  and  C_18
REMARK    6  A    between atoms: C_18  and  C_19
REMARK                            x       y       z     vdW  Elec       q    Type
REMARK                         _______ _______ _______ _____ _____    ______ ____
ROOT
ATOM      1  C   UNL     1      -7.678  -2.503   0.118  0.00  0.00    +0.008 C 
ATOM      2  C   UNL     1      -6.689  -1.371   0.403  0.00  0.00    -0.009 C 
ATOM      3  C   UNL     1      -7.063  -0.138  -0.425  0.00  0.00    +0.008 C 
ATOM      4  C   UNL     1      -6.239   1.067   0.036  0.00  0.00    +0.037 C 
ATOM      5  C   UNL     1      -4.764   0.684   0.028  0.00  0.00    -0.023 A 
ATOM      6  C   UNL     1      -4.382  -0.611   0.018  0.00  0.00    -0.004 A 
ATOM      7  S   UNL     1      -2.612  -0.560   0.004  0.00  0.00    -0.077 S 
ATOM      8  C   UNL     1      -2.382   1.157   0.020  0.00  0.00    +0.084 A 
ATOM      9  C   UNL     1      -3.679   1.650   0.029  0.00  0.00    +0.068 A 
ATOM     10  C   UNL     1      -5.271  -1.816   0.016  0.00  0.00    +0.046 C 
ENDROOT
BRANCH   9  11
ATOM     11  C   UNL     1      -3.944   3.092   0.038  0.00  0.00    +0.244 C 
ATOM     12  O   UNL     1      -4.059   3.696  -1.012  0.00  0.00    -0.270 OA
ATOM     13  N   UNL     1      -4.061   3.748   1.209  0.00  0.00    -0.325 N 
ATOM     14  H   UNL     1      -3.970   3.266   2.046  0.00  0.00    +0.145 HD
ATOM     15  H   UNL     1      -4.237   4.702   1.215  0.00  0.00    +0.145 HD
ENDBRANCH   9  11
BRANCH   8  16
ATOM     16  N   UNL     1      -1.191   1.867   0.018  0.00  0.00    -0.279 N 
ATOM     17  C   UNL     1      -0.014   1.209   0.009  0.00  0.00    +0.218 C 
ATOM     18  O   UNL     1       0.002  -0.004   0.002  0.00  0.00    -0.275 OA
ATOM     19  H   UNL     1      -1.204   2.837   0.023  0.00  0.00    +0.155 HD
BRANCH  17  20
ATOM     20  C   UNL     1       1.280   1.980   0.001  0.00  0.00    +0.107 C 
BRANCH  20  21
ATOM     21  C   UNL     1       2.457   1.002  -0.016  0.00  0.00    +0.134 C 
BRANCH  21  22
ATOM     22  C   UNL     1       3.751   1.773  -0.024  0.00  0.00    +0.356 C 
ATOM     23  O   UNL     1       3.735   2.981  -0.018  0.00  0.00    -0.246 OA
ATOM     24  O   UNL     1       4.923   1.117  -0.039  0.00  0.00    -0.246 OA
ENDBRANCH  21  22
ENDBRANCH  20  21
ENDBRANCH  17  20
ENDBRANCH   8  16
TORSDOF 5
