REMARK  Name = ZINC67238910
REMARK  9 active torsions:
REMARK  status: ('A' for Active; 'I' for Inactive)
REMARK    1  A    between atoms: C_1  and  C_2
REMARK    2  A    between atoms: C_2  and  C_3
REMARK    3  A    between atoms: C_3  and  C_5
REMARK    4  A    between atoms: C_3  and  N_6
REMARK    5  A    between atoms: C_12  and  C_15
REMARK    6  A    between atoms: C_17  and  S_18
REMARK    7  A    between atoms: S_18  and  C_19
REMARK    8  A    between atoms: C_19  and  C_20
REMARK    9  A    between atoms: N_22  and  C_23
REMARK                            x       y       z     vdW  Elec       q    Type
REMARK                         _______ _______ _______ _____ _____    ______ ____
ROOT
ATOM      1  N   UNL     1      -0.036  -0.154  -2.462  0.00  0.00    -0.283 N 
ATOM      2  C   UNL     1      -1.301  -0.603  -2.611  0.00  0.00    +0.279 A 
ATOM      3  O   UNL     1      -1.811  -1.324  -1.769  0.00  0.00    -0.265 OA
ATOM      4  C   UNL     1      -2.019  -0.221  -3.760  0.00  0.00    +0.131 A 
ATOM      5  C   UNL     1      -1.394   0.608  -4.699  0.00  0.00    +0.097 A 
ATOM      6  C   UNL     1      -2.332   0.827  -5.731  0.00  0.00    +0.051 A 
ATOM      7  C   UNL     1      -3.460   0.159  -5.416  0.00  0.00    +0.016 A 
ATOM      8  N   UNL     1      -3.290  -0.482  -4.226  0.00  0.00    -0.353 N 
ATOM      9  H   UNL     1      -3.954  -1.031  -3.781  0.00  0.00    +0.166 HD
ATOM     10  C   UNL     1      -4.714   0.125  -6.251  0.00  0.00    +0.063 C 
ATOM     11  N   UNL     1      -0.128   1.018  -4.486  0.00  0.00    -0.221 NA
ATOM     12  C   UNL     1       0.525   0.656  -3.406  0.00  0.00    +0.173 A 
ENDROOT
BRANCH   1  13
ATOM     13  C   UNL     1       0.737  -0.535  -1.277  0.00  0.00    +0.089 C 
ATOM     14  C   UNL     1       0.879  -2.058  -1.229  0.00  0.00    +0.031 C 
BRANCH  13  16
ATOM     15  C   UNL     1      -0.019   1.480  -0.007  0.00  0.00    +0.006 C 
ATOM     16  C   UNL     1       0.013  -0.050  -0.019  0.00  0.00    +0.021 C 
ENDBRANCH  13  16
ENDBRANCH   1  13
BRANCH  12  17
ATOM     17  S   UNL     1       2.176   1.228  -3.173  0.00  0.00    -0.078 S 
BRANCH  17  18
ATOM     18  C   UNL     1       2.498   2.249  -4.638  0.00  0.00    +0.173 C 
BRANCH  18  19
ATOM     19  C   UNL     1       3.896   2.807  -4.563  0.00  0.00    +0.228 C 
ATOM     20  O   UNL     1       4.605   2.542  -3.615  0.00  0.00    -0.275 OA
ATOM     21  N   UNL     1       4.358   3.600  -5.550  0.00  0.00    -0.283 N 
ATOM     22  H   UNL     1       3.816   3.760  -6.338  0.00  0.00    +0.155 HD
BRANCH  21  23
ATOM     23  C   UNL     1       5.621   4.194  -5.437  0.00  0.00    +0.069 A 
ATOM     24  C   UNL     1       6.654   3.517  -4.803  0.00  0.00    +0.026 A 
ATOM     25  C   UNL     1       7.900   4.105  -4.694  0.00  0.00    +0.002 A 
ATOM     26  C   UNL     1       8.119   5.368  -5.214  0.00  0.00    +0.003 A 
ATOM     27  C   UNL     1       7.093   6.047  -5.845  0.00  0.00    +0.040 A 
ATOM     28  C   UNL     1       5.845   5.461  -5.964  0.00  0.00    +0.144 A 
ATOM     29  F   UNL     1       4.844   6.122  -6.586  0.00  0.00    -0.204 F 
ENDBRANCH  21  23
ENDBRANCH  18  19
ENDBRANCH  17  18
ENDBRANCH  12  17
TORSDOF 6
