REMARK  Name = ZINC34755671
REMARK  5 active torsions:
REMARK  status: ('A' for Active; 'I' for Inactive)
REMARK    1  A    between atoms: C_1  and  C_2
REMARK    2  A    between atoms: C_5  and  C_8
REMARK    3  A    between atoms: C_8  and  N_9
REMARK    4  A    between atoms: C_14  and  O_24
REMARK    5  A    between atoms: O_24  and  C_25
REMARK                            x       y       z     vdW  Elec       q    Type
REMARK                         _______ _______ _______ _____ _____    ______ ____
ROOT
ATOM      1  N   UNL     1       1.588  -5.182   0.014  0.00  0.00    +0.385 N 
ATOM      2  C   UNL     1       0.422  -5.823   0.640  0.00  0.00    -0.072 C 
ATOM      3  C   UNL     1       0.915  -6.870   1.641  0.00  0.00    +0.037 C 
ATOM      4  C   UNL     1       1.932  -6.250   2.562  0.00  0.00    +0.050 A 
ATOM      5  C   UNL     1       2.546  -5.057   2.255  0.00  0.00    +0.019 A 
ATOM      6  C   UNL     1       3.483  -4.537   3.150  0.00  0.00    +0.226 A 
ATOM      7  N   UNL     1       3.749  -5.206   4.266  0.00  0.00    -0.179 NA
ATOM      8  C   UNL     1       3.135  -6.351   4.528  0.00  0.00    +0.221 A 
ATOM      9  N   UNL     1       2.244  -6.866   3.695  0.00  0.00    -0.219 NA
ATOM     10  N   UNL     1       3.433  -7.023   5.700  0.00  0.00    -0.300 N 
ATOM     11  C   UNL     1       2.863  -8.351   5.966  0.00  0.00    +0.108 C 
ATOM     12  C   UNL     1       4.004  -9.321   6.290  0.00  0.00    +0.019 C 
ATOM     13  C   UNL     1       4.840  -8.754   7.440  0.00  0.00    +0.003 C 
ATOM     14  C   UNL     1       5.450  -7.415   7.017  0.00  0.00    +0.019 C 
ATOM     15  C   UNL     1       4.330  -6.426   6.699  0.00  0.00    +0.108 C 
ATOM     16  C   UNL     1       2.234  -4.302   0.993  0.00  0.00    -0.035 C 
ATOM     17  H   UNL     1       2.242  -5.889  -0.287  0.00  0.00    -0.081 HD
ENDROOT
BRANCH   1  18
ATOM     18  C   UNL     1       1.151  -4.392  -1.145  0.00  0.00    -0.043 C 
BRANCH  18  23
ATOM     19  C   UNL     1       5.773  -2.229  -3.857  0.00  0.00    +0.044 C 
ATOM     20  C   UNL     1       4.568  -2.793  -3.150  0.00  0.00    -0.050 A 
ATOM     21  C   UNL     1       4.070  -4.030  -3.512  0.00  0.00    +0.003 A 
ATOM     22  C   UNL     1       2.965  -4.548  -2.863  0.00  0.00    +0.002 A 
ATOM     23  C   UNL     1       2.357  -3.828  -1.851  0.00  0.00    -0.064 A 
ATOM     24  C   UNL     1       2.856  -2.591  -1.488  0.00  0.00    +0.002 A 
ATOM     25  C   UNL     1       3.964  -2.075  -2.134  0.00  0.00    +0.003 A 
ENDBRANCH  18  23
ENDBRANCH   1  18
BRANCH   6  26
ATOM     26  O   UNL     1       4.113  -3.367   2.884  0.00  0.00    -0.438 OA
BRANCH  26  27
ATOM     27  C   UNL     1       5.043  -2.928   3.772  0.00  0.00    +0.130 A 
ATOM     28  C   UNL     1       6.308  -3.498   3.793  0.00  0.00    +0.046 A 
ATOM     29  C   UNL     1       7.252  -3.049   4.696  0.00  0.00    +0.004 A 
ATOM     30  C   UNL     1       6.938  -2.031   5.578  0.00  0.00    +0.000 A 
ATOM     31  C   UNL     1       5.679  -1.461   5.559  0.00  0.00    +0.004 A 
ATOM     32  C   UNL     1       4.733  -1.903   4.654  0.00  0.00    +0.046 A 
ENDBRANCH  26  27
ENDBRANCH   6  26
TORSDOF 4
