REMARK  Name = ZINC59286862
REMARK  11 active torsions:
REMARK  status: ('A' for Active; 'I' for Inactive)
REMARK    1  A    between atoms: C_1  and  C_2
REMARK    2  A    between atoms: C_5  and  C_37
REMARK    3  A    between atoms: N_8  and  C_10
REMARK    4  A    between atoms: C_10  and  C_11
REMARK    5  A    between atoms: C_16  and  C_17
REMARK    6  A    between atoms: C_17  and  N_18
REMARK    7  A    between atoms: C_19  and  C_21
REMARK    8  A    between atoms: C_21  and  C_22
REMARK    9  A    between atoms: C_22  and  C_23
REMARK   10  A    between atoms: C_23  and  N_24
REMARK   11  A    between atoms: C_28  and  N_34
REMARK                            x       y       z     vdW  Elec       q    Type
REMARK                         _______ _______ _______ _____ _____    ______ ____
ROOT
ATOM      1  N   UNL     1       2.001  -0.039   4.675  0.00  0.00    -0.311 N 
ATOM      2  C   UNL     1       1.155   0.690   5.429  0.00  0.00    +0.213 C 
ATOM      3  O   UNL     1       0.498   1.574   4.921  0.00  0.00    -0.276 OA
ATOM      4  H   UNL     1       2.526  -0.746   5.081  0.00  0.00    +0.149 HD
ENDROOT
BRANCH   1   5
ATOM      5  C   UNL     1       2.126   0.235   3.241  0.00  0.00    +0.139 C 
BRANCH   5  11
ATOM      6  C   UNL     1       2.517  -2.035   2.263  0.00  0.00    -0.059 A 
ATOM      7  C   UNL     1       3.339  -2.980   1.678  0.00  0.00    +0.002 A 
ATOM      8  C   UNL     1       4.669  -2.688   1.442  0.00  0.00    +0.000 A 
ATOM      9  C   UNL     1       5.178  -1.451   1.792  0.00  0.00    +0.000 A 
ATOM     10  C   UNL     1       4.356  -0.506   2.377  0.00  0.00    +0.005 A 
ATOM     11  C   UNL     1       3.024  -0.797   2.608  0.00  0.00    -0.029 A 
BRANCH   6  12
ATOM     12  C   UNL     1       1.066  -2.353   2.520  0.00  0.00    -0.043 C 
BRANCH  12  18
ATOM     13  C   UNL     1       2.236  -5.715   5.881  0.00  0.00    +0.005 C 
ATOM     14  C   UNL     1       1.496  -4.398   5.638  0.00  0.00    -0.031 C 
ATOM     15  C   UNL     1       0.020  -4.564   6.009  0.00  0.00    +0.003 C 
ATOM     16  C   UNL     1      -0.727  -3.266   5.688  0.00  0.00    -0.031 C 
ATOM     17  C   UNL     1      -0.536  -2.927   4.208  0.00  0.00    -0.075 C 
ATOM     18  N   UNL     1       0.894  -2.755   3.922  0.00  0.00    +0.383 N 
ATOM     19  C   UNL     1       1.605  -4.016   4.160  0.00  0.00    -0.075 C 
ATOM     20  C   UNL     1      -2.217  -3.447   5.983  0.00  0.00    +0.005 C 
ATOM     21  H   UNL     1       1.272  -2.039   4.524  0.00  0.00    -0.081 HD
ENDBRANCH  12  18
ENDBRANCH   6  12
ENDBRANCH   5  11
ENDBRANCH   1   5
BRANCH   2  22
ATOM     22  C   UNL     1       1.026   0.407   6.904  0.00  0.00    +0.097 C 
BRANCH  22  23
ATOM     23  C   UNL     1       0.009   1.369   7.520  0.00  0.00    +0.031 C 
BRANCH  23  24
ATOM     24  C   UNL     1      -0.123   1.082   9.017  0.00  0.00    +0.129 C 
BRANCH  24  25
ATOM     25  N   UNL     1      -1.097   2.003   9.608  0.00  0.00    -0.274 N 
ATOM     26  C   UNL     1      -0.822   3.259  10.148  0.00  0.00    +0.090 A 
ATOM     27  C   UNL     1       0.342   3.996  10.300  0.00  0.00    +0.032 A 
ATOM     28  C   UNL     1       0.293   5.244  10.890  0.00  0.00    +0.035 A 
ATOM     29  C   UNL     1      -0.913   5.759  11.330  0.00  0.00    +0.130 A 
ATOM     30  C   UNL     1      -2.078   5.031  11.182  0.00  0.00    +0.081 A 
ATOM     31  C   UNL     1      -2.039   3.777  10.591  0.00  0.00    +0.159 A 
ATOM     32  O   UNL     1      -2.993   2.854  10.318  0.00  0.00    -0.407 OA
ATOM     33  C   UNL     1      -2.423   1.794   9.723  0.00  0.00    +0.421 A 
ATOM     34  O   UNL     1      -3.013   0.799   9.348  0.00  0.00    -0.223 OA
BRANCH  29  35
ATOM     35  N   UNL     1      -0.957   7.097  11.961  0.00  0.00    +0.057 N 
ATOM     36  O   UNL     1       0.060   7.737  12.092  0.00  0.00    -0.126 OA
ATOM     37  O   UNL     1      -2.010   7.550  12.346  0.00  0.00    -0.126 OA
ENDBRANCH  29  35
ENDBRANCH  24  25
ENDBRANCH  23  24
ENDBRANCH  22  23
ENDBRANCH   2  22
TORSDOF 9
