REMARK  Name = ZINC22626388
REMARK  7 active torsions:
REMARK  status: ('A' for Active; 'I' for Inactive)
REMARK    1  A    between atoms: C_1  and  C_2
REMARK    2  A    between atoms: C_6  and  C_8
REMARK    3  A    between atoms: C_8  and  C_10
REMARK    4  A    between atoms: C_8  and  N_20
REMARK    5  A    between atoms: C_16  and  C_18
REMARK    6  A    between atoms: C_23  and  C_26
REMARK    7  A    between atoms: C_26  and  C_27
REMARK                            x       y       z     vdW  Elec       q    Type
REMARK                         _______ _______ _______ _____ _____    ______ ____
ROOT
ATOM      1  C   UNL     1      -0.070   5.347   0.030  0.00  0.00    +0.006 C 
ENDROOT
BRANCH   1   2
ATOM      2  C   UNL     1      -0.311   5.839   1.434  0.00  0.00    +0.050 A 
ATOM      3  C   UNL     1       0.556   6.377   2.300  0.00  0.00    +0.282 A 
ATOM      4  N   UNL     1       0.142   6.772   3.550  0.00  0.00    -0.170 N 
ATOM      5  C   UNL     1      -1.170   6.584   3.861  0.00  0.00    +0.199 A 
ATOM      6  S   UNL     1      -1.825   5.851   2.381  0.00  0.00    -0.050 S 
ATOM      7  N   UNL     1      -1.396   7.005   5.075  0.00  0.00    -0.205 NA
ATOM      8  C   UNL     1      -0.265   7.476   5.596  0.00  0.00    +0.150 A 
ATOM      9  N   UNL     1       0.694   7.359   4.718  0.00  0.00    -0.147 NA
ATOM     10  C   UNL     1      -0.115   8.051   6.981  0.00  0.00    +0.090 C 
ATOM     11  O   UNL     1       1.858   6.537   1.940  0.00  0.00    -0.265 OA
ENDBRANCH   1   2
BRANCH   1  17
ATOM     12  C   UNL     1       2.490   1.048  -0.016  0.00  0.00    +0.044 C 
ATOM     13  C   UNL     1       1.175   1.783   0.000  0.00  0.00    -0.050 A 
ATOM     14  C   UNL     1      -0.013   1.076   0.008  0.00  0.00    +0.003 A 
ATOM     15  C   UNL     1      -1.219   1.750   0.017  0.00  0.00    +0.000 A 
ATOM     16  C   UNL     1      -1.238   3.133   0.030  0.00  0.00    +0.002 A 
ATOM     17  C   UNL     1      -0.050   3.840   0.022  0.00  0.00    -0.056 A 
ATOM     18  C   UNL     1       1.157   3.165   0.008  0.00  0.00    +0.005 A 
ENDBRANCH   1  17
BRANCH   1  19
ATOM     19  N   UNL     1      -1.147   5.827  -0.848  0.00  0.00    +0.387 N 
ATOM     20  C   UNL     1      -1.000   5.284  -2.205  0.00  0.00    -0.077 C 
ATOM     21  C   UNL     1      -2.212   5.684  -3.049  0.00  0.00    -0.015 C 
ATOM     22  C   UNL     1      -2.312   7.211  -3.098  0.00  0.00    -0.010 C 
ATOM     23  C   UNL     1      -2.414   7.754  -1.670  0.00  0.00    -0.015 C 
ATOM     24  C   UNL     1      -1.197   7.294  -0.866  0.00  0.00    -0.077 C 
ATOM     25  H   UNL     1      -2.103   5.463  -0.443  0.00  0.00    -0.080 HD
BRANCH  22  26
ATOM     26  C   UNL     1      -3.555   7.619  -3.891  0.00  0.00    +0.038 C 
BRANCH  26  27
ATOM     27  C   UNL     1      -3.398   7.190  -5.327  0.00  0.00    -0.047 A 
ATOM     28  C   UNL     1      -2.822   8.048  -6.245  0.00  0.00    +0.003 A 
ATOM     29  C   UNL     1      -2.674   7.654  -7.562  0.00  0.00    +0.000 A 
ATOM     30  C   UNL     1      -3.110   6.405  -7.962  0.00  0.00    +0.000 A 
ATOM     31  C   UNL     1      -3.691   5.549  -7.045  0.00  0.00    +0.000 A 
ATOM     32  C   UNL     1      -3.835   5.941  -5.728  0.00  0.00    +0.003 A 
ENDBRANCH  26  27
ENDBRANCH  22  26
ENDBRANCH   1  19
TORSDOF 5
