REMARK  Name = ZINC07985376
REMARK  8 active torsions:
REMARK  status: ('A' for Active; 'I' for Inactive)
REMARK    1  A    between atoms: C_1  and  C_2
REMARK    2  A    between atoms: C_2  and  C_3
REMARK    3  A    between atoms: C_11  and  S_12
REMARK    4  A    between atoms: S_12  and  C_13
REMARK    5  A    between atoms: C_13  and  C_14
REMARK    6  A    between atoms: N_16  and  C_17
REMARK    7  A    between atoms: C_17  and  C_18
REMARK    8  A    between atoms: C_18  and  C_19
REMARK                            x       y       z     vdW  Elec       q    Type
REMARK                         _______ _______ _______ _____ _____    ______ ____
ROOT
ATOM      1  C   UNL     1      -3.914   2.369   0.053  0.00  0.00    +0.171 C 
ENDROOT
BRANCH   1   2
ATOM      2  C   UNL     1      -5.353   2.817   0.070  0.00  0.00    +0.223 C 
ATOM      3  O   UNL     1      -5.620   4.000   0.078  0.00  0.00    -0.275 OA
ATOM      4  N   UNL     1      -6.343   1.902   0.075  0.00  0.00    -0.314 N 
ATOM      5  H   UNL     1      -6.129   0.956   0.068  0.00  0.00    +0.149 HD
BRANCH   4   6
ATOM      6  C   UNL     1      -7.742   2.337   0.090  0.00  0.00    +0.108 C 
BRANCH   6   7
ATOM      7  C   UNL     1      -8.657   1.111   0.093  0.00  0.00    +0.049 C 
BRANCH   7   8
ATOM      8  C   UNL     1     -10.096   1.559   0.109  0.00  0.00    -0.072 C 
ATOM      9  C   UNL     1     -10.716   1.649  -1.023  0.00  0.00    -0.028 C 
ATOM     10  C   UNL     1     -12.144   2.089  -1.167  0.00  0.00    +0.027 C 
ATOM     11  C   UNL     1     -12.862   1.998   0.181  0.00  0.00    +0.004 C 
ATOM     12  C   UNL     1     -11.997   2.692   1.240  0.00  0.00    +0.005 C 
ATOM     13  C   UNL     1     -10.723   1.865   1.438  0.00  0.00    +0.030 C 
ENDBRANCH   7   8
ENDBRANCH   6   7
ENDBRANCH   4   6
ENDBRANCH   1   2
BRANCH   1  14
ATOM     14  S   UNL     1      -2.831   3.820   0.050  0.00  0.00    -0.096 S 
BRANCH  14  23
ATOM     15  C   UNL     1       1.353   5.749   0.020  0.00  0.00    -0.008 A 
ATOM     16  C   UNL     1       0.112   5.240   0.029  0.00  0.00    +0.024 A 
ATOM     17  C   UNL     1      -0.063   3.799   0.023  0.00  0.00    +0.040 A 
ATOM     18  C   UNL     1       1.137   3.055   0.008  0.00  0.00    +0.113 A 
ATOM     19  S   UNL     1       2.396   4.304   0.002  0.00  0.00    -0.074 S 
ATOM     20  N   UNL     1       1.129   1.736   0.001  0.00  0.00    -0.228 NA
ATOM     21  C   UNL     1      -0.013   1.076   0.008  0.00  0.00    +0.223 A 
ATOM     22  N   UNL     1      -1.173   1.706   0.017  0.00  0.00    -0.229 NA
ATOM     23  C   UNL     1      -1.258   3.027   0.031  0.00  0.00    +0.109 A 
BRANCH  15  25
ATOM     24  C   UNL     1       1.921   7.682   1.467  0.00  0.00    +0.009 C 
ATOM     25  C   UNL     1       1.767   7.199   0.023  0.00  0.00    +0.039 C 
ENDBRANCH  15  25
ENDBRANCH  14  23
ENDBRANCH   1  14
TORSDOF 7
