REMARK  Name = ZINC10395748
REMARK  10 active torsions:
REMARK  status: ('A' for Active; 'I' for Inactive)
REMARK    1  A    between atoms: C_1  and  O_2
REMARK    2  A    between atoms: O_2  and  C_3
REMARK    3  A    between atoms: C_5  and  C_13
REMARK    4  A    between atoms: C_7  and  O_11
REMARK    5  A    between atoms: C_8  and  O_9
REMARK    6  A    between atoms: O_9  and  C_10
REMARK    7  A    between atoms: O_11  and  C_12
REMARK    8  A    between atoms: C_16  and  S_18
REMARK    9  A    between atoms: S_18  and  C_19
REMARK   10  A    between atoms: C_19  and  C_20
REMARK                            x       y       z     vdW  Elec       q    Type
REMARK                         _______ _______ _______ _____ _____    ______ ____
ROOT
ATOM      1  S   UNL     1       1.840   1.249   7.341  0.00  0.00    -0.058 S 
ENDROOT
BRANCH   1   5
ATOM      2  C   UNL     1       3.459   2.274  10.714  0.00  0.00    +0.249 A 
ATOM      3  N   UNL     1       3.459   3.410  10.059  0.00  0.00    -0.106 NA
ATOM      4  N   UNL     1       2.947   3.231   8.893  0.00  0.00    -0.101 NA
ATOM      5  C   UNL     1       2.590   1.975   8.760  0.00  0.00    +0.278 A 
ATOM      6  O   UNL     1       2.908   1.342   9.905  0.00  0.00    -0.411 OA
BRANCH   2   9
ATOM      7  C   UNL     1       4.987   2.907  14.089  0.00  0.00    +0.166 A 
ATOM      8  C   UNL     1       4.513   3.116  12.806  0.00  0.00    +0.063 A 
ATOM      9  C   UNL     1       3.967   2.054  12.084  0.00  0.00    +0.046 A 
ATOM     10  C   UNL     1       3.897   0.784  12.660  0.00  0.00    +0.063 A 
ATOM     11  C   UNL     1       4.377   0.579  13.941  0.00  0.00    +0.166 A 
ATOM     12  C   UNL     1       4.921   1.640  14.659  0.00  0.00    +0.204 A 
BRANCH   7  14
ATOM     13  C   UNL     1       5.556   5.216  14.148  0.00  0.00    +0.277 C 
ATOM     14  O   UNL     1       5.519   3.942  14.794  0.00  0.00    -0.491 OA
ENDBRANCH   7  14
BRANCH  12  15
ATOM     15  O   UNL     1       5.387   1.437  15.921  0.00  0.00    -0.488 OA
ATOM     16  C   UNL     1       4.458   1.612  16.992  0.00  0.00    +0.277 C 
ENDBRANCH  12  15
BRANCH  11  17
ATOM     17  O   UNL     1       4.313  -0.658  14.501  0.00  0.00    -0.491 OA
ATOM     18  C   UNL     1       3.743  -1.701  13.707  0.00  0.00    +0.277 C 
ENDBRANCH  11  17
ENDBRANCH   2   9
ENDBRANCH   1   5
BRANCH   1  19
ATOM     19  C   UNL     1       1.741   2.699   6.261  0.00  0.00    +0.155 C 
BRANCH  19  20
ATOM     20  C   UNL     1       1.113   2.306   4.949  0.00  0.00    +0.143 A 
ATOM     21  N   UNL     1       1.886   1.892   3.961  0.00  0.00    -0.216 NA
ATOM     22  C   UNL     1       1.396   1.533   2.785  0.00  0.00    +0.128 A 
ATOM     23  C   UNL     1      -0.010   1.594   2.575  0.00  0.00    +0.051 A 
ATOM     24  C   UNL     1      -0.771   1.244   1.367  0.00  0.00    -0.025 A 
ATOM     25  C   UNL     1      -2.105   1.407   1.426  0.00  0.00    -0.004 A 
ATOM     26  S   UNL     1      -2.433   1.997   3.067  0.00  0.00    -0.073 S 
ATOM     27  C   UNL     1      -0.768   2.045   3.672  0.00  0.00    +0.114 A 
ATOM     28  N   UNL     1      -0.197   2.383   4.812  0.00  0.00    -0.224 NA
ATOM     29  C   UNL     1      -3.107   1.150   0.343  0.00  0.00    +0.043 C 
ATOM     30  C   UNL     1      -2.857  -0.237  -0.263  0.00  0.00    +0.005 C 
ATOM     31  C   UNL     1      -1.872  -0.085  -1.417  0.00  0.00    +0.001 C 
ATOM     32  C   UNL     1      -0.888   1.045  -1.120  0.00  0.00    +0.005 C 
ATOM     33  C   UNL     1      -0.064   0.721   0.120  0.00  0.00    +0.037 C 
ATOM     34  N   UNL     1       2.239   1.105   1.775  0.00  0.00    -0.343 N 
ATOM     35  H   UNL     1       1.911   0.493   1.098  0.00  0.00    +0.144 HD
ATOM     36  H   UNL     1       3.157   1.416   1.745  0.00  0.00    +0.144 HD
ENDBRANCH  19  20
ENDBRANCH   1  19
TORSDOF 7
