REMARK  Name = ZINC01861216
REMARK  8 active torsions:
REMARK  status: ('A' for Active; 'I' for Inactive)
REMARK    1  A    between atoms: C_1  and  O_2
REMARK    2  A    between atoms: O_2  and  C_3
REMARK    3  A    between atoms: C_5  and  C_13
REMARK    4  A    between atoms: C_7  and  O_11
REMARK    5  A    between atoms: C_8  and  O_9
REMARK    6  A    between atoms: O_9  and  C_10
REMARK    7  A    between atoms: O_11  and  C_12
REMARK    8  A    between atoms: N_18  and  C_19
REMARK                            x       y       z     vdW  Elec       q    Type
REMARK                         _______ _______ _______ _____ _____    ______ ____
ROOT
ATOM      1  C   UNL     1       3.697   0.057  -4.045  0.00  0.00    +0.028 C 
ATOM      2  C   UNL     1       3.760   1.396  -3.832  0.00  0.00    +0.078 C 
ATOM      3  C   UNL     1       3.489   2.161  -2.599  0.00  0.00    +0.256 C 
ATOM      4  N   UNL     1       3.627   3.474  -2.666  0.00  0.00    -0.260 N 
ATOM      5  C   UNL     1       4.007   4.082  -3.843  0.00  0.00    +0.166 C 
ATOM      6  N   UNL     1       4.189   5.361  -4.081  0.00  0.00    -0.224 NA
ATOM      7  S   UNL     1       4.200   2.706  -4.965  0.00  0.00    -0.049 S 
ATOM      8  O   UNL     1       3.154   1.608  -1.568  0.00  0.00    -0.269 OA
ATOM      9  H   UNL     1       3.459   4.016  -1.879  0.00  0.00    +0.157 HD
ENDROOT
BRANCH   6  10
ATOM     10  C   UNL     1       4.448   5.790  -5.355  0.00  0.00    +0.085 A 
ATOM     11  C   UNL     1       3.632   5.383  -6.412  0.00  0.00    +0.031 A 
ATOM     12  C   UNL     1       3.898   5.819  -7.693  0.00  0.00    +0.022 A 
ATOM     13  C   UNL     1       4.972   6.660  -7.933  0.00  0.00    +0.042 A 
ATOM     14  C   UNL     1       5.786   7.068  -6.890  0.00  0.00    +0.042 A 
ATOM     15  C   UNL     1       5.528   6.643  -5.602  0.00  0.00    +0.068 A 
ATOM     16 CL   UNL     1       6.545   7.161  -4.294  0.00  0.00    -0.081 Cl
ATOM     17 CL   UNL     1       5.300   7.203  -9.549  0.00  0.00    -0.083 Cl
ENDBRANCH   6  10
BRANCH   1  20
ATOM     18  C   UNL     1       1.512  -1.255  -1.292  0.00  0.00    +0.166 A 
ATOM     19  C   UNL     1       2.031  -0.421  -2.264  0.00  0.00    +0.057 A 
ATOM     20  C   UNL     1       3.143  -0.827  -3.012  0.00  0.00    -0.017 A 
ATOM     21  C   UNL     1       3.725  -2.077  -2.771  0.00  0.00    +0.057 A 
ATOM     22  C   UNL     1       3.200  -2.906  -1.798  0.00  0.00    +0.166 A 
ATOM     23  C   UNL     1       2.098  -2.496  -1.052  0.00  0.00    +0.204 A 
BRANCH  18  25
ATOM     24  C   UNL     1      -0.118   0.423  -0.864  0.00  0.00    +0.277 C 
ATOM     25  O   UNL     1       0.432  -0.862  -0.565  0.00  0.00    -0.491 OA
ENDBRANCH  18  25
BRANCH  23  26
ATOM     26  O   UNL     1       1.588  -3.312  -0.092  0.00  0.00    -0.488 OA
ATOM     27  C   UNL     1       0.571  -4.232  -0.495  0.00  0.00    +0.277 C 
ENDBRANCH  23  26
BRANCH  22  28
ATOM     28  O   UNL     1       3.764  -4.121  -1.564  0.00  0.00    -0.491 OA
ATOM     29  C   UNL     1       4.896  -4.475  -2.361  0.00  0.00    +0.277 C 
ENDBRANCH  22  28
ENDBRANCH   1  20
TORSDOF 5
