REMARK  Name = ZINC17749652
REMARK  7 active torsions:
REMARK  status: ('A' for Active; 'I' for Inactive)
REMARK    1  A    between atoms: C_1  and  C_2
REMARK    2  A    between atoms: C_2  and  C_4
REMARK    3  A    between atoms: C_2  and  S_17
REMARK    4  A    between atoms: N_6  and  C_7
REMARK    5  A    between atoms: C_9  and  N_14
REMARK    6  A    between atoms: S_17  and  C_18
REMARK    7  A    between atoms: C_21  and  C_24
REMARK                            x       y       z     vdW  Elec       q    Type
REMARK                         _______ _______ _______ _____ _____    ______ ____
ROOT
ATOM      1  C   UNL     1       3.601  -1.802   1.287  0.00  0.00    +0.029 C 
ATOM      2  C   UNL     1       4.105  -1.196  -0.025  0.00  0.00    +0.137 C 
ENDROOT
BRANCH   2   3
ATOM      3  C   UNL     1       5.578  -1.475  -0.175  0.00  0.00    +0.230 C 
ATOM      4  O   UNL     1       6.391  -0.650   0.183  0.00  0.00    -0.274 OA
ATOM      5  N   UNL     1       5.992  -2.643  -0.706  0.00  0.00    -0.283 N 
ATOM      6  H   UNL     1       5.345  -3.329  -0.932  0.00  0.00    +0.155 HD
BRANCH   5   7
ATOM      7  C   UNL     1       7.355  -2.865  -0.932  0.00  0.00    +0.054 A 
ATOM      8  C   UNL     1       8.299  -2.341  -0.059  0.00  0.00    +0.057 A 
ATOM      9  C   UNL     1       9.644  -2.562  -0.284  0.00  0.00    +0.128 A 
ATOM     10  C   UNL     1      10.051  -3.305  -1.378  0.00  0.00    +0.034 A 
ATOM     11  C   UNL     1       9.114  -3.827  -2.250  0.00  0.00    +0.024 A 
ATOM     12  C   UNL     1       7.766  -3.614  -2.027  0.00  0.00    +0.062 A 
ATOM     13 CL   UNL     1       6.590  -4.277  -3.119  0.00  0.00    -0.082 Cl
BRANCH   9  14
ATOM     14  N   UNL     1      10.651  -2.005   0.646  0.00  0.00    +0.056 N 
ATOM     15  O   UNL     1      10.293  -1.351   1.610  0.00  0.00    -0.126 OA
ATOM     16  O   UNL     1      11.837  -2.199   0.449  0.00  0.00    -0.126 OA
ENDBRANCH   9  14
ENDBRANCH   5   7
ENDBRANCH   2   3
BRANCH   2  17
ATOM     17  S   UNL     1       3.829   0.593  -0.007  0.00  0.00    -0.075 S 
BRANCH  17  18
ATOM     18  C   UNL     1       2.068   0.631   0.022  0.00  0.00    +0.167 A 
ATOM     19  N   UNL     1       1.298   1.754   0.043  0.00  0.00    -0.333 N 
ATOM     20  H   UNL     1       1.624   2.700   0.046  0.00  0.00    +0.168 HD
ATOM     21  C   UNL     1      -0.022   1.336   0.062  0.00  0.00    +0.067 A 
ATOM     22  C   UNL     1       0.000  -0.022   0.051  0.00  0.00    +0.139 A 
ATOM     23  N   UNL     1       1.279  -0.420   0.026  0.00  0.00    -0.230 NA
BRANCH  21  24
ATOM     24  C   UNL     1      -1.221   2.200   0.083  0.00  0.00    +0.000 A 
ATOM     25  C   UNL     1      -1.084   3.589   0.098  0.00  0.00    +0.013 A 
ATOM     26  C   UNL     1      -2.207   4.390   0.113  0.00  0.00    +0.039 A 
ATOM     27  C   UNL     1      -3.469   3.819   0.123  0.00  0.00    +0.123 A 
ATOM     28  C   UNL     1      -3.611   2.440   0.114  0.00  0.00    +0.039 A 
ATOM     29  C   UNL     1      -2.495   1.630   0.095  0.00  0.00    +0.013 A 
ATOM     30  F   UNL     1      -4.565   4.608   0.143  0.00  0.00    -0.205 F 
ENDBRANCH  21  24
ENDBRANCH  17  18
ENDBRANCH   2  17
TORSDOF 6
