REMARK  Name = ZINC08802767
REMARK  11 active torsions:
REMARK  status: ('A' for Active; 'I' for Inactive)
REMARK    1  A    between atoms: C_1  and  O_2
REMARK    2  A    between atoms: O_2  and  C_3
REMARK    3  A    between atoms: C_6  and  C_11
REMARK    4  A    between atoms: C_8  and  O_9
REMARK    5  A    between atoms: O_9  and  C_10
REMARK    6  A    between atoms: C_11  and  C_12
REMARK    7  A    between atoms: C_12  and  N_14
REMARK    8  A    between atoms: N_16  and  C_28
REMARK    9  A    between atoms: C_20  and  S_24
REMARK   10  A    between atoms: S_24  and  N_27
REMARK   11  A    between atoms: C_28  and  C_29
REMARK                            x       y       z     vdW  Elec       q    Type
REMARK                         _______ _______ _______ _____ _____    ______ ____
ROOT
ATOM      1  N   UNL     1       1.580   1.856  -2.409  0.00  0.00    -0.156 NA
ATOM      2  C   UNL     1       2.023   2.101  -1.177  0.00  0.00    +0.167 A 
ATOM      3  N   UNL     1       1.394   1.872   0.006  0.00  0.00    -0.310 N 
ATOM      4  C   UNL     1       2.014   2.200   1.196  0.00  0.00    +0.059 A 
ATOM      5  C   UNL     1       1.532   2.035   2.505  0.00  0.00    +0.029 A 
ATOM      6  C   UNL     1       2.291   2.414   3.586  0.00  0.00    +0.030 A 
ATOM      7  C   UNL     1       3.552   2.963   3.422  0.00  0.00    +0.106 A 
ATOM      8  C   UNL     1       4.054   3.132   2.144  0.00  0.00    +0.045 A 
ATOM      9  C   UNL     1       3.296   2.753   1.061  0.00  0.00    +0.041 A 
ATOM     10  S   UNL     1       3.540   2.789  -0.697  0.00  0.00    -0.052 S 
ENDROOT
BRANCH   7  11
ATOM     11  S   UNL     1       4.506   3.441   4.824  0.00  0.00    +0.056 S 
ATOM     12  O   UNL     1       4.029   2.673   5.920  0.00  0.00    -0.153 OA
ATOM     13  O   UNL     1       5.867   3.421   4.416  0.00  0.00    -0.153 OA
BRANCH  11  14
ATOM     14  N   UNL     1       4.134   5.020   5.155  0.00  0.00    -0.204 NA
ATOM     15  H   UNL     1       3.490   5.492   4.604  0.00  0.00    +0.144 HD
ATOM     16  H   UNL     1       4.559   5.473   5.899  0.00  0.00    +0.144 HD
ENDBRANCH  11  14
ENDBRANCH   7  11
BRANCH   1  17
ATOM     17  C   UNL     1       0.319   1.482  -2.599  0.00  0.00    +0.243 C 
ATOM     18  O   UNL     1      -0.588   2.254  -2.354  0.00  0.00    -0.273 OA
BRANCH  17  19
ATOM     19  C   UNL     1       0.014   0.101  -3.119  0.00  0.00    +0.133 C 
BRANCH  19  23
ATOM     20  C   UNL     1      -4.221  -0.386  -3.470  0.00  0.00    +0.161 A 
ATOM     21  C   UNL     1      -3.578  -0.719  -2.289  0.00  0.00    +0.049 A 
ATOM     22  C   UNL     1      -2.208  -0.566  -2.180  0.00  0.00    +0.008 A 
ATOM     23  C   UNL     1      -1.478  -0.070  -3.245  0.00  0.00    -0.035 A 
ATOM     24  C   UNL     1      -2.114   0.264  -4.426  0.00  0.00    +0.053 A 
ATOM     25  C   UNL     1      -3.485   0.108  -4.544  0.00  0.00    +0.162 A 
BRANCH  20  27
ATOM     26  C   UNL     1      -6.257  -1.052  -2.438  0.00  0.00    +0.277 C 
ATOM     27  O   UNL     1      -5.567  -0.540  -3.581  0.00  0.00    -0.491 OA
ENDBRANCH  20  27
BRANCH  25  28
ATOM     28  O   UNL     1      -4.112   0.437  -5.705  0.00  0.00    -0.491 OA
ATOM     29  C   UNL     1      -3.294   0.938  -6.764  0.00  0.00    +0.277 C 
ENDBRANCH  25  28
ENDBRANCH  19  23
ENDBRANCH  17  19
ENDBRANCH   1  17
BRANCH   3  30
ATOM     30  C   UNL     1       0.053   1.281   0.019  0.00  0.00    +0.212 C 
BRANCH  30  31
ATOM     31  C   UNL     1      -0.955   2.353   0.079  0.00  0.00    -0.084 C 
ATOM     32  C   UNL     1      -1.758   3.207   0.127  0.00  0.00    +0.005 C 
ENDBRANCH  30  31
ENDBRANCH   3  30
TORSDOF 9
