REMARK  Name = ZINC11871863
REMARK  11 active torsions:
REMARK  status: ('A' for Active; 'I' for Inactive)
REMARK    1  A    between atoms: C_1  and  C_2
REMARK    2  A    between atoms: C_2  and  N_3
REMARK    3  A    between atoms: C_4  and  C_34
REMARK    4  A    between atoms: C_5  and  C_9
REMARK    5  A    between atoms: C_6  and  C_8
REMARK    6  A    between atoms: C_9  and  N_71
REMARK    7  A    between atoms: C_12  and  C_15
REMARK    8  A    between atoms: C_15  and  C_26
REMARK    9  A    between atoms: N_18  and  C_22
REMARK   10  A    between atoms: C_22  and  C_23
REMARK   11  A    between atoms: C_26  and  C_27
REMARK                            x       y       z     vdW  Elec       q    Type
REMARK                         _______ _______ _______ _____ _____    ______ ____
ROOT
ATOM      1  C   UNL     1       0.640   3.376   0.014  0.00  0.00    +0.119 C 
ATOM      2  C   UNL     1      -0.871   3.261   0.028  0.00  0.00    +0.247 C 
ATOM      3  O   UNL     1      -1.675   4.169   0.040  0.00  0.00    -0.273 OA
ATOM      4  N   UNL     1      -1.137   1.940   0.018  0.00  0.00    -0.224 N 
ATOM      5  C   UNL     1      -0.014   1.211   0.009  0.00  0.00    +0.309 C 
ATOM      6  O   UNL     1       0.002  -0.004   0.002  0.00  0.00    -0.252 OA
ATOM      7  N   UNL     1       1.094   1.974   0.002  0.00  0.00    -0.284 N 
ATOM      8  H   UNL     1       2.012   1.662  -0.008  0.00  0.00    +0.151 HD
ENDROOT
BRANCH   1  11
ATOM      9  C   UNL     1       0.886   4.249  -3.727  0.00  0.00    -0.078 C 
ATOM     10  C   UNL     1       0.457   3.477  -2.477  0.00  0.00    -0.013 C 
ATOM     11  C   UNL     1       1.113   4.105  -1.245  0.00  0.00    +0.018 C 
ATOM     12  C   UNL     1       0.715   5.581  -1.161  0.00  0.00    -0.013 C 
ATOM     13  C   UNL     1       1.136   6.292  -2.449  0.00  0.00    -0.078 C 
ATOM     14  N   UNL     1       0.452   5.656  -3.595  0.00  0.00    +0.382 N 
ATOM     15  H   UNL     1      -0.561   5.678  -3.431  0.00  0.00    -0.081 HD
BRANCH  14  16
ATOM     16  C   UNL     1       0.754   6.396  -4.837  0.00  0.00    -0.039 C 
BRANCH  16  19
ATOM     17  N   UNL     1      -1.338   9.382  -4.926  0.00  0.00    -0.268 N 
ATOM     18  C   UNL     1      -1.142   8.069  -5.168  0.00  0.00    +0.038 A 
ATOM     19  C   UNL     1       0.110   7.756  -4.760  0.00  0.00    -0.021 A 
ATOM     20  C   UNL     1       0.702   8.920  -4.259  0.00  0.00    +0.062 A 
ATOM     21  N   UNL     1      -0.165   9.895  -4.358  0.00  0.00    -0.176 NA
ATOM     22  C   UNL     1       2.098   9.032  -3.702  0.00  0.00    +0.068 C 
ATOM     23  C   UNL     1      -2.140   7.120  -5.780  0.00  0.00    +0.065 C 
BRANCH  17  25
ATOM     24  C   UNL     1      -2.483  10.714  -6.628  0.00  0.00    +0.029 C 
ATOM     25  C   UNL     1      -2.559  10.138  -5.212  0.00  0.00    +0.140 C 
ENDBRANCH  17  25
ENDBRANCH  16  19
ENDBRANCH  14  16
ENDBRANCH   1  11
BRANCH   4  26
ATOM     26  C   UNL     1      -2.487   1.371   0.020  0.00  0.00    +0.121 C 
BRANCH  26  27
ATOM     27  C   UNL     1      -2.951   1.165   1.463  0.00  0.00    +0.007 C 
ATOM     28  C   UNL     1      -3.219  -0.270   1.921  0.00  0.00    +0.005 C 
ATOM     29  C   UNL     1      -4.388   0.687   1.681  0.00  0.00    +0.005 C 
ENDBRANCH  26  27
ENDBRANCH   4  26
BRANCH   1  30
ATOM     30  C   UNL     1       1.140   4.093   1.270  0.00  0.00    +0.072 C 
BRANCH  30  31
ATOM     31  C   UNL     1       0.721   3.317   2.492  0.00  0.00    -0.027 A 
ATOM     32  C   UNL     1      -0.436   3.659   3.165  0.00  0.00    +0.005 A 
ATOM     33  C   UNL     1      -0.823   2.945   4.283  0.00  0.00    +0.000 A 
ATOM     34  C   UNL     1      -0.047   1.894   4.735  0.00  0.00    +0.001 A 
ATOM     35  C   UNL     1       1.113   1.554   4.066  0.00  0.00    +0.020 A 
ATOM     36  C   UNL     1       1.498   2.265   2.944  0.00  0.00    +0.044 A 
ATOM     37 CL   UNL     1       2.956   1.839   2.103  0.00  0.00    -0.083 Cl
ENDBRANCH  30  31
ENDBRANCH   1  30
TORSDOF 8
