REMARK  Name = ZINC13000086
REMARK  4 active torsions:
REMARK  status: ('A' for Active; 'I' for Inactive)
REMARK    1  A    between atoms: C_4  and  C_7
REMARK    2  A    between atoms: N_9  and  C_10
REMARK    3  A    between atoms: C_15  and  N_16
REMARK    4  A    between atoms: C_15  and  N_59
REMARK                            x       y       z     vdW  Elec       q    Type
REMARK                         _______ _______ _______ _____ _____    ______ ____
ROOT
ATOM      1  C   UNL     1       3.652   6.039   0.001  0.00  0.00    +0.070 C 
ATOM      2  C   UNL     1       4.165   6.194   1.435  0.00  0.00    +0.004 C 
ATOM      3  C   UNL     1       5.444   7.035   1.427  0.00  0.00    -0.075 C 
ATOM      4  C   UNL     1       4.713   8.232  -0.549  0.00  0.00    -0.075 C 
ATOM      5  C   UNL     1       3.412   7.427  -0.600  0.00  0.00    +0.004 C 
ATOM      6  N   UNL     1       5.139   8.366   0.860  0.00  0.00    +0.391 N 
ATOM      7  H   UNL     1       4.377   8.791   1.400  0.00  0.00    -0.079 HD
ENDROOT
BRANCH   1  10
ATOM      8  C   UNL     1       2.420   3.937   0.001  0.00  0.00    +0.244 C 
ATOM      9  O   UNL     1       3.483   3.348  -0.012  0.00  0.00    -0.270 OA
ATOM     10  N   UNL     1       2.397   5.285   0.008  0.00  0.00    -0.309 N 
ATOM     11  H   UNL     1       1.548   5.755   0.018  0.00  0.00    +0.149 HD
BRANCH   8  15
ATOM     12  C   UNL     1      -1.221   1.750   0.017  0.00  0.00    +0.000 A 
ATOM     13  C   UNL     1      -0.013   1.076   0.008  0.00  0.00    +0.001 A 
ATOM     14  C   UNL     1       1.174   1.780   0.000  0.00  0.00    +0.013 A 
ATOM     15  C   UNL     1       1.153   3.176   0.008  0.00  0.00    +0.037 A 
ATOM     16  C   UNL     1      -0.070   3.849   0.023  0.00  0.00    +0.013 A 
ATOM     17  C   UNL     1      -1.248   3.133   0.031  0.00  0.00    +0.001 A 
ENDBRANCH   8  15
ENDBRANCH   1  10
BRANCH   6  18
ATOM     18  C   UNL     1       6.331   9.235   0.946  0.00  0.00    +0.043 C 
BRANCH  18  19
ATOM     19  N   UNL     1       6.394   9.809   2.292  0.00  0.00    -0.241 N 
ATOM     20  C   UNL     1       7.047   9.244   3.326  0.00  0.00    +0.245 C 
ATOM     21  O   UNL     1       7.667   8.202   3.317  0.00  0.00    -0.273 OA
ATOM     22  C   UNL     1       6.846  10.180   4.505  0.00  0.00    +0.112 C 
ATOM     23  C   UNL     1       8.221  10.779   4.875  0.00  0.00    +0.035 C 
ATOM     24  C   UNL     1       8.004  12.085   5.588  0.00  0.00    +0.003 C 
ATOM     25  C   UNL     1       7.982  11.927   7.122  0.00  0.00    +0.000 C 
ATOM     26  C   UNL     1       7.195  10.686   7.583  0.00  0.00    +0.000 C 
ATOM     27  C   UNL     1       5.923  10.492   6.803  0.00  0.00    +0.003 C 
ATOM     28  C   UNL     1       6.208   9.524   5.639  0.00  0.00    +0.035 C 
ATOM     29  N   UNL     1       6.019  11.265   3.939  0.00  0.00    -0.285 N 
ATOM     30  C   UNL     1       5.815  10.962   2.646  0.00  0.00    +0.308 C 
ATOM     31  O   UNL     1       5.173  11.656   1.882  0.00  0.00    -0.252 OA
ATOM     32  H   UNL     1       5.690  12.047   4.409  0.00  0.00    +0.151 HD
ENDBRANCH  18  19
ENDBRANCH   6  18
TORSDOF 4
