REMARK  Name = ZINC06134214
REMARK  13 active torsions:
REMARK  status: ('A' for Active; 'I' for Inactive)
REMARK    1  A    between atoms: C_1  and  C_2
REMARK    2  A    between atoms: C_2  and  C_3
REMARK    3  A    between atoms: C_2  and  C_4
REMARK    4  A    between atoms: C_4  and  C_5
REMARK    5  A    between atoms: C_5  and  N_6
REMARK    6  A    between atoms: C_7  and  C_9
REMARK    7  A    between atoms: C_9  and  C_11
REMARK    8  A    between atoms: C_9  and  N_18
REMARK    9  A    between atoms: C_14  and  O_17
REMARK   10  A    between atoms: N_18  and  C_19
REMARK   11  A    between atoms: C_28  and  C_30
REMARK   12  A    between atoms: C_31  and  N_38
REMARK   13  A    between atoms: C_32  and  C_35
REMARK                            x       y       z     vdW  Elec       q    Type
REMARK                         _______ _______ _______ _____ _____    ______ ____
ROOT
ATOM      1  N   UNL     1       5.059  -0.617   2.368  0.00  0.00    -0.251 N 
ATOM      2  C   UNL     1       5.380   0.526   3.007  0.00  0.00    +0.262 C 
ATOM      3  O   UNL     1       5.824   0.485   4.140  0.00  0.00    -0.269 OA
ENDROOT
BRANCH   1   4
ATOM      4  C   UNL     1       4.655  -0.579   1.028  0.00  0.00    +0.041 A 
ATOM      5  C   UNL     1       3.367  -0.175   0.703  0.00  0.00    +0.027 A 
ATOM      6  C   UNL     1       2.966  -0.137  -0.619  0.00  0.00    +0.051 A 
ATOM      7  C   UNL     1       3.848  -0.502  -1.624  0.00  0.00    +0.166 A 
ATOM      8  C   UNL     1       5.141  -0.907  -1.301  0.00  0.00    +0.168 A 
ATOM      9  C   UNL     1       5.542  -0.945   0.025  0.00  0.00    +0.073 A 
ATOM     10  O   UNL     1       5.804  -1.209  -2.455  0.00  0.00    -0.453 OA
ATOM     11  C   UNL     1       5.041  -0.596  -3.510  0.00  0.00    +0.466 C 
ATOM     12  O   UNL     1       3.702  -0.550  -2.981  0.00  0.00    -0.453 OA
ENDBRANCH   1   4
BRANCH   2  13
ATOM     13  C   UNL     1       5.195   1.815   2.339  0.00  0.00    +0.116 A 
ATOM     14  C   UNL     1       5.343   3.106   2.851  0.00  0.00    +0.076 A 
ATOM     15  C   UNL     1       5.080   4.091   1.899  0.00  0.00    +0.155 A 
ATOM     16  N   UNL     1       4.728   3.733   0.683  0.00  0.00    -0.203 NA
ATOM     17  S   UNL     1       4.714   2.158   0.660  0.00  0.00    +0.019 S 
BRANCH  15  18
ATOM     18  C   UNL     1       5.188   5.518   2.254  0.00  0.00    +0.262 C 
ATOM     19  O   UNL     1       5.513   5.841   3.380  0.00  0.00    -0.269 OA
ATOM     20  N   UNL     1       4.928   6.464   1.329  0.00  0.00    -0.324 N 
ATOM     21  H   UNL     1       4.668   6.206   0.431  0.00  0.00    +0.145 HD
ATOM     22  H   UNL     1       4.999   7.402   1.563  0.00  0.00    +0.145 HD
ENDBRANCH  15  18
BRANCH  14  23
ATOM     23  N   UNL     1       5.714   3.379   4.161  0.00  0.00    -0.355 N 
ATOM     24  H   UNL     1       5.887   2.651   4.778  0.00  0.00    +0.142 HD
ATOM     25  H   UNL     1       5.801   4.298   4.459  0.00  0.00    +0.142 HD
ENDBRANCH  14  23
ENDBRANCH   2  13
BRANCH   1  26
ATOM     26  C   UNL     1       5.134  -1.897   3.075  0.00  0.00    +0.197 C 
BRANCH  26  27
ATOM     27  C   UNL     1       4.891  -3.023   2.103  0.00  0.00    -0.018 A 
ATOM     28  C   UNL     1       3.707  -3.075   1.389  0.00  0.00    +0.009 A 
ATOM     29  C   UNL     1       3.484  -4.102   0.493  0.00  0.00    +0.046 A 
ATOM     30  C   UNL     1       4.444  -5.089   0.318  0.00  0.00    +0.117 A 
ATOM     31  C   UNL     1       5.628  -5.037   1.039  0.00  0.00    +0.046 A 
ATOM     32  C   UNL     1       5.849  -4.005   1.929  0.00  0.00    +0.009 A 
BRANCH  30  33
ATOM     33  O   UNL     1       4.224  -6.104  -0.558  0.00  0.00    -0.507 OA
ATOM     34  H   UNL     1       3.789  -6.874  -0.167  0.00  0.00    +0.292 HD
ENDBRANCH  30  33
ENDBRANCH  26  27
BRANCH  26  36
ATOM     35  N   UNL     1       3.969  -3.024   4.944  0.00  0.00    -0.313 N 
ATOM     36  C   UNL     1       4.087  -1.935   4.159  0.00  0.00    +0.238 C 
ATOM     37  O   UNL     1       3.352  -0.985   4.324  0.00  0.00    -0.273 OA
ATOM     38  H   UNL     1       4.557  -3.784   4.811  0.00  0.00    +0.149 HD
BRANCH  35  39
ATOM     39  C   UNL     1       2.951  -3.060   5.997  0.00  0.00    +0.104 C 
BRANCH  39  40
ATOM     40  C   UNL     1       3.029  -4.398   6.736  0.00  0.00    +0.022 C 
BRANCH  40  42
ATOM     41  C   UNL     1       1.960  -5.818   8.491  0.00  0.00    +0.007 C 
ATOM     42  C   UNL     1       1.966  -4.436   7.836  0.00  0.00    -0.016 C 
ATOM     43  C   UNL     1       2.285  -3.373   8.889  0.00  0.00    +0.007 C 
ENDBRANCH  40  42
ENDBRANCH  39  40
ENDBRANCH  35  39
ENDBRANCH  26  36
ENDBRANCH   1  26
TORSDOF 11
