REMARK  Name = ZINC58828583
REMARK  8 active torsions:
REMARK  status: ('A' for Active; 'I' for Inactive)
REMARK    1  A    between atoms: C_1  and  C_2
REMARK    2  A    between atoms: C_2  and  C_4
REMARK    3  A    between atoms: C_2  and  N_14
REMARK    4  A    between atoms: C_7  and  S_10
REMARK    5  A    between atoms: S_10  and  N_13
REMARK    6  A    between atoms: N_14  and  C_15
REMARK    7  A    between atoms: N_18  and  C_19
REMARK    8  A    between atoms: C_24  and  C_25
REMARK                            x       y       z     vdW  Elec       q    Type
REMARK                         _______ _______ _______ _____ _____    ______ ____
ROOT
ATOM      1  N   UNL     1       0.643  -0.442  -1.169  0.00  0.00    -0.282 N 
ATOM      2  C   UNL     1       0.163   0.023  -2.473  0.00  0.00    +0.134 C 
ATOM      3  C   UNL     1       1.682  -1.299  -1.100  0.00  0.00    +0.307 C 
ATOM      4  O   UNL     1       2.080  -1.685  -0.018  0.00  0.00    -0.252 OA
ATOM      5  N   UNL     1       2.278  -1.728  -2.230  0.00  0.00    -0.269 N 
ATOM      6  H   UNL     1       1.910  -1.486  -3.094  0.00  0.00    +0.156 HD
ENDROOT
BRANCH   5   7
ATOM      7  C   UNL     1       3.428  -2.522  -2.156  0.00  0.00    +0.046 A 
ATOM      8  C   UNL     1       4.247  -2.459  -1.036  0.00  0.00    +0.024 A 
ATOM      9  C   UNL     1       5.380  -3.244  -0.967  0.00  0.00    +0.002 A 
ATOM     10  C   UNL     1       5.701  -4.093  -2.011  0.00  0.00    +0.001 A 
ATOM     11  C   UNL     1       4.888  -4.157  -3.127  0.00  0.00    +0.014 A 
ATOM     12  C   UNL     1       3.749  -3.379  -3.201  0.00  0.00    +0.076 A 
BRANCH  12  13
ATOM     13  C   UNL     1       2.861  -3.454  -4.415  0.00  0.00    +0.419 C 
ATOM     14  F   UNL     1       3.389  -4.379  -5.322  0.00  0.00    -0.166 F 
ATOM     15  F   UNL     1       1.578  -3.858  -4.030  0.00  0.00    -0.166 F 
ATOM     16  F   UNL     1       2.791  -2.195  -5.021  0.00  0.00    -0.166 F 
ENDBRANCH  12  13
ENDBRANCH   5   7
BRANCH   1  18
ATOM     17  C   UNL     1      -0.006   1.554   0.086  0.00  0.00    +0.033 C 
ATOM     18  C   UNL     1      -0.005   0.024   0.059  0.00  0.00    +0.104 C 
BRANCH  18  19
ATOM     19  C   UNL     1      -1.424  -0.481   0.101  0.00  0.00    -0.027 A 
ATOM     20  C   UNL     1      -1.749  -1.682  -0.502  0.00  0.00    +0.007 A 
ATOM     21  C   UNL     1      -3.051  -2.144  -0.464  0.00  0.00    +0.029 A 
ATOM     22  C   UNL     1      -4.028  -1.406   0.177  0.00  0.00    +0.105 A 
ATOM     23  C   UNL     1      -3.703  -0.206   0.780  0.00  0.00    +0.029 A 
ATOM     24  C   UNL     1      -2.401   0.255   0.746  0.00  0.00    +0.007 A 
BRANCH  22  25
ATOM     25  S   UNL     1      -5.688  -1.996   0.225  0.00  0.00    +0.056 S 
ATOM     26  O   UNL     1      -6.518  -0.857   0.413  0.00  0.00    -0.153 OA
ATOM     27  O   UNL     1      -5.839  -2.874  -0.882  0.00  0.00    -0.153 OA
BRANCH  25  28
ATOM     28  N   UNL     1      -5.840  -2.922   1.589  0.00  0.00    -0.204 NA
ATOM     29  H   UNL     1      -5.080  -3.045   2.179  0.00  0.00    +0.144 HD
ATOM     30  H   UNL     1      -6.689  -3.342   1.798  0.00  0.00    +0.144 HD
ENDBRANCH  25  28
ENDBRANCH  22  25
ENDBRANCH  18  19
ENDBRANCH   1  18
TORSDOF 6
