REMARK  Name = ZINC38636073
REMARK  13 active torsions:
REMARK  status: ('A' for Active; 'I' for Inactive)
REMARK    1  A    between atoms: C_1  and  C_2
REMARK    2  A    between atoms: C_2  and  C_3
REMARK    3  A    between atoms: C_2  and  C_4
REMARK    4  A    between atoms: C_2  and  C_5
REMARK    5  A    between atoms: C_8  and  S_11
REMARK    6  A    between atoms: S_11  and  N_14
REMARK    7  A    between atoms: N_14  and  C_15
REMARK    8  A    between atoms: C_15  and  C_16
REMARK    9  A    between atoms: C_16  and  C_18
REMARK   10  A    between atoms: C_16  and  N_27
REMARK   11  A    between atoms: C_21  and  N_24
REMARK   12  A    between atoms: N_24  and  C_25
REMARK   13  A    between atoms: N_24  and  C_26
REMARK                            x       y       z     vdW  Elec       q    Type
REMARK                         _______ _______ _______ _____ _____    ______ ____
ROOT
ATOM      1  C   UNL     1       3.119   0.694  -5.902  0.00  0.00    +0.095 C 
ENDROOT
BRANCH   1   2
ATOM      2  N   UNL     1       4.510   0.494  -5.490  0.00  0.00    -0.191 NA
ATOM      3  H   UNL     1       5.225   0.570  -6.141  0.00  0.00    +0.148 HD
BRANCH   2   4
ATOM      4  S   UNL     1       4.864   0.140  -3.911  0.00  0.00    +0.058 S 
ATOM      5  O   UNL     1       4.160   1.085  -3.116  0.00  0.00    -0.153 OA
ATOM      6  O   UNL     1       6.274  -0.019  -3.836  0.00  0.00    -0.153 OA
BRANCH   4  10
ATOM      7  C   UNL     1       3.056  -3.911  -3.009  0.00  0.00    -0.042 A 
ATOM      8  C   UNL     1       4.348  -3.823  -3.494  0.00  0.00    +0.006 A 
ATOM      9  C   UNL     1       4.900  -2.586  -3.770  0.00  0.00    +0.029 A 
ATOM     10  C   UNL     1       4.160  -1.437  -3.561  0.00  0.00    +0.105 A 
ATOM     11  C   UNL     1       2.868  -1.525  -3.076  0.00  0.00    +0.029 A 
ATOM     12  C   UNL     1       2.315  -2.762  -2.805  0.00  0.00    +0.006 A 
BRANCH   7  14
ATOM     13  C   UNL     1       1.208  -5.466  -3.572  0.00  0.00    +0.015 C 
ATOM     14  C   UNL     1       2.455  -5.260  -2.709  0.00  0.00    -0.013 C 
ATOM     15  C   UNL     1       2.068  -5.327  -1.230  0.00  0.00    +0.015 C 
ATOM     16  C   UNL     1       3.477  -6.355  -3.019  0.00  0.00    +0.015 C 
ENDBRANCH   7  14
ENDBRANCH   4  10
ENDBRANCH   2   4
ENDBRANCH   1   2
BRANCH   1  17
ATOM     17  C   UNL     1       3.085   1.358  -7.280  0.00  0.00    -0.022 C 
BRANCH  17  18
ATOM     18  C   UNL     1       3.679   2.740  -7.186  0.00  0.00    -0.060 A 
ATOM     19  C   UNL     1       2.920   3.785  -6.695  0.00  0.00    +0.004 A 
ATOM     20  C   UNL     1       3.461   5.053  -6.608  0.00  0.00    +0.023 A 
ATOM     21  C   UNL     1       4.771   5.277  -7.014  0.00  0.00    +0.029 A 
ATOM     22  C   UNL     1       5.531   4.224  -7.507  0.00  0.00    +0.023 A 
ATOM     23  C   UNL     1       4.985   2.958  -7.586  0.00  0.00    +0.004 A 
BRANCH  21  24
ATOM     24  N   UNL     1       5.321   6.557  -6.927  0.00  0.00    -0.336 N 
ATOM     25  C   UNL     1       4.518   7.667  -6.408  0.00  0.00    +0.129 C 
ATOM     26  C   UNL     1       6.702   6.791  -7.356  0.00  0.00    +0.129 C 
ENDBRANCH  21  24
ENDBRANCH  17  18
BRANCH  17  27
ATOM     27  N   UNL     1       1.694   1.453  -7.743  0.00  0.00    +0.385 N 
ATOM     28  C   UNL     1       1.646   2.072  -9.093  0.00  0.00    -0.078 C 
ATOM     29  C   UNL     1       0.281   1.597  -9.652  0.00  0.00    -0.020 C 
ATOM     30  C   UNL     1       0.173   0.151  -9.116  0.00  0.00    -0.020 C 
ATOM     31  C   UNL     1       1.115   0.102  -7.899  0.00  0.00    -0.078 C 
ATOM     32  H   UNL     1       1.146   1.994  -7.091  0.00  0.00    -0.081 HD
ENDBRANCH  17  27
ENDBRANCH   1  17
TORSDOF 8
