REMARK  Name = ZINC48488276
REMARK  4 active torsions:
REMARK  status: ('A' for Active; 'I' for Inactive)
REMARK    1  A    between atoms: C_1  and  C_2
REMARK    2  A    between atoms: C_2  and  C_4
REMARK    3  A    between atoms: C_2  and  N_10
REMARK    4  A    between atoms: N_13  and  C_14
REMARK                            x       y       z     vdW  Elec       q    Type
REMARK                         _______ _______ _______ _____ _____    ______ ____
ROOT
ATOM      1  N   UNL     1      -1.367  -0.527   0.013  0.00  0.00    -0.292 N 
ATOM      2  C   UNL     1      -2.027  -0.659   1.181  0.00  0.00    +0.304 C 
ATOM      3  O   UNL     1      -1.481  -0.361   2.225  0.00  0.00    -0.252 OA
ATOM      4  N   UNL     1      -3.293  -1.122   1.190  0.00  0.00    -0.268 N 
ATOM      5  H   UNL     1      -1.803  -0.765  -0.820  0.00  0.00    +0.151 HD
ATOM      6  H   UNL     1      -3.757  -1.282   0.354  0.00  0.00    +0.156 HD
ENDROOT
BRANCH   4   7
ATOM      7  C   UNL     1      -3.939  -1.371   2.409  0.00  0.00    +0.049 A 
ATOM      8  C   UNL     1      -3.193  -1.647   3.547  0.00  0.00    +0.027 A 
ATOM      9  C   UNL     1      -3.831  -1.892   4.747  0.00  0.00    +0.040 A 
ATOM     10  C   UNL     1      -5.214  -1.862   4.816  0.00  0.00    +0.125 A 
ATOM     11  C   UNL     1      -5.960  -1.587   3.683  0.00  0.00    +0.055 A 
ATOM     12  C   UNL     1      -5.325  -1.336   2.481  0.00  0.00    +0.042 A 
ATOM     13 BR   UNL     1      -6.344  -0.952   0.934  0.00  0.00    -0.048 Br
ATOM     14  F   UNL     1      -5.836  -2.103   5.991  0.00  0.00    -0.205 F 
ENDBRANCH   4   7
BRANCH   1  16
ATOM     15  C   UNL     1      -0.007   1.506  -0.002  0.00  0.00    +0.033 C 
ATOM     16  C   UNL     1       0.009  -0.024   0.003  0.00  0.00    +0.108 C 
BRANCH  16  17
ATOM     17  C   UNL     1       0.717  -0.523  -1.231  0.00  0.00    +0.011 A 
ATOM     18  C   UNL     1       1.989  -0.972  -1.361  0.00  0.00    +0.014 A 
ATOM     19  C   UNL     1       2.430  -1.384  -2.605  0.00  0.00    +0.028 A 
ATOM     20  C   UNL     1       1.575  -1.327  -3.658  0.00  0.00    +0.078 A 
ATOM     21  S   UNL     1       0.095  -0.683  -2.896  0.00  0.00    -0.080 S 
ATOM     22 CL   UNL     1       1.849  -1.772  -5.313  0.00  0.00    -0.076 Cl
ENDBRANCH  16  17
ENDBRANCH   1  16
TORSDOF 3
