REMARK  Name = ZINC12484047
REMARK  7 active torsions:
REMARK  status: ('A' for Active; 'I' for Inactive)
REMARK    1  A    between atoms: C_3  and  S_23
REMARK    2  A    between atoms: C_6  and  C_7
REMARK    3  A    between atoms: C_10  and  S_13
REMARK    4  A    between atoms: S_13  and  C_14
REMARK    5  A    between atoms: C_14  and  C_15
REMARK    6  A    between atoms: S_23  and  N_26
REMARK    7  A    between atoms: N_26  and  C_27
REMARK                            x       y       z     vdW  Elec       q    Type
REMARK                         _______ _______ _______ _____ _____    ______ ____
ROOT
ATOM      1  C   UNL     1       3.042  -2.158  -0.045  0.00  0.00    +0.013 A 
ATOM      2  C   UNL     1       3.445  -3.477  -0.049  0.00  0.00    +0.029 A 
ATOM      3  C   UNL     1       2.504  -4.491  -0.045  0.00  0.00    +0.105 A 
ATOM      4  C   UNL     1       1.153  -4.190  -0.031  0.00  0.00    +0.029 A 
ATOM      5  C   UNL     1       0.737  -2.875  -0.020  0.00  0.00    +0.013 A 
ATOM      6  C   UNL     1       1.681  -1.847  -0.024  0.00  0.00    +0.019 A 
ENDROOT
BRANCH   6   7
ATOM      7  C   UNL     1       1.242  -0.435  -0.012  0.00  0.00    +0.162 A 
ATOM      8  N   UNL     1       2.055   0.674  -0.014  0.00  0.00    -0.316 N 
ATOM      9  H   UNL     1       3.025   0.690  -0.023  0.00  0.00    +0.169 HD
ATOM     10  C   UNL     1       1.213   1.749  -0.000  0.00  0.00    +0.190 A 
ATOM     11  N   UNL     1      -0.015   1.281   0.009  0.00  0.00    -0.122 NA
ATOM     12  N   UNL     1       0.002  -0.004   0.002  0.00  0.00    -0.129 NA
BRANCH  10  13
ATOM     13  S   UNL     1       1.685   3.447   0.004  0.00  0.00    -0.077 S 
BRANCH  13  14
ATOM     14  C   UNL     1       0.051   4.226   0.025  0.00  0.00    +0.173 C 
BRANCH  14  15
ATOM     15  C   UNL     1       0.210   5.725   0.032  0.00  0.00    +0.229 C 
ATOM     16  O   UNL     1       1.319   6.217   0.023  0.00  0.00    -0.275 OA
ATOM     17  N   UNL     1      -0.879   6.518   0.047  0.00  0.00    -0.264 N 
ATOM     18  C   UNL     1      -0.733   7.901   0.053  0.00  0.00    +0.164 A 
ATOM     19  N   UNL     1       0.375   8.616   0.052  0.00  0.00    -0.233 NA
ATOM     20  C   UNL     1       0.337   9.934   0.053  0.00  0.00    +0.120 A 
ATOM     21  C   UNL     1      -0.873  10.545   0.069  0.00  0.00    +0.068 A 
ATOM     22  S   UNL     1      -1.961   9.128   0.072  0.00  0.00    -0.061 S 
ATOM     23  H   UNL     1      -1.766   6.125   0.053  0.00  0.00    +0.157 HD
ENDBRANCH  14  15
ENDBRANCH  13  14
ENDBRANCH  10  13
ENDBRANCH   6   7
BRANCH   3  24
ATOM     24  S   UNL     1       3.027  -6.173  -0.059  0.00  0.00    +0.059 S 
ATOM     25  O   UNL     1       4.342  -6.194   0.479  0.00  0.00    -0.153 OA
ATOM     26  O   UNL     1       1.964  -6.934   0.498  0.00  0.00    -0.153 OA
BRANCH  24  27
ATOM     27  N   UNL     1       3.157  -6.633  -1.644  0.00  0.00    -0.187 NA
ATOM     28  H   UNL     1       2.570  -7.318  -2.001  0.00  0.00    +0.148 HD
BRANCH  27  29
ATOM     29  C   UNL     1       4.159  -6.005  -2.509  0.00  0.00    +0.077 C 
ATOM     30  C   UNL     1       3.516  -4.848  -3.277  0.00  0.00    +0.020 C 
ATOM     31  C   UNL     1       4.563  -4.192  -4.181  0.00  0.00    +0.002 C 
ATOM     32  C   UNL     1       5.101  -5.226  -5.172  0.00  0.00    +0.000 C 
ATOM     33  C   UNL     1       5.744  -6.383  -4.404  0.00  0.00    +0.002 C 
ATOM     34  C   UNL     1       4.697  -7.039  -3.501  0.00  0.00    +0.020 C 
ENDBRANCH  27  29
ENDBRANCH  24  27
ENDBRANCH   3  24
TORSDOF 7
