REMARK  Name = ZINC24347825
REMARK  13 active torsions:
REMARK  status: ('A' for Active; 'I' for Inactive)
REMARK    1  A    between atoms: C_1  and  N_2
REMARK    2  A    between atoms: N_2  and  C_3
REMARK    3  A    between atoms: N_2  and  C_4
REMARK    4  A    between atoms: C_4  and  C_6
REMARK    5  A    between atoms: C_4  and  C_28
REMARK    6  A    between atoms: C_6  and  N_7
REMARK    7  A    between atoms: C_8  and  C_10
REMARK    8  A    between atoms: C_10  and  C_11
REMARK    9  A    between atoms: C_11  and  S_12
REMARK   10  A    between atoms: S_12  and  C_13
REMARK   11  A    between atoms: C_13  and  C_14
REMARK   12  A    between atoms: C_31  and  O_34
REMARK   13  A    between atoms: O_34  and  C_35
REMARK                            x       y       z     vdW  Elec       q    Type
REMARK                         _______ _______ _______ _____ _____    ______ ____
ROOT
ATOM      1  N   UNL     1      -1.766   1.531  -1.169  0.00  0.00    -0.317 N 
ATOM      2  C   UNL     1      -2.260   2.263  -2.188  0.00  0.00    +0.214 C 
ATOM      3  O   UNL     1      -2.935   1.732  -3.045  0.00  0.00    -0.276 OA
ATOM      4  H   UNL     1      -1.227   1.956  -0.484  0.00  0.00    +0.149 HD
ENDROOT
BRANCH   1   5
ATOM      5  C   UNL     1      -2.044   0.095  -1.098  0.00  0.00    +0.093 C 
BRANCH   5   6
ATOM      6  C   UNL     1      -1.281  -0.514   0.081  0.00  0.00    -0.021 C 
BRANCH   6   7
ATOM      7  C   UNL     1      -1.799   0.070   1.370  0.00  0.00    -0.059 A 
ATOM      8  C   UNL     1      -2.968  -0.415   1.927  0.00  0.00    +0.005 A 
ATOM      9  C   UNL     1      -3.444   0.119   3.108  0.00  0.00    +0.046 A 
ATOM     10  C   UNL     1      -2.749   1.143   3.736  0.00  0.00    +0.120 A 
ATOM     11  C   UNL     1      -1.576   1.627   3.175  0.00  0.00    +0.046 A 
ATOM     12  C   UNL     1      -1.101   1.086   1.996  0.00  0.00    +0.005 A 
BRANCH  10  13
ATOM     13  O   UNL     1      -3.216   1.670   4.898  0.00  0.00    -0.495 OA
ATOM     14  C   UNL     1      -2.449   2.721   5.489  0.00  0.00    +0.277 C 
ENDBRANCH  10  13
ENDBRANCH   6   7
BRANCH   6  16
ATOM     15  C   UNL     1      -0.970  -2.540  -1.166  0.00  0.00    -0.096 C 
ATOM     16  N   UNL     1      -1.476  -1.970   0.090  0.00  0.00    +0.382 N 
ATOM     17  C   UNL     1      -0.745  -2.555   1.222  0.00  0.00    -0.096 C 
ATOM     18  H   UNL     1      -2.459  -2.178   0.181  0.00  0.00    -0.082 HD
ENDBRANCH   6  16
ENDBRANCH   5   6
ENDBRANCH   1   5
BRANCH   2  19
ATOM     19  C   UNL     1      -1.974   3.741  -2.262  0.00  0.00    +0.106 C 
BRANCH  19  20
ATOM     20  C   UNL     1      -2.646   4.329  -3.504  0.00  0.00    +0.079 C 
BRANCH  20  21
ATOM     21  S   UNL     1      -2.301   6.107  -3.593  0.00  0.00    -0.153 S 
BRANCH  21  22
ATOM     22  C   UNL     1      -3.156   6.645  -5.101  0.00  0.00    +0.143 C 
BRANCH  22  23
ATOM     23  C   UNL     1      -2.947   8.125  -5.295  0.00  0.00    +0.121 A 
ATOM     24  N   UNL     1      -3.509   8.741  -6.367  0.00  0.00    -0.310 N 
ATOM     25  H   UNL     1      -4.037   8.220  -6.992  0.00  0.00    +0.170 HD
ATOM     26  C   UNL     1      -3.348  10.061  -6.580  0.00  0.00    +0.260 A 
ATOM     27  O   UNL     1      -3.858  10.601  -7.546  0.00  0.00    -0.267 OA
ATOM     28  C   UNL     1      -2.567  10.819  -5.648  0.00  0.00    +0.075 A 
ATOM     29  C   UNL     1      -2.261  12.257  -5.679  0.00  0.00    -0.023 A 
ATOM     30  C   UNL     1      -1.498  12.738  -4.683  0.00  0.00    -0.004 A 
ATOM     31  S   UNL     1      -1.147  11.331  -3.654  0.00  0.00    -0.073 S 
ATOM     32  C   UNL     1      -2.028  10.098  -4.574  0.00  0.00    +0.116 A 
ATOM     33  N   UNL     1      -2.235   8.791  -4.427  0.00  0.00    -0.226 NA
ATOM     34  C   UNL     1      -1.247  14.215  -4.821  0.00  0.00    +0.043 C 
ATOM     35  C   UNL     1      -1.605  14.533  -6.290  0.00  0.00    +0.010 C 
ATOM     36  C   UNL     1      -2.616  13.416  -6.615  0.00  0.00    +0.037 C 
ENDBRANCH  22  23
ENDBRANCH  21  22
ENDBRANCH  20  21
ENDBRANCH  19  20
ENDBRANCH   2  19
TORSDOF 10
