REMARK  Name = ZINC45236589
REMARK  13 active torsions:
REMARK  status: ('A' for Active; 'I' for Inactive)
REMARK    1  A    between atoms: C_1  and  C_2
REMARK    2  A    between atoms: C_2  and  O_3
REMARK    3  A    between atoms: O_3  and  C_4
REMARK    4  A    between atoms: C_11  and  C_18
REMARK    5  A    between atoms: C_13  and  O_14
REMARK    6  A    between atoms: C_18  and  O_19
REMARK    7  A    between atoms: O_19  and  C_20
REMARK    8  A    between atoms: C_20  and  C_22
REMARK    9  A    between atoms: C_27  and  O_28
REMARK   10  A    between atoms: O_28  and  C_29
REMARK   11  A    between atoms: C_29  and  C_30
REMARK   12  A    between atoms: C_31  and  C_36
REMARK   13  A    between atoms: C_34  and  C_35
REMARK                            x       y       z     vdW  Elec       q    Type
REMARK                         _______ _______ _______ _____ _____    ______ ____
ROOT
ATOM      1  C   UNL     1      -3.711  -9.056   0.304  0.00  0.00    +0.405 C 
ATOM      2  O   UNL     1      -2.958  -8.562  -0.518  0.00  0.00    -0.226 OA
ATOM      3  N   UNL     1      -3.248  -9.422   1.492  0.00  0.00    -0.251 N 
ATOM      4  C   UNL     1      -1.969  -9.126   1.843  0.00  0.00    +0.040 A 
ATOM      5  C   UNL     1      -1.364  -9.802   2.918  0.00  0.00    +0.024 A 
ATOM      6  C   UNL     1      -0.086  -9.515   3.279  0.00  0.00    +0.014 A 
ATOM      7  C   UNL     1       0.639  -8.535   2.576  0.00  0.00    +0.024 A 
ATOM      8  C   UNL     1       1.966  -8.223   2.934  0.00  0.00    +0.007 A 
ATOM      9  C   UNL     1       2.634  -7.254   2.212  0.00  0.00    +0.095 A 
ATOM     10  C   UNL     1       1.997  -6.613   1.160  0.00  0.00    +0.285 A 
ATOM     11  O   UNL     1       0.738  -6.912   0.823  0.00  0.00    -0.425 OA
ATOM     12  C   UNL     1       0.039  -7.850   1.495  0.00  0.00    +0.141 A 
ATOM     13  C   UNL     1      -1.260  -8.155   1.132  0.00  0.00    +0.070 A 
ATOM     14  H   UNL     1      -3.822  -9.901   2.109  0.00  0.00    +0.158 HD
ENDROOT
BRANCH  10  15
ATOM     15  O   UNL     1       2.660  -5.670   0.463  0.00  0.00    -0.480 OA
ATOM     16  H   UNL     1       2.144  -5.274  -0.252  0.00  0.00    +0.295 HD
ENDBRANCH  10  15
BRANCH   1  17
ATOM     17  O   UNL     1      -5.018  -9.231   0.005  0.00  0.00    -0.450 OA
BRANCH  17  19
ATOM     18  C   UNL     1      -6.945  -9.089  -1.446  0.00  0.00    +0.048 C 
ATOM     19  C   UNL     1      -5.448  -8.814  -1.292  0.00  0.00    +0.230 C 
ENDBRANCH  17  19
ENDBRANCH   1  17
BRANCH   8  20
ATOM     20  C   UNL     1       2.640  -8.931   4.081  0.00  0.00    +0.269 C 
BRANCH  20  21
ATOM     21  O   UNL     1       3.085  -7.968   5.039  0.00  0.00    -0.456 OA
BRANCH  21  22
ATOM     22  C   UNL     1       3.625  -8.444   6.179  0.00  0.00    +0.343 C 
ATOM     23  O   UNL     1       3.791  -9.639   6.320  0.00  0.00    -0.245 OA
BRANCH  22  24
ATOM     24  C   UNL     1       4.013  -7.514   7.255  0.00  0.00    +0.101 A 
ATOM     25  C   UNL     1       3.724  -6.151   7.144  0.00  0.00    +0.018 A 
ATOM     26  C   UNL     1       4.090  -5.287   8.153  0.00  0.00    +0.001 A 
ATOM     27  C   UNL     1       4.745  -5.763   9.278  0.00  0.00    +0.004 A 
ATOM     28  C   UNL     1       5.036  -7.107   9.400  0.00  0.00    +0.046 A 
ATOM     29  C   UNL     1       4.670  -7.993   8.397  0.00  0.00    +0.135 A 
BRANCH  29  30
ATOM     30  O   UNL     1       4.950  -9.314   8.519  0.00  0.00    -0.486 OA
BRANCH  30  31
ATOM     31  C   UNL     1       5.621  -9.728   9.711  0.00  0.00    +0.269 C 
BRANCH  31  32
ATOM     32  C   UNL     1       5.847 -11.217   9.669  0.00  0.00    +0.054 A 
ATOM     33  C   UNL     1       4.963 -12.200  10.148  0.00  0.00    +0.087 A 
ATOM     34  N   UNL     1       5.503 -13.367   9.937  0.00  0.00    -0.083 NA
ATOM     35  O   UNL     1       6.756 -13.161   9.312  0.00  0.00    -0.359 OA
ATOM     36  C   UNL     1       6.929 -11.839   9.161  0.00  0.00    +0.141 A 
ATOM     37  C   UNL     1       8.124 -11.167   8.536  0.00  0.00    +0.089 C 
ATOM     38  C   UNL     1       3.624 -11.948  10.794  0.00  0.00    +0.069 C 
ENDBRANCH  31  32
ENDBRANCH  30  31
ENDBRANCH  29  30
ENDBRANCH  22  24
ENDBRANCH  21  22
ENDBRANCH  20  21
ENDBRANCH   8  20
TORSDOF 10
