REMARK  Name = ZINC36540061
REMARK  8 active torsions:
REMARK  status: ('A' for Active; 'I' for Inactive)
REMARK    1  A    between atoms: C_1  and  C_2
REMARK    2  A    between atoms: C_2  and  C_3
REMARK    3  A    between atoms: N_5  and  C_6
REMARK    4  A    between atoms: N_5  and  C_7
REMARK    5  A    between atoms: C_7  and  C_9
REMARK    6  A    between atoms: C_7  and  C_19
REMARK    7  A    between atoms: C_11  and  N_16
REMARK    8  A    between atoms: N_21  and  C_22
REMARK                            x       y       z     vdW  Elec       q    Type
REMARK                         _______ _______ _______ _____ _____    ______ ____
ROOT
ATOM      1  C   UNL     1      -0.789  -3.187   0.238  0.00  0.00    +0.193 C 
ENDROOT
BRANCH   1   2
ATOM      2  C   UNL     1       0.236  -2.485  -0.615  0.00  0.00    +0.002 A 
ATOM      3  C   UNL     1       0.190  -1.111  -0.761  0.00  0.00    +0.040 A 
ATOM      4  C   UNL     1       1.130  -0.468  -1.544  0.00  0.00    +0.127 A 
ATOM      5  C   UNL     1       2.116  -1.197  -2.182  0.00  0.00    +0.034 A 
ATOM      6  C   UNL     1       2.163  -2.571  -2.037  0.00  0.00    +0.022 A 
ATOM      7  C   UNL     1       1.226  -3.215  -1.249  0.00  0.00    +0.047 A 
ATOM      8 CL   UNL     1       1.288  -4.940  -1.060  0.00  0.00    -0.083 Cl
BRANCH   4   9
ATOM      9  N   UNL     1       1.081   1.004  -1.699  0.00  0.00    +0.056 N 
ATOM     10  O   UNL     1       0.218   1.642  -1.142  0.00  0.00    -0.126 OA
ATOM     11  O   UNL     1       1.903   1.567  -2.384  0.00  0.00    -0.126 OA
ENDBRANCH   4   9
ENDBRANCH   1   2
BRANCH   1  14
ATOM     12  C   UNL     1      -2.866  -2.281  -0.659  0.00  0.00    +0.216 C 
ATOM     13  O   UNL     1      -3.808  -1.520  -0.596  0.00  0.00    -0.276 OA
ATOM     14  N   UNL     1      -1.983  -2.347   0.357  0.00  0.00    -0.289 N 
ATOM     15  C   UNL     1      -2.217  -1.577   1.582  0.00  0.00    +0.133 C 
BRANCH  12  17
ATOM     16  C   UNL     1      -3.880  -2.983  -2.811  0.00  0.00    +0.013 C 
ATOM     17  C   UNL     1      -2.683  -3.154  -1.874  0.00  0.00    +0.092 C 
ENDBRANCH  12  17
ENDBRANCH   1  14
BRANCH   1  18
ATOM     18  C   UNL     1      -0.214  -3.441   1.607  0.00  0.00    +0.238 C 
ATOM     19  O   UNL     1      -0.141  -2.536   2.411  0.00  0.00    -0.273 OA
ATOM     20  N   UNL     1       0.218  -4.673   1.939  0.00  0.00    -0.311 N 
ATOM     21  H   UNL     1       0.160  -5.397   1.296  0.00  0.00    +0.149 HD
BRANCH  20  22
ATOM     22  C   UNL     1       0.777  -4.920   3.270  0.00  0.00    +0.073 C 
ATOM     23  C   UNL     1       2.264  -4.557   3.275  0.00  0.00    +0.022 C 
ATOM     24  C   UNL     1       2.848  -4.815   4.665  0.00  0.00    +0.002 C 
ATOM     25  C   UNL     1       2.683  -6.293   5.022  0.00  0.00    +0.000 C 
ATOM     26  C   UNL     1       1.197  -6.656   5.017  0.00  0.00    +0.002 C 
ATOM     27  C   UNL     1       0.613  -6.399   3.627  0.00  0.00    +0.022 C 
ENDBRANCH  20  22
ENDBRANCH   1  18
TORSDOF 6
