REMARK  Name = ZINC39693459
REMARK  11 active torsions:
REMARK  status: ('A' for Active; 'I' for Inactive)
REMARK    1  A    between atoms: C_1  and  C_2
REMARK    2  A    between atoms: C_5  and  C_9
REMARK    3  A    between atoms: C_13  and  C_22
REMARK    4  A    between atoms: N_24  and  C_25
REMARK    5  A    between atoms: C_25  and  C_26
REMARK    6  A    between atoms: C_26  and  N_27
REMARK    7  A    between atoms: C_28  and  O_30
REMARK    8  A    between atoms: O_30  and  C_31
REMARK    9  A    between atoms: C_31  and  C_32
REMARK   10  A    between atoms: C_31  and  C_33
REMARK   11  A    between atoms: C_31  and  C_34
REMARK                            x       y       z     vdW  Elec       q    Type
REMARK                         _______ _______ _______ _____ _____    ______ ____
ROOT
ATOM      1  C   UNL     1      -0.035  -4.527  -0.123  0.00  0.00    +0.247 C 
ATOM      2  O   UNL     1      -0.167  -5.213  -1.118  0.00  0.00    -0.270 OA
ATOM      3  N   UNL     1       0.116  -5.111   1.083  0.00  0.00    -0.296 N 
ATOM      4  C   UNL     1       0.157  -4.454   2.410  0.00  0.00    +0.121 C 
ATOM      5  C   UNL     1      -0.634  -5.401   3.340  0.00  0.00    +0.100 C 
ATOM      6  C   UNL     1      -0.550  -6.778   2.659  0.00  0.00    -0.004 C 
ATOM      7  C   UNL     1       0.270  -6.555   1.380  0.00  0.00    +0.115 C 
ATOM      8  C   UNL     1       0.154  -7.777   3.572  0.00  0.00    -0.010 C 
ATOM      9  C   UNL     1       0.172  -9.152   2.898  0.00  0.00    -0.082 C 
ATOM     10  N   UNL     1      -1.204  -9.588   2.632  0.00  0.00    +0.379 N 
ATOM     11  C   UNL     1      -1.844  -8.672   1.680  0.00  0.00    -0.082 C 
ATOM     12  C   UNL     1      -1.948  -7.277   2.303  0.00  0.00    -0.010 C 
ATOM     13  H   UNL     1      -1.191 -10.519   2.244  0.00  0.00    -0.086 HD
ATOM     14  H   UNL     1      -1.726  -9.593   3.495  0.00  0.00    -0.086 HD
ENDROOT
BRANCH   1  19
ATOM     15  C   UNL     1      -0.051   1.212  -0.558  0.00  0.00    +0.047 C 
ATOM     16  C   UNL     1      -0.047  -0.290  -0.445  0.00  0.00    -0.015 A 
ATOM     17  C   UNL     1       0.530  -0.897   0.656  0.00  0.00    +0.007 A 
ATOM     18  C   UNL     1       0.537  -2.272   0.766  0.00  0.00    +0.013 A 
ATOM     19  C   UNL     1      -0.040  -3.053  -0.236  0.00  0.00    +0.040 A 
ATOM     20  C   UNL     1      -0.622  -2.437  -1.344  0.00  0.00    +0.051 A 
ATOM     21  C   UNL     1      -0.627  -1.059  -1.441  0.00  0.00    +0.127 A 
ATOM     22  F   UNL     1      -1.195  -0.459  -2.510  0.00  0.00    -0.205 F 
ENDBRANCH   1  19
BRANCH   5  23
ATOM     23  C   UNL     1      -2.068  -4.953   3.448  0.00  0.00    +0.218 C 
ATOM     24  O   UNL     1      -2.596  -4.378   2.519  0.00  0.00    -0.275 OA
ATOM     25  N   UNL     1      -2.765  -5.190   4.577  0.00  0.00    -0.314 N 
ATOM     26  H   UNL     1      -2.343  -5.649   5.320  0.00  0.00    +0.149 HD
BRANCH  25  27
ATOM     27  C   UNL     1      -4.160  -4.754   4.682  0.00  0.00    +0.123 C 
BRANCH  27  28
ATOM     28  C   UNL     1      -4.714  -5.143   6.054  0.00  0.00    +0.126 C 
BRANCH  28  29
ATOM     29  N   UNL     1      -6.108  -4.707   6.160  0.00  0.00    -0.280 N 
ATOM     30  C   UNL     1      -6.805  -4.944   7.289  0.00  0.00    +0.401 C 
ATOM     31  O   UNL     1      -6.277  -5.520   8.219  0.00  0.00    -0.226 OA
ATOM     32  H   UNL     1      -6.530  -4.248   5.417  0.00  0.00    +0.152 HD
BRANCH  30  33
ATOM     33  O   UNL     1      -8.087  -4.544   7.385  0.00  0.00    -0.445 OA
BRANCH  33  34
ATOM     34  C   UNL     1      -8.765  -4.828   8.611  0.00  0.00    +0.107 C 
ATOM     35  C   UNL     1      -8.033  -4.147   9.769  0.00  0.00    +0.055 C 
ATOM     36  C   UNL     1     -10.199  -4.301   8.534  0.00  0.00    +0.055 C 
ATOM     37  C   UNL     1      -8.788  -6.340   8.841  0.00  0.00    +0.055 C 
ENDBRANCH  33  34
ENDBRANCH  30  33
ENDBRANCH  28  29
ENDBRANCH  27  28
ENDBRANCH  25  27
ENDBRANCH   5  23
TORSDOF 7
