REMARK  Name = ZINC14985938
REMARK  10 active torsions:
REMARK  status: ('A' for Active; 'I' for Inactive)
REMARK    1  A    between atoms: C_1  and  C_2
REMARK    2  A    between atoms: C_3  and  C_24
REMARK    3  A    between atoms: C_5  and  C_7
REMARK    4  A    between atoms: C_10  and  N_13
REMARK    5  A    between atoms: C_14  and  C_16
REMARK    6  A    between atoms: C_19  and  C_21
REMARK    7  A    between atoms: C_21  and  O_22
REMARK    8  A    between atoms: O_22  and  C_23
REMARK    9  A    between atoms: C_24  and  N_25
REMARK   10  A    between atoms: C_26  and  C_28
REMARK                            x       y       z     vdW  Elec       q    Type
REMARK                         _______ _______ _______ _____ _____    ______ ____
ROOT
ATOM      1  C   UNL     1       2.337  -0.316   0.995  0.00  0.00    +0.088 C 
ATOM      2  C   UNL     1       1.029  -0.789   0.415  0.00  0.00    +0.127 A 
ATOM      3  C   UNL     1      -0.017  -0.016   0.073  0.00  0.00    +0.100 A 
ATOM      4  N   UNL     1      -0.980  -0.818  -0.408  0.00  0.00    -0.212 NA
ATOM      5  C   UNL     1      -0.554  -2.058  -0.364  0.00  0.00    +0.228 A 
ATOM      6  O   UNL     1       0.689  -2.066   0.146  0.00  0.00    -0.440 OA
ENDROOT
BRANCH   5   7
ATOM      7  C   UNL     1      -1.314  -3.247  -0.802  0.00  0.00    +0.037 A 
ATOM      8  C   UNL     1      -2.606  -3.103  -1.312  0.00  0.00    +0.015 A 
ATOM      9  C   UNL     1      -3.310  -4.214  -1.724  0.00  0.00    +0.024 A 
ATOM     10  C   UNL     1      -2.739  -5.478  -1.624  0.00  0.00    +0.034 A 
ATOM     11  C   UNL     1      -1.454  -5.625  -1.112  0.00  0.00    +0.024 A 
ATOM     12  C   UNL     1      -0.744  -4.518  -0.703  0.00  0.00    +0.015 A 
BRANCH  10  13
ATOM     13  N   UNL     1      -3.457  -6.601  -2.038  0.00  0.00    -0.279 N 
ATOM     14  C   UNL     1      -3.298  -7.776  -1.397  0.00  0.00    +0.284 C 
ATOM     15  O   UNL     1      -2.604  -7.836  -0.400  0.00  0.00    -0.266 OA
ATOM     16  H   UNL     1      -4.070  -6.536  -2.787  0.00  0.00    +0.155 HD
BRANCH  14  17
ATOM     17  C   UNL     1      -3.962  -8.982  -1.902  0.00  0.00    +0.190 A 
ATOM     18  C   UNL     1      -3.882 -10.231  -1.355  0.00  0.00    +0.055 A 
ATOM     19  C   UNL     1      -4.670 -11.073  -2.155  0.00  0.00    +0.048 A 
ATOM     20  C   UNL     1      -5.183 -10.313  -3.147  0.00  0.00    +0.131 A 
ATOM     21  O   UNL     1      -4.754  -9.054  -2.991  0.00  0.00    -0.453 OA
BRANCH  20  22
ATOM     22  C   UNL     1      -6.089 -10.802  -4.248  0.00  0.00    +0.233 C 
BRANCH  22  23
ATOM     23  O   UNL     1      -7.451 -10.684  -3.832  0.00  0.00    -0.375 OA
ATOM     24  C   UNL     1      -8.397 -11.123  -4.808  0.00  0.00    +0.194 C 
ENDBRANCH  22  23
ENDBRANCH  20  22
ENDBRANCH  14  17
ENDBRANCH  10  13
ENDBRANCH   5   7
BRANCH   3  25
ATOM     25  C   UNL     1      -0.092   1.483   0.201  0.00  0.00    +0.163 C 
BRANCH  25  26
ATOM     26  N   UNL     1      -0.639   1.835   1.514  0.00  0.00    -0.304 N 
ATOM     27  C   UNL     1      -0.798   3.129   1.854  0.00  0.00    +0.266 C 
ATOM     28  O   UNL     1      -0.489   4.005   1.071  0.00  0.00    -0.268 OA
ATOM     29  H   UNL     1      -0.887   1.135   2.139  0.00  0.00    +0.149 HD
BRANCH  27  30
ATOM     30  C   UNL     1      -1.352   3.485   3.183  0.00  0.00    +0.171 A 
ATOM     31  C   UNL     1      -1.576   4.779   3.694  0.00  0.00    +0.027 A 
ATOM     32  C   UNL     1      -2.087   4.574   4.930  0.00  0.00    +0.141 A 
ATOM     33  O   UNL     1      -2.141   3.255   5.107  0.00  0.00    -0.359 OA
ATOM     34  N   UNL     1      -1.731   2.658   4.133  0.00  0.00    -0.073 NA
ATOM     35  C   UNL     1      -2.485   5.685   5.866  0.00  0.00    +0.077 C 
ATOM     36  C   UNL     1      -1.831   6.986   5.374  0.00  0.00    +0.008 C 
ATOM     37  C   UNL     1      -2.119   7.171   3.882  0.00  0.00    +0.005 C 
ATOM     38  C   UNL     1      -1.337   6.125   3.075  0.00  0.00    +0.041 C 
ENDBRANCH  27  30
ENDBRANCH  25  26
ENDBRANCH   3  25
TORSDOF 8
