REMARK  Name = ZINC63743654
REMARK  6 active torsions:
REMARK  status: ('A' for Active; 'I' for Inactive)
REMARK    1  A    between atoms: C_1  and  O_2
REMARK    2  A    between atoms: O_2  and  C_3
REMARK    3  A    between atoms: C_3  and  C_5
REMARK    4  A    between atoms: C_9  and  N_11
REMARK    5  A    between atoms: N_14  and  C_15
REMARK    6  A    between atoms: C_19  and  C_21
REMARK                            x       y       z     vdW  Elec       q    Type
REMARK                         _______ _______ _______ _____ _____    ______ ____
ROOT
ATOM      1  C   UNL     1      -4.926  -8.180   0.158  0.00  0.00    +0.035 A 
ATOM      2  C   UNL     1      -3.744  -8.908   0.152  0.00  0.00    +0.023 A 
ATOM      3  C   UNL     1      -3.784 -10.288   0.141  0.00  0.00    +0.002 A 
ATOM      4  C   UNL     1      -5.001 -10.945   0.136  0.00  0.00    +0.006 A 
ATOM      5  C   UNL     1      -6.180 -10.223   0.141  0.00  0.00    -0.020 A 
ATOM      6  C   UNL     1      -6.146  -8.843   0.158  0.00  0.00    +0.029 A 
ENDROOT
BRANCH   5   7
ATOM      7  C   UNL     1      -7.504 -10.944   0.136  0.00  0.00    +0.133 C 
ATOM      8  C   UNL     1      -7.816 -11.472   1.518  0.00  0.00    +0.012 C 
ATOM      9  C   UNL     1      -7.907 -12.816   1.394  0.00  0.00    -0.002 A 
ATOM     10  C   UNL     1      -8.185 -13.886   2.358  0.00  0.00    +0.029 A 
ATOM     11  C   UNL     1      -8.211 -15.169   1.926  0.00  0.00    +0.042 A 
ATOM     12  C   UNL     1      -7.980 -15.498   0.582  0.00  0.00    +0.022 A 
ATOM     13  C   UNL     1      -7.718 -14.570  -0.361  0.00  0.00    +0.027 A 
ATOM     14  C   UNL     1      -7.667 -13.191  -0.018  0.00  0.00    +0.043 A 
ATOM     15  N   UNL     1      -7.436 -12.119  -0.740  0.00  0.00    -0.374 N 
ATOM     16 CL   UNL     1      -8.539 -16.438   3.064  0.00  0.00    -0.084 Cl
ATOM     17  H   UNL     1      -7.252 -12.105  -1.692  0.00  0.00    +0.161 HD
ENDBRANCH   5   7
BRANCH   1  21
ATOM     18  N   UNL     1      -5.868  -4.741   0.741  0.00  0.00    -0.269 N 
ATOM     19  C   UNL     1      -5.845  -6.086   0.817  0.00  0.00    +0.308 C 
ATOM     20  O   UNL     1      -6.686  -6.673   1.469  0.00  0.00    -0.252 OA
ATOM     21  N   UNL     1      -4.888  -6.781   0.169  0.00  0.00    -0.269 N 
ATOM     22  H   UNL     1      -5.244  -4.277   0.162  0.00  0.00    +0.156 HD
ATOM     23  H   UNL     1      -4.174  -6.311  -0.289  0.00  0.00    +0.156 HD
BRANCH  18  28
ATOM     24  C   UNL     1      -8.107  -3.748   3.497  0.00  0.00    +0.061 A 
ATOM     25  C   UNL     1      -8.629  -2.557   2.988  0.00  0.00    +0.015 A 
ATOM     26  C   UNL     1      -8.232  -2.104   1.747  0.00  0.00    +0.003 A 
ATOM     27  C   UNL     1      -7.318  -2.827   1.002  0.00  0.00    +0.023 A 
ATOM     28  C   UNL     1      -6.793  -4.013   1.499  0.00  0.00    +0.036 A 
ATOM     29  C   UNL     1      -7.180  -4.474   2.748  0.00  0.00    +0.038 A 
BRANCH  24  30
ATOM     30  C   UNL     1      -8.530  -4.235   4.826  0.00  0.00    +0.339 C 
ATOM     31  O   UNL     1      -8.071  -5.269   5.269  0.00  0.00    -0.245 OA
BRANCH  30  33
ATOM     32  C   UNL     1      -9.789  -4.062   6.824  0.00  0.00    +0.280 C 
ATOM     33  O   UNL     1      -9.425  -3.532   5.547  0.00  0.00    -0.464 OA
ENDBRANCH  30  33
ENDBRANCH  24  30
ENDBRANCH  18  28
ENDBRANCH   1  21
TORSDOF 5
