REMARK  Name = ZINC51039594
REMARK  2 active torsions:
REMARK  status: ('A' for Active; 'I' for Inactive)
REMARK    1  A    between atoms: C_1  and  C_2
REMARK    2  A    between atoms: C_7  and  N_10
REMARK                            x       y       z     vdW  Elec       q    Type
REMARK                         _______ _______ _______ _____ _____    ______ ____
ROOT
ATOM      1  N   UNL     1      -0.612  -2.548   1.244  0.00  0.00    -0.325 N 
ATOM      2  C   UNL     1      -0.880  -3.811   1.746  0.00  0.00    +0.142 A 
ATOM      3  C   UNL     1       0.148  -4.611   2.253  0.00  0.00    +0.178 A 
ATOM      4  N   UNL     1      -0.146  -5.808   2.724  0.00  0.00    -0.151 NA
ATOM      5  N   UNL     1      -1.360  -6.233   2.717  0.00  0.00    -0.117 NA
ATOM      6  C   UNL     1      -2.349  -5.496   2.244  0.00  0.00    +0.245 A 
ATOM      7  N   UNL     1      -2.123  -4.285   1.763  0.00  0.00    -0.200 NA
ATOM      8 CL   UNL     1      -3.967  -6.122   2.260  0.00  0.00    -0.039 Cl
ATOM      9  H   UNL     1      -1.333  -2.000   0.898  0.00  0.00    +0.148 HD
ENDROOT
BRANCH   1  15
ATOM     10  C   UNL     1      -0.019   1.526   0.010  0.00  0.00    +0.007 C 
ATOM     11  C   UNL     1       0.002  -0.004   0.002  0.00  0.00    -0.012 C 
ATOM     12  C   UNL     1       0.718  -0.497  -1.257  0.00  0.00    +0.003 C 
ATOM     13  C   UNL     1       0.739  -2.027  -1.265  0.00  0.00    +0.002 C 
ATOM     14  C   UNL     1       1.479  -2.534  -0.026  0.00  0.00    +0.022 C 
ATOM     15  C   UNL     1       0.763  -2.041   1.233  0.00  0.00    +0.072 C 
ATOM     16  C   UNL     1       0.742  -0.511   1.242  0.00  0.00    +0.025 C 
ENDBRANCH   1  15
TORSDOF 1
