REMARK  Name = ZINC33256315
REMARK  7 active torsions:
REMARK  status: ('A' for Active; 'I' for Inactive)
REMARK    1  A    between atoms: C_1  and  C_2
REMARK    2  A    between atoms: C_13  and  S_17
REMARK    3  A    between atoms: C_14  and  C_16
REMARK    4  A    between atoms: S_17  and  N_20
REMARK    5  A    between atoms: N_20  and  C_21
REMARK    6  A    between atoms: C_25  and  C_28
REMARK    7  A    between atoms: C_26  and  C_27
REMARK                            x       y       z     vdW  Elec       q    Type
REMARK                         _______ _______ _______ _____ _____    ______ ____
ROOT
ATOM      1  C   UNL     1       6.613  -0.881  -0.846  0.00  0.00    +0.044 C 
ATOM      2  C   UNL     1       5.421   0.033  -0.727  0.00  0.00    -0.049 A 
ATOM      3  C   UNL     1       5.596   1.400  -0.588  0.00  0.00    +0.005 A 
ATOM      4  C   UNL     1       4.521   2.249  -0.479  0.00  0.00    +0.028 A 
ATOM      5  C   UNL     1       3.206   1.752  -0.504  0.00  0.00    +0.066 A 
ATOM      6  C   UNL     1       3.062   0.368  -0.645  0.00  0.00    +0.040 A 
ATOM      7  C   UNL     1       4.138  -0.484  -0.754  0.00  0.00    +0.020 A 
ATOM      8  S   UNL     1       1.301   0.137  -0.633  0.00  0.00    -0.049 S 
ATOM      9  C   UNL     1       0.837   1.845  -0.447  0.00  0.00    +0.181 A 
ATOM     10  N   UNL     1       2.031   2.505  -0.403  0.00  0.00    -0.253 N 
ATOM     11  C   UNL     1       1.974   3.864  -0.261  0.00  0.00    +0.286 A 
ATOM     12  O   UNL     1       3.004   4.518  -0.214  0.00  0.00    -0.265 OA
ATOM     13  C   UNL     1       0.735   4.502  -0.170  0.00  0.00    +0.194 A 
ATOM     14  C   UNL     1      -0.414   3.763  -0.224  0.00  0.00    +0.073 A 
ATOM     15  N   UNL     1      -0.327   2.443  -0.367  0.00  0.00    -0.226 NA
ATOM     16  C   UNL     1      -1.760   4.435  -0.127  0.00  0.00    +0.068 C 
ENDROOT
BRANCH  13  17
ATOM     17  S   UNL     1       0.653   6.252   0.012  0.00  0.00    +0.079 S 
ATOM     18  O   UNL     1       1.891   6.768  -0.457  0.00  0.00    -0.150 OA
ATOM     19  O   UNL     1      -0.596   6.659  -0.530  0.00  0.00    -0.150 OA
BRANCH  17  20
ATOM     20  N   UNL     1       0.591   6.573   1.635  0.00  0.00    -0.216 N 
ATOM     21  H   UNL     1      -0.301   7.050   2.068  0.00  0.00    +0.174 HD
BRANCH  20  22
ATOM     22  C   UNL     1       1.671   6.239   2.455  0.00  0.00    +0.051 A 
ATOM     23  C   UNL     1       2.899   6.865   2.279  0.00  0.00    +0.025 A 
ATOM     24  C   UNL     1       3.964   6.532   3.092  0.00  0.00    +0.002 A 
ATOM     25  C   UNL     1       3.811   5.576   4.079  0.00  0.00    +0.004 A 
ATOM     26  C   UNL     1       2.591   4.950   4.257  0.00  0.00    -0.046 A 
ATOM     27  C   UNL     1       1.519   5.283   3.451  0.00  0.00    -0.025 A 
ATOM     28  C   UNL     1       0.188   4.605   3.649  0.00  0.00    +0.046 C 
ATOM     29  C   UNL     1       2.428   3.909   5.334  0.00  0.00    +0.044 C 
ENDBRANCH  20  22
ENDBRANCH  17  20
ENDBRANCH  13  17
TORSDOF 3
