REMARK  Name = ZINC37784797
REMARK  6 active torsions:
REMARK  status: ('A' for Active; 'I' for Inactive)
REMARK    1  A    between atoms: C_1  and  C_2
REMARK    2  A    between atoms: C_2  and  S_3
REMARK    3  A    between atoms: S_3  and  N_6
REMARK    4  A    between atoms: N_6  and  C_7
REMARK    5  A    between atoms: C_10  and  N_13
REMARK    6  A    between atoms: N_13  and  C_14
REMARK                            x       y       z     vdW  Elec       q    Type
REMARK                         _______ _______ _______ _____ _____    ______ ____
ROOT
ATOM      1  C   UNL     1      -0.588  -2.813  -1.449  0.00  0.00    +0.048 A 
ATOM      2  C   UNL     1      -1.695  -2.186  -0.894  0.00  0.00    +0.026 A 
ATOM      3  C   UNL     1      -2.945  -2.763  -1.006  0.00  0.00    +0.025 A 
ATOM      4  C   UNL     1      -3.095  -3.970  -1.675  0.00  0.00    +0.027 A 
ATOM      5  C   UNL     1      -1.988  -4.597  -2.231  0.00  0.00    +0.025 A 
ATOM      6  C   UNL     1      -0.739  -4.018  -2.123  0.00  0.00    +0.026 A 
ENDROOT
BRANCH   1   7
ATOM      7  N   UNL     1       0.679  -2.229  -1.335  0.00  0.00    -0.221 N 
ATOM      8  H   UNL     1       1.326  -2.593  -0.711  0.00  0.00    +0.173 HD
BRANCH   7   9
ATOM      9  S   UNL     1       1.071  -0.915  -2.263  0.00  0.00    +0.043 S 
ATOM     10  O   UNL     1       2.407  -0.598  -1.897  0.00  0.00    -0.155 OA
ATOM     11  O   UNL     1       0.019   0.014  -2.041  0.00  0.00    -0.155 OA
BRANCH   9  13
ATOM     12  C   UNL     1       1.256  -0.354  -4.934  0.00  0.00    +0.030 C 
ATOM     13  C   UNL     1       1.020  -1.521  -3.973  0.00  0.00    +0.185 C 
ENDBRANCH   9  13
ENDBRANCH   7   9
ENDBRANCH   1   7
BRANCH   4  14
ATOM     14  N   UNL     1      -4.361  -4.555  -1.789  0.00  0.00    -0.341 N 
ATOM     15  H   UNL     1      -5.135  -4.117  -1.400  0.00  0.00    +0.146 HD
BRANCH  14  16
ATOM     16  C   UNL     1      -4.519  -5.829  -2.495  0.00  0.00    +0.070 C 
ATOM     17  C   UNL     1      -4.594  -5.554  -4.011  0.00  0.00    +0.022 C 
ATOM     18  C   UNL     1      -4.244  -6.821  -4.744  0.00  0.00    +0.002 C 
ATOM     19  C   UNL     1      -5.489  -7.646  -5.122  0.00  0.00    +0.000 C 
ATOM     20  C   UNL     1      -6.538  -7.696  -3.994  0.00  0.00    +0.000 C 
ATOM     21  C   UNL     1      -5.915  -7.888  -2.638  0.00  0.00    +0.002 C 
ATOM     22  C   UNL     1      -5.708  -6.502  -1.994  0.00  0.00    +0.022 C 
ENDBRANCH  14  16
ENDBRANCH   4  14
TORSDOF 5
