REMARK  Name = ZINC28253737
REMARK  8 active torsions:
REMARK  status: ('A' for Active; 'I' for Inactive)
REMARK    1  A    between atoms: C_1  and  C_2
REMARK    2  A    between atoms: C_2  and  C_3
REMARK    3  A    between atoms: C_3  and  C_5
REMARK    4  A    between atoms: C_3  and  N_12
REMARK    5  A    between atoms: C_13  and  C_15
REMARK    6  A    between atoms: C_15  and  N_16
REMARK    7  A    between atoms: C_19  and  C_23
REMARK    8  A    between atoms: C_19  and  C_24
REMARK                            x       y       z     vdW  Elec       q    Type
REMARK                         _______ _______ _______ _____ _____    ______ ____
ROOT
ATOM      1  N   UNL     1      -0.334   2.869  -4.595  0.00  0.00    -0.215 N 
ATOM      2  C   UNL     1      -0.954   3.974  -4.138  0.00  0.00    +0.251 C 
ATOM      3  O   UNL     1      -1.877   4.024  -3.353  0.00  0.00    -0.272 OA
ATOM      4  C   UNL     1      -0.259   5.143  -4.808  0.00  0.00    +0.135 C 
ATOM      5  N   UNL     1       0.770   4.500  -5.644  0.00  0.00    -0.281 N 
ATOM      6  C   UNL     1       0.651   3.174  -5.449  0.00  0.00    +0.310 C 
ATOM      7  O   UNL     1       1.356   2.345  -5.990  0.00  0.00    -0.252 OA
ATOM      8  C   UNL     1       0.389   6.054  -3.764  0.00  0.00    +0.047 C 
ATOM      9  H   UNL     1       1.410   4.945  -6.220  0.00  0.00    +0.152 HD
ENDROOT
BRANCH   4  10
ATOM     10  C   UNL     1      -1.228   5.917  -5.663  0.00  0.00    -0.014 A 
ATOM     11  C   UNL     1      -2.565   5.972  -5.314  0.00  0.00    +0.008 A 
ATOM     12  C   UNL     1      -3.456   6.682  -6.098  0.00  0.00    +0.022 A 
ATOM     13  C   UNL     1      -3.009   7.339  -7.231  0.00  0.00    +0.059 A 
ATOM     14  C   UNL     1      -1.671   7.284  -7.579  0.00  0.00    +0.060 A 
ATOM     15  C   UNL     1      -0.780   6.577  -6.791  0.00  0.00    +0.027 A 
ATOM     16 CL   UNL     1      -1.109   8.107  -9.001  0.00  0.00    -0.082 Cl
ATOM     17 CL   UNL     1      -4.127   8.230  -8.215  0.00  0.00    -0.082 Cl
ENDBRANCH   4  10
BRANCH   1  18
ATOM     18  C   UNL     1      -0.688   1.503  -4.202  0.00  0.00    +0.213 C 
BRANCH  18  20
ATOM     19  N   UNL     1      -0.055  -0.114  -2.441  0.00  0.00    -0.307 N 
ATOM     20  C   UNL     1       0.107   1.109  -2.984  0.00  0.00    +0.231 C 
ATOM     21  O   UNL     1       0.893   1.891  -2.493  0.00  0.00    -0.274 OA
ATOM     22  H   UNL     1      -0.683  -0.740  -2.833  0.00  0.00    +0.149 HD
BRANCH  19  23
ATOM     23  C   UNL     1       0.718  -0.497  -1.257  0.00  0.00    +0.103 C 
BRANCH  23  24
ATOM     24  C   UNL     1       0.847  -1.998  -1.206  0.00  0.00    -0.027 A 
ATOM     25  C   UNL     1      -0.227  -2.796  -1.552  0.00  0.00    +0.007 A 
ATOM     26  C   UNL     1      -0.109  -4.173  -1.506  0.00  0.00    +0.020 A 
ATOM     27  C   UNL     1       1.084  -4.751  -1.112  0.00  0.00    +0.041 A 
ATOM     28  C   UNL     1       2.159  -3.952  -0.765  0.00  0.00    +0.020 A 
ATOM     29  C   UNL     1       2.042  -2.576  -0.818  0.00  0.00    +0.007 A 
ATOM     30 CL   UNL     1       1.233  -6.480  -1.053  0.00  0.00    -0.084 Cl
ENDBRANCH  23  24
BRANCH  23  32
ATOM     31  C   UNL     1      -0.019   1.526   0.010  0.00  0.00    +0.006 C 
ATOM     32  C   UNL     1       0.002  -0.004   0.002  0.00  0.00    +0.024 C 
ENDBRANCH  23  32
ENDBRANCH  19  23
ENDBRANCH  18  20
ENDBRANCH   1  18
TORSDOF 6
