REMARK  Name = ZINC61999517
REMARK  3 active torsions:
REMARK  status: ('A' for Active; 'I' for Inactive)
REMARK    1  A    between atoms: C_1  and  C_2
REMARK    2  A    between atoms: C_22  and  C_30
REMARK    3  A    between atoms: C_30  and  C_32
REMARK                            x       y       z     vdW  Elec       q    Type
REMARK                         _______ _______ _______ _____ _____    ______ ____
ROOT
ATOM      1  C   UNL     1       0.047   1.581   0.173  0.00  0.00    +0.046 C 
ATOM      2  C   UNL     1       0.033   0.075   0.124  0.00  0.00    -0.028 A 
ATOM      3  C   UNL     1      -0.007  -0.573  -1.094  0.00  0.00    +0.025 A 
ATOM      4  C   UNL     1      -0.019  -1.956  -1.150  0.00  0.00    +0.042 A 
ATOM      5  C   UNL     1       0.008  -2.692   0.023  0.00  0.00    +0.027 A 
ATOM      6  C   UNL     1       0.047  -2.048   1.239  0.00  0.00    +0.006 A 
ATOM      7  C   UNL     1       0.066  -0.659   1.307  0.00  0.00    +0.042 A 
ATOM      8  N   UNL     1       0.113  -0.242   2.639  0.00  0.00    -0.283 N 
ATOM      9  C   UNL     1       0.136  -1.280   3.496  0.00  0.00    +0.244 C 
ATOM     10  O   UNL     1       0.178  -1.216   4.706  0.00  0.00    -0.273 OA
ATOM     11  C   UNL     1       0.086  -2.537   2.663  0.00  0.00    +0.145 C 
ATOM     12  C   UNL     1      -1.136  -3.385   2.992  0.00  0.00    +0.116 C 
ATOM     13  C   UNL     1      -1.762  -2.990   4.300  0.00  0.00    -0.008 A 
ATOM     14  C   UNL     1      -1.294  -2.926   5.593  0.00  0.00    +0.006 A 
ATOM     15  C   UNL     1      -2.133  -2.515   6.614  0.00  0.00    +0.000 A 
ATOM     16  C   UNL     1      -3.442  -2.169   6.331  0.00  0.00    +0.002 A 
ATOM     17  C   UNL     1      -3.915  -2.231   5.037  0.00  0.00    +0.023 A 
ATOM     18  C   UNL     1      -3.077  -2.644   4.003  0.00  0.00    +0.038 A 
ATOM     19  N   UNL     1      -3.317  -2.788   2.635  0.00  0.00    -0.284 N 
ATOM     20  C   UNL     1      -2.228  -3.219   1.970  0.00  0.00    +0.231 C 
ATOM     21  O   UNL     1      -2.144  -3.432   0.779  0.00  0.00    -0.274 OA
ATOM     22  C   UNL     1      -0.627  -4.833   3.032  0.00  0.00    +0.099 C 
ATOM     23  C   UNL     1       0.861  -4.681   3.394  0.00  0.00    +0.070 C 
ATOM     24  N   UNL     1       1.288  -3.352   2.902  0.00  0.00    -0.281 NA
ATOM     25  C   UNL     1       1.972  -3.590   1.603  0.00  0.00    +0.086 C 
ATOM     26  C   UNL     1       2.695  -4.944   1.801  0.00  0.00    +0.017 C 
ATOM     27  C   UNL     1       1.696  -5.755   2.684  0.00  0.00    +0.021 C 
ATOM     28 CL   UNL     1      -0.070  -2.764  -2.685  0.00  0.00    -0.084 Cl
ATOM     29  H   UNL     1       0.128   0.687   2.915  0.00  0.00    +0.155 HD
ATOM     30  H   UNL     1      -4.170  -2.600   2.213  0.00  0.00    +0.155 HD
ENDROOT
BRANCH  22  31
ATOM     31  C   UNL     1      -1.355  -5.623   4.089  0.00  0.00    +0.169 C 
ATOM     32  O   UNL     1      -0.893  -5.710   5.207  0.00  0.00    -0.292 OA
BRANCH  31  33
ATOM     33  C   UNL     1      -2.628  -6.288   3.765  0.00  0.00    +0.018 A 
ATOM     34  C   UNL     1      -3.102  -6.295   2.449  0.00  0.00    +0.011 A 
ATOM     35  C   UNL     1      -4.294  -6.920   2.153  0.00  0.00    +0.001 A 
ATOM     36  C   UNL     1      -5.022  -7.540   3.154  0.00  0.00    +0.000 A 
ATOM     37  C   UNL     1      -4.560  -7.537   4.459  0.00  0.00    +0.001 A 
ATOM     38  C   UNL     1      -3.366  -6.921   4.770  0.00  0.00    +0.011 A 
ENDBRANCH  31  33
ENDBRANCH  22  31
TORSDOF 2
