REMARK  Name = ZINC60358717
REMARK  10 active torsions:
REMARK  status: ('A' for Active; 'I' for Inactive)
REMARK    1  A    between atoms: C_1  and  C_2
REMARK    2  A    between atoms: N_4  and  C_5
REMARK    3  A    between atoms: C_5  and  C_7
REMARK    4  A    between atoms: C_5  and  C_18
REMARK    5  A    between atoms: C_7  and  C_8
REMARK    6  A    between atoms: N_20  and  C_21
REMARK    7  A    between atoms: C_23  and  C_27
REMARK    8  A    between atoms: C_27  and  C_28
REMARK    9  A    between atoms: C_27  and  C_29
REMARK   10  A    between atoms: C_27  and  C_30
REMARK                            x       y       z     vdW  Elec       q    Type
REMARK                         _______ _______ _______ _____ _____    ______ ____
ROOT
ATOM      1  C   UNL     1       0.020  -2.136  -1.177  0.00  0.00    +0.163 C 
ENDROOT
BRANCH   1   5
ATOM      2  C   UNL     1      -0.018   1.503   0.010  0.00  0.00    +0.109 C 
ATOM      3  C   UNL     1       0.002  -0.004   0.002  0.00  0.00    +0.211 C 
ATOM      4  O   UNL     1       0.020  -0.616   1.049  0.00  0.00    -0.276 OA
ATOM      5  N   UNL     1       0.000  -0.672  -1.169  0.00  0.00    -0.304 N 
ATOM      6  H   UNL     1      -0.015  -0.182  -2.006  0.00  0.00    +0.149 HD
ENDBRANCH   1   5
BRANCH   1   7
ATOM      7  C   UNL     1       1.264  -2.626  -0.481  0.00  0.00    +0.239 C 
ATOM      8  O   UNL     1       1.862  -1.893   0.279  0.00  0.00    -0.273 OA
ATOM      9  N   UNL     1       1.712  -3.877  -0.703  0.00  0.00    -0.269 N 
ATOM     10  H   UNL     1       1.234  -4.463  -1.310  0.00  0.00    +0.156 HD
BRANCH   9  11
ATOM     11  C   UNL     1       2.863  -4.330  -0.059  0.00  0.00    +0.121 A 
ATOM     12  C   UNL     1       3.626  -3.622   0.818  0.00  0.00    +0.068 A 
ATOM     13  C   UNL     1       4.680  -4.442   1.228  0.00  0.00    +0.070 A 
ATOM     14  N   UNL     1       4.561  -5.597   0.626  0.00  0.00    -0.177 NA
ATOM     15  N   UNL     1       3.422  -5.555  -0.188  0.00  0.00    -0.264 N 
ATOM     16  H   UNL     1       3.092  -6.277  -0.746  0.00  0.00    +0.190 HD
BRANCH  13  17
ATOM     17  C   UNL     1       5.769  -4.061   2.199  0.00  0.00    +0.006 C 
ATOM     18  C   UNL     1       5.207  -4.064   3.622  0.00  0.00    +0.017 C 
ATOM     19  C   UNL     1       6.915  -5.069   2.100  0.00  0.00    +0.017 C 
ATOM     20  C   UNL     1       6.288  -2.663   1.859  0.00  0.00    +0.017 C 
ENDBRANCH  13  17
ENDBRANCH   9  11
ENDBRANCH   1   7
BRANCH   1  21
ATOM     21  C   UNL     1      -1.215  -2.667  -0.447  0.00  0.00    +0.069 C 
BRANCH  21  22
ATOM     22  C   UNL     1      -2.455  -2.281  -1.211  0.00  0.00    -0.020 A 
ATOM     23  C   UNL     1      -3.224  -1.202  -0.994  0.00  0.00    +0.087 A 
ATOM     24  N   UNL     1      -4.263  -1.182  -1.884  0.00  0.00    -0.360 N 
ATOM     25  H   UNL     1      -4.950  -0.499  -1.923  0.00  0.00    +0.165 HD
ATOM     26  C   UNL     1      -4.186  -2.276  -2.717  0.00  0.00    +0.047 A 
ATOM     27  C   UNL     1      -3.047  -3.009  -2.336  0.00  0.00    +0.003 A 
ATOM     28  C   UNL     1      -2.713  -4.180  -3.018  0.00  0.00    +0.010 A 
ATOM     29  C   UNL     1      -3.492  -4.607  -4.056  0.00  0.00    +0.001 A 
ATOM     30  C   UNL     1      -4.614  -3.885  -4.438  0.00  0.00    +0.002 A 
ATOM     31  C   UNL     1      -4.968  -2.732  -3.773  0.00  0.00    +0.026 A 
ENDBRANCH  21  22
ENDBRANCH   1  21
TORSDOF 6
