REMARK  Name = ZINC38943034
REMARK  12 active torsions:
REMARK  status: ('A' for Active; 'I' for Inactive)
REMARK    1  A    between atoms: C_1  and  C_2
REMARK    2  A    between atoms: C_2  and  O_3
REMARK    3  A    between atoms: O_3  and  C_4
REMARK    4  A    between atoms: C_9  and  S_10
REMARK    5  A    between atoms: S_10  and  N_13
REMARK    6  A    between atoms: N_13  and  C_14
REMARK    7  A    between atoms: C_22  and  C_30
REMARK    8  A    between atoms: C_22  and  C_31
REMARK    9  A    between atoms: N_25  and  C_26
REMARK   10  A    between atoms: C_26  and  C_27
REMARK   11  A    between atoms: C_27  and  C_28
REMARK   12  A    between atoms: C_27  and  C_29
REMARK                            x       y       z     vdW  Elec       q    Type
REMARK                         _______ _______ _______ _____ _____    ______ ____
ROOT
ATOM      1  C   UNL     1       4.035   0.909   2.286  0.00  0.00    +0.052 A 
ATOM      2  C   UNL     1       2.873   0.425   1.698  0.00  0.00    +0.026 A 
ATOM      3  C   UNL     1       2.301   1.099   0.636  0.00  0.00    +0.029 A 
ATOM      4  C   UNL     1       2.887   2.258   0.156  0.00  0.00    +0.078 A 
ATOM      5  C   UNL     1       4.055   2.745   0.741  0.00  0.00    +0.144 A 
ATOM      6  C   UNL     1       4.623   2.074   1.810  0.00  0.00    +0.072 A 
ATOM      7  O   UNL     1       4.629   3.878   0.256  0.00  0.00    -0.489 OA
ATOM      8  C   UNL     1       5.339   3.773  -0.975  0.00  0.00    +0.244 C 
ATOM      9  C   UNL     1       4.548   2.935  -1.978  0.00  0.00    +0.076 C 
ATOM     10  C   UNL     1       3.096   3.335  -1.954  0.00  0.00    +0.229 C 
ATOM     11  O   UNL     1       2.631   3.994  -2.860  0.00  0.00    -0.275 OA
ATOM     12  N   UNL     1       2.314   2.956  -0.919  0.00  0.00    -0.267 N 
ATOM     13  C   UNL     1       5.114   3.157  -3.382  0.00  0.00    +0.024 C 
ATOM     14  C   UNL     1       4.673   1.455  -1.612  0.00  0.00    +0.024 C 
ENDROOT
BRANCH   1  15
ATOM     15  N   UNL     1       4.611   0.227   3.362  0.00  0.00    -0.216 N 
ATOM     16  H   UNL     1       5.569   0.076   3.385  0.00  0.00    +0.174 HD
BRANCH  15  17
ATOM     17  S   UNL     1       3.657  -0.325   4.598  0.00  0.00    +0.076 S 
ATOM     18  O   UNL     1       4.533  -0.868   5.577  0.00  0.00    -0.150 OA
ATOM     19  O   UNL     1       2.617  -1.087   4.000  0.00  0.00    -0.150 OA
BRANCH  17  25
ATOM     20  C   UNL     1       3.665   2.036   5.976  0.00  0.00    +0.147 A 
ATOM     21  C   UNL     1       3.060   3.146   6.549  0.00  0.00    +0.047 A 
ATOM     22  C   UNL     1       1.688   3.294   6.483  0.00  0.00    +0.004 A 
ATOM     23  C   UNL     1       0.919   2.339   5.845  0.00  0.00    +0.002 A 
ATOM     24  C   UNL     1       1.519   1.232   5.274  0.00  0.00    +0.032 A 
ATOM     25  C   UNL     1       2.891   1.082   5.333  0.00  0.00    +0.150 A 
BRANCH  20  26
ATOM     26  O   UNL     1       5.015   1.888   6.040  0.00  0.00    -0.490 OA
BRANCH  26  28
ATOM     27  C   UNL     1       7.238   2.574   6.695  0.00  0.00    +0.048 C 
ATOM     28  C   UNL     1       5.738   2.853   6.808  0.00  0.00    +0.226 C 
ENDBRANCH  26  28
ENDBRANCH  20  26
ENDBRANCH  17  25
ENDBRANCH  15  17
ENDBRANCH   1  15
BRANCH  12  29
ATOM     29  C   UNL     1       0.883   3.268  -0.919  0.00  0.00    +0.116 C 
BRANCH  29  30
ATOM     30  C   UNL     1       0.642   4.557  -0.130  0.00  0.00    +0.001 C 
ATOM     31  C   UNL     1       1.312   5.729  -0.851  0.00  0.00    +0.009 C 
ATOM     32  C   UNL     1      -0.862   4.817  -0.024  0.00  0.00    +0.009 C 
ENDBRANCH  29  30
ENDBRANCH  12  29
TORSDOF 7
