REMARK  Name = ZINC15946026
REMARK  16 active torsions:
REMARK  status: ('A' for Active; 'I' for Inactive)
REMARK    1  A    between atoms: C_1  and  C_2
REMARK    2  A    between atoms: C_2  and  C_3
REMARK    3  A    between atoms: C_3  and  N_70
REMARK    4  A    between atoms: C_4  and  C_5
REMARK    5  A    between atoms: C_4  and  N_70
REMARK    6  A    between atoms: N_7  and  C_8
REMARK    7  A    between atoms: C_9  and  C_22
REMARK    8  A    between atoms: C_14  and  C_18
REMARK    9  A    between atoms: C_18  and  C_19
REMARK   10  A    between atoms: C_18  and  C_20
REMARK   11  A    between atoms: C_18  and  C_21
REMARK   12  A    between atoms: N_24  and  C_25
REMARK   13  A    between atoms: C_28  and  O_33
REMARK   14  A    between atoms: C_30  and  O_31
REMARK   15  A    between atoms: O_31  and  C_32
REMARK   16  A    between atoms: O_33  and  C_34
REMARK                            x       y       z     vdW  Elec       q    Type
REMARK                         _______ _______ _______ _____ _____    ______ ____
ROOT
ATOM      1  C   UNL     1      -4.194   2.472  -1.413  0.00  0.00    +0.084 A 
ATOM      2  C   UNL     1      -3.670   2.105  -0.181  0.00  0.00    +0.069 A 
ATOM      3  C   UNL     1      -4.426   2.468   1.005  0.00  0.00    -0.023 A 
ATOM      4  C   UNL     1      -5.580   3.131   0.772  0.00  0.00    -0.004 A 
ATOM      5  S   UNL     1      -5.670   3.275  -0.991  0.00  0.00    -0.077 S 
ATOM      6  C   UNL     1      -6.558   3.628   1.791  0.00  0.00    +0.046 C 
ATOM      7  C   UNL     1      -5.876   3.606   3.167  0.00  0.00    -0.000 C 
ATOM      8  C   UNL     1      -5.192   2.249   3.356  0.00  0.00    +0.009 C 
ATOM      9  C   UNL     1      -3.982   2.142   2.426  0.00  0.00    +0.037 C 
ENDROOT
BRANCH   1  12
ATOM     10  C   UNL     1      -4.324   2.683  -3.768  0.00  0.00    +0.201 C 
ATOM     11  O   UNL     1      -5.378   3.269  -3.647  0.00  0.00    -0.278 OA
ATOM     12  N   UNL     1      -3.665   2.248  -2.675  0.00  0.00    -0.281 N 
ATOM     13  H   UNL     1      -2.822   1.779  -2.772  0.00  0.00    +0.155 HD
BRANCH  10  14
ATOM     14  C   UNL     1      -3.749   2.439  -5.140  0.00  0.00    +0.015 C 
BRANCH  14  15
ATOM     15  N   UNL     1      -4.658   3.010  -6.152  0.00  0.00    +0.385 N 
ATOM     16  H   UNL     1      -5.577   2.559  -6.074  0.00  0.00    -0.085 HD
ATOM     17  H   UNL     1      -4.756   4.019  -5.989  0.00  0.00    -0.085 HD
BRANCH  15  18
ATOM     18  C   UNL     1      -4.120   2.786  -7.508  0.00  0.00    -0.082 C 
BRANCH  18  20
ATOM     19  C   UNL     1      -4.530   3.159  -9.944  0.00  0.00    +0.002 C 
ATOM     20  C   UNL     1      -5.081   3.387  -8.534  0.00  0.00    -0.022 C 
ENDBRANCH  18  20
ENDBRANCH  15  18
ENDBRANCH  14  15
ENDBRANCH  10  14
ENDBRANCH   1  12
BRANCH   7  21
ATOM     21  C   UNL     1      -6.925   3.808   4.262  0.00  0.00    -0.035 C 
ATOM     22  C   UNL     1      -6.245   3.768   5.632  0.00  0.00    +0.011 C 
ATOM     23  C   UNL     1      -7.607   5.164   4.070  0.00  0.00    +0.011 C 
ATOM     24  C   UNL     1      -7.971   2.695   4.179  0.00  0.00    +0.011 C 
ENDBRANCH   7  21
BRANCH   2  25
ATOM     25  C   UNL     1      -2.397   1.384  -0.081  0.00  0.00    +0.251 C 
ATOM     26  O   UNL     1      -2.385   0.167  -0.088  0.00  0.00    -0.270 OA
ATOM     27  N   UNL     1      -1.240   2.068   0.019  0.00  0.00    -0.278 N 
ATOM     28  H   UNL     1      -1.255   3.034   0.105  0.00  0.00    +0.155 HD
BRANCH  27  29
ATOM     29  C   UNL     1      -0.016   1.384  -0.002  0.00  0.00    +0.076 A 
ATOM     30  C   UNL     1       0.075   0.144  -0.616  0.00  0.00    +0.030 A 
ATOM     31  C   UNL     1       1.282  -0.528  -0.641  0.00  0.00    +0.047 A 
ATOM     32  C   UNL     1       2.405   0.036  -0.053  0.00  0.00    +0.124 A 
ATOM     33  C   UNL     1       2.319   1.275   0.562  0.00  0.00    +0.093 A 
ATOM     34  C   UNL     1       1.110   1.951   0.590  0.00  0.00    +0.145 A 
BRANCH  34  35
ATOM     35  O   UNL     1       1.023   3.167   1.193  0.00  0.00    -0.493 OA
ATOM     36  C   UNL     1       2.218   3.687   1.779  0.00  0.00    +0.277 C 
ENDBRANCH  34  35
BRANCH  32  37
ATOM     37  O   UNL     1       3.592  -0.628  -0.079  0.00  0.00    -0.495 OA
ATOM     38  C   UNL     1       3.609  -1.900  -0.730  0.00  0.00    +0.277 C 
ENDBRANCH  32  37
ENDBRANCH  27  29
ENDBRANCH   2  25
TORSDOF 10
