REMARK  Name = ZINC39600040
REMARK  6 active torsions:
REMARK  status: ('A' for Active; 'I' for Inactive)
REMARK    1  A    between atoms: C_3  and  O_30
REMARK    2  A    between atoms: C_6  and  C_7
REMARK    3  A    between atoms: C_7  and  N_8
REMARK    4  A    between atoms: C_9  and  C_11
REMARK    5  A    between atoms: C_22  and  C_24
REMARK    6  A    between atoms: O_30  and  C_31
REMARK                            x       y       z     vdW  Elec       q    Type
REMARK                         _______ _______ _______ _____ _____    ______ ____
ROOT
ATOM      1  C   UNL     1      -3.314  -1.941  -3.024  0.00  0.00    +0.100 C 
ATOM      2  C   UNL     1      -2.226  -2.714  -3.802  0.00  0.00    +0.121 C 
ATOM      3  N   UNL     1      -2.625  -4.136  -3.691  0.00  0.00    -0.300 N 
ATOM      4  C   UNL     1      -4.101  -4.117  -3.825  0.00  0.00    +0.115 C 
ATOM      5  C   UNL     1      -4.545  -2.863  -3.044  0.00  0.00    -0.004 C 
ATOM      6  C   UNL     1      -5.706  -2.179  -3.759  0.00  0.00    -0.010 C 
ATOM      7  C   UNL     1      -6.935  -3.092  -3.715  0.00  0.00    -0.082 C 
ATOM      8  N   UNL     1      -7.290  -3.371  -2.318  0.00  0.00    +0.379 N 
ATOM      9  C   UNL     1      -6.204  -4.112  -1.664  0.00  0.00    -0.082 C 
ATOM     10  C   UNL     1      -4.944  -3.242  -1.621  0.00  0.00    -0.010 C 
ATOM     11  C   UNL     1      -1.826  -5.207  -3.509  0.00  0.00    +0.219 C 
ATOM     12  O   UNL     1      -2.308  -6.317  -3.438  0.00  0.00    -0.275 OA
ATOM     13  H   UNL     1      -7.443  -2.501  -1.831  0.00  0.00    -0.086 HD
ATOM     14  H   UNL     1      -8.135  -3.922  -2.291  0.00  0.00    -0.086 HD
ENDROOT
BRANCH  11  15
ATOM     15  C   UNL     1      -0.335  -5.023  -3.395  0.00  0.00    +0.079 C 
ATOM     16  C   UNL     1       0.203  -4.386  -4.680  0.00  0.00    +0.041 C 
ATOM     17  C   UNL     1       1.727  -4.276  -4.587  0.00  0.00    +0.160 C 
ATOM     18  O   UNL     1       2.285  -5.573  -4.370  0.00  0.00    -0.380 OA
ATOM     19  C   UNL     1       1.854  -6.198  -3.159  0.00  0.00    +0.160 C 
ATOM     20  C   UNL     1       0.335  -6.386  -3.195  0.00  0.00    +0.041 C 
ENDBRANCH  11  15
BRANCH   1  22
ATOM     21  N   UNL     1      -3.327  -0.617  -0.935  0.00  0.00    -0.311 N 
ATOM     22  C   UNL     1      -2.868  -1.692  -1.606  0.00  0.00    +0.218 C 
ATOM     23  O   UNL     1      -2.097  -2.458  -1.070  0.00  0.00    -0.275 OA
ATOM     24  H   UNL     1      -3.944  -0.004  -1.364  0.00  0.00    +0.149 HD
BRANCH  21  25
ATOM     25  C   UNL     1      -2.893  -0.375   0.444  0.00  0.00    +0.139 C 
BRANCH  25  31
ATOM     26  C   UNL     1      -4.768   0.809   1.604  0.00  0.00    +0.009 A 
ATOM     27  C   UNL     1      -5.368   1.959   2.080  0.00  0.00    +0.046 A 
ATOM     28  C   UNL     1      -4.742   3.186   1.915  0.00  0.00    +0.130 A 
ATOM     29  C   UNL     1      -3.515   3.255   1.271  0.00  0.00    +0.046 A 
ATOM     30  C   UNL     1      -2.920   2.103   0.796  0.00  0.00    +0.009 A 
ATOM     31  C   UNL     1      -3.546   0.881   0.962  0.00  0.00    -0.030 A 
BRANCH  28  32
ATOM     32  O   UNL     1      -5.330   4.319   2.382  0.00  0.00    -0.406 OA
BRANCH  32  33
ATOM     33  C   UNL     1      -4.629   5.546   2.176  0.00  0.00    +0.575 C 
ATOM     34  F   UNL     1      -4.447   5.755   0.805  0.00  0.00    -0.133 F 
ATOM     35  F   UNL     1      -5.370   6.603   2.715  0.00  0.00    -0.133 F 
ATOM     36  F   UNL     1      -3.382   5.482   2.807  0.00  0.00    -0.133 F 
ENDBRANCH  32  33
ENDBRANCH  28  32
ENDBRANCH  25  31
ENDBRANCH  21  25
ENDBRANCH   1  22
TORSDOF 6
