REMARK  Name = ZINC59120502
REMARK  5 active torsions:
REMARK  status: ('A' for Active; 'I' for Inactive)
REMARK    1  A    between atoms: C_1  and  C_2
REMARK    2  A    between atoms: C_2  and  C_3
REMARK    3  A    between atoms: C_3  and  C_4
REMARK    4  A    between atoms: N_6  and  C_7
REMARK    5  A    between atoms: C_10  and  C_13
REMARK                            x       y       z     vdW  Elec       q    Type
REMARK                         _______ _______ _______ _____ _____    ______ ____
ROOT
ATOM      1  C   UNL     1       1.241  -8.318   2.579  0.00  0.00    +0.251 C 
ATOM      2  O   UNL     1       2.058  -8.904   3.263  0.00  0.00    -0.270 OA
ATOM      3  N   UNL     1       0.296  -9.013   1.914  0.00  0.00    -0.257 N 
ATOM      4  C   UNL     1      -0.774  -8.325   1.177  0.00  0.00    +0.210 C 
ATOM      5  C   UNL     1      -2.078  -9.040   1.423  0.00  0.00    +0.235 C 
ATOM      6  O   UNL     1      -3.119  -8.418   1.385  0.00  0.00    -0.274 OA
ATOM      7  N   UNL     1      -2.103 -10.360   1.685  0.00  0.00    -0.283 N 
ATOM      8  C   UNL     1      -0.914 -11.092   1.785  0.00  0.00    +0.055 A 
ATOM      9  C   UNL     1       0.306 -10.416   1.899  0.00  0.00    +0.058 A 
ATOM     10  C   UNL     1       1.490 -11.123   1.999  0.00  0.00    +0.025 A 
ATOM     11  C   UNL     1       1.467 -12.507   1.977  0.00  0.00    +0.002 A 
ATOM     12  C   UNL     1       0.266 -13.181   1.856  0.00  0.00    +0.002 A 
ATOM     13  C   UNL     1      -0.930 -12.477   1.767  0.00  0.00    +0.025 A 
ATOM     14  H   UNL     1      -2.954 -10.810   1.807  0.00  0.00    +0.155 HD
ENDROOT
BRANCH   1  18
ATOM     15  C   UNL     1       1.363  -4.084   2.282  0.00  0.00    +0.033 A 
ATOM     16  C   UNL     1       0.901  -4.842   1.210  0.00  0.00    +0.024 A 
ATOM     17  C   UNL     1       0.860  -6.215   1.303  0.00  0.00    +0.015 A 
ATOM     18  C   UNL     1       1.283  -6.847   2.475  0.00  0.00    +0.037 A 
ATOM     19  C   UNL     1       1.747  -6.083   3.550  0.00  0.00    +0.015 A 
ATOM     20  C   UNL     1       1.790  -4.710   3.448  0.00  0.00    +0.024 A 
BRANCH  15  23
ATOM     21  C   UNL     1       0.443  -2.037   1.503  0.00  0.00    +0.217 C 
ATOM     22  O   UNL     1      -0.408  -2.660   0.903  0.00  0.00    -0.275 OA
ATOM     23  N   UNL     1       1.403  -2.693   2.184  0.00  0.00    -0.285 N 
ATOM     24  H   UNL     1       2.122  -2.198   2.607  0.00  0.00    +0.155 HD
BRANCH  21  25
ATOM     25  C   UNL     1       0.427  -0.531   1.485  0.00  0.00    +0.096 C 
BRANCH  25  27
ATOM     26  C   UNL     1      -0.772   1.487   0.629  0.00  0.00    +0.004 C 
ATOM     27  C   UNL     1      -0.756  -0.043   0.647  0.00  0.00    +0.006 C 
ENDBRANCH  25  27
ENDBRANCH  21  25
ENDBRANCH  15  23
ENDBRANCH   1  18
TORSDOF 4
