REMARK  Name = ZINC06504622
REMARK  7 active torsions:
REMARK  status: ('A' for Active; 'I' for Inactive)
REMARK    1  A    between atoms: C_1  and  C_2
REMARK    2  A    between atoms: C_7  and  C_8
REMARK    3  A    between atoms: N_10  and  C_11
REMARK    4  A    between atoms: C_11  and  N_13
REMARK    5  A    between atoms: N_13  and  N_14
REMARK    6  A    between atoms: C_15  and  C_17
REMARK    7  A    between atoms: C_17  and  C_18
REMARK                            x       y       z     vdW  Elec       q    Type
REMARK                         _______ _______ _______ _____ _____    ______ ____
ROOT
ATOM      1  C   UNL     1       1.025   1.731  -0.939  0.00  0.00    +0.153 C 
ATOM      2  S   UNL     1       0.971   3.442  -0.953  0.00  0.00    -0.017 S 
ENDROOT
BRANCH   1   5
ATOM      3  C   UNL     1      -1.262   1.663  -0.477  0.00  0.00    +0.250 C 
ATOM      4  O   UNL     1      -1.301   2.877  -0.487  0.00  0.00    -0.270 OA
ATOM      5  N   UNL     1      -0.097   1.024  -0.700  0.00  0.00    -0.263 N 
ATOM      6  H   UNL     1      -0.066   0.054  -0.692  0.00  0.00    +0.157 HD
BRANCH   3  13
ATOM      7  C   UNL     1      -3.697   3.043   0.255  0.00  0.00    +0.044 C 
ATOM      8  C   UNL     1      -3.674   1.541   0.133  0.00  0.00    -0.038 A 
ATOM      9  C   UNL     1      -4.820   0.811   0.371  0.00  0.00    +0.004 A 
ATOM     10  C   UNL     1      -4.800  -0.568   0.259  0.00  0.00    +0.000 A 
ATOM     11  C   UNL     1      -3.633  -1.224  -0.092  0.00  0.00    +0.001 A 
ATOM     12  C   UNL     1      -2.482  -0.505  -0.338  0.00  0.00    +0.013 A 
ATOM     13  C   UNL     1      -2.493   0.886  -0.221  0.00  0.00    +0.040 A 
ENDBRANCH   3  13
ENDBRANCH   1   5
BRANCH   1  14
ATOM     14  N   UNL     1       2.190   1.092  -1.167  0.00  0.00    -0.246 N 
ATOM     15  H   UNL     1       2.997   1.602  -1.339  0.00  0.00    +0.172 HD
BRANCH  14  16
ATOM     16  N   UNL     1       2.234  -0.308  -1.155  0.00  0.00    -0.235 N 
ATOM     17  C   UNL     1       3.398  -0.947  -1.383  0.00  0.00    +0.233 C 
ATOM     18  O   UNL     1       4.408  -0.310  -1.598  0.00  0.00    -0.274 OA
ATOM     19  H   UNL     1       1.427  -0.818  -0.983  0.00  0.00    +0.173 HD
BRANCH  17  20
ATOM     20  C   UNL     1       3.446  -2.454  -1.370  0.00  0.00    +0.132 C 
BRANCH  20  21
ATOM     21  C   UNL     1       4.854  -2.914  -1.650  0.00  0.00    -0.039 A 
ATOM     22  C   UNL     1       5.258  -3.148  -2.951  0.00  0.00    +0.004 A 
ATOM     23  C   UNL     1       6.551  -3.565  -3.208  0.00  0.00    +0.000 A 
ATOM     24  C   UNL     1       7.436  -3.759  -2.164  0.00  0.00    +0.000 A 
ATOM     25  C   UNL     1       7.029  -3.530  -0.863  0.00  0.00    +0.000 A 
ATOM     26  C   UNL     1       5.738  -3.107  -0.606  0.00  0.00    +0.004 A 
ENDBRANCH  20  21
ENDBRANCH  17  20
ENDBRANCH  14  16
ENDBRANCH   1  14
TORSDOF 6
