REMARK  Name = ZINC08918079
REMARK  14 active torsions:
REMARK  status: ('A' for Active; 'I' for Inactive)
REMARK    1  A    between atoms: C_1  and  C_2
REMARK    2  A    between atoms: C_6  and  C_12
REMARK    3  A    between atoms: C_7  and  C_11
REMARK    4  A    between atoms: C_13  and  O_15
REMARK    5  A    between atoms: O_15  and  C_16
REMARK    6  A    between atoms: C_16  and  C_18
REMARK    7  A    between atoms: C_16  and  C_19
REMARK    8  A    between atoms: N_21  and  C_22
REMARK    9  A    between atoms: C_22  and  C_23
REMARK   10  A    between atoms: C_23  and  C_24
REMARK   11  A    between atoms: C_24  and  C_25
REMARK   12  A    between atoms: C_25  and  C_26
REMARK   13  A    between atoms: C_26  and  C_27
REMARK   14  A    between atoms: C_32  and  O_40
REMARK                            x       y       z     vdW  Elec       q    Type
REMARK                         _______ _______ _______ _____ _____    ______ ____
ROOT
ATOM      1  C   UNL     1       3.344   3.803   5.585  0.00  0.00    +0.254 C 
ATOM      2  O   UNL     1       3.744   3.823   4.440  0.00  0.00    -0.272 OA
ATOM      3  N   UNL     1       4.126   4.267   6.580  0.00  0.00    -0.312 N 
ATOM      4  H   UNL     1       3.807   4.251   7.495  0.00  0.00    +0.149 HD
ENDROOT
BRANCH   1   5
ATOM      5  C   UNL     1       1.973   3.261   5.895  0.00  0.00    +0.255 C 
ATOM      6  C   UNL     1       2.098   2.073   6.850  0.00  0.00    +0.062 C 
BRANCH   5   7
ATOM      7  O   UNL     1       1.344   2.835   4.684  0.00  0.00    -0.479 OA
BRANCH   7  20
ATOM      8  C   UNL     1      -2.875   3.358   7.073  0.00  0.00    +0.044 C 
ATOM      9  C   UNL     1      -2.112   3.059   5.808  0.00  0.00    -0.043 A 
ATOM     10  C   UNL     1      -2.801   2.765   4.649  0.00  0.00    +0.050 A 
ATOM     11  C   UNL     1      -2.108   2.488   3.479  0.00  0.00    +0.143 A 
ATOM     12  C   UNL     1      -0.702   2.510   3.485  0.00  0.00    +0.062 A 
ATOM     13  C   UNL     1       0.019   2.217   2.246  0.00  0.00    -0.027 A 
ATOM     14  C   UNL     1      -0.707   1.933   1.133  0.00  0.00    +0.038 A 
ATOM     15  C   UNL     1      -2.116   1.933   1.196  0.00  0.00    +0.340 A 
ATOM     16  O   UNL     1      -2.755   1.682   0.190  0.00  0.00    -0.245 OA
ATOM     17  O   UNL     1      -2.770   2.198   2.338  0.00  0.00    -0.422 OA
ATOM     18  C   UNL     1      -0.009   1.625  -0.167  0.00  0.00    +0.051 C 
ATOM     19  C   UNL     1       1.525   2.229   2.205  0.00  0.00    +0.045 C 
ATOM     20  C   UNL     1      -0.013   2.811   4.670  0.00  0.00    +0.133 A 
ATOM     21  C   UNL     1      -0.727   3.084   5.823  0.00  0.00    +0.050 A 
ENDBRANCH   7  20
ENDBRANCH   5   7
ENDBRANCH   1   5
BRANCH   3  22
ATOM     22  C   UNL     1       5.460   4.794   6.279  0.00  0.00    +0.104 C 
BRANCH  22  23
ATOM     23  C   UNL     1       6.133   5.250   7.574  0.00  0.00    +0.019 C 
BRANCH  23  24
ATOM     24  C   UNL     1       7.525   5.801   7.260  0.00  0.00    +0.002 C 
BRANCH  24  25
ATOM     25  C   UNL     1       8.198   6.257   8.556  0.00  0.00    +0.009 C 
BRANCH  25  26
ATOM     26  C   UNL     1       9.590   6.808   8.241  0.00  0.00    +0.096 C 
BRANCH  26  27
ATOM     27  C   UNL     1      10.253   7.258   9.518  0.00  0.00    +0.216 C 
ATOM     28  O   UNL     1       9.669   7.148  10.575  0.00  0.00    -0.276 OA
ATOM     29  N   UNL     1      11.495   7.781   9.484  0.00  0.00    -0.301 N 
ATOM     30  C   UNL     1      12.217   7.914   8.212  0.00  0.00    +0.110 C 
ATOM     31  C   UNL     1      12.672   9.373   8.060  0.00  0.00    +0.054 C 
ATOM     32  C   UNL     1      13.490   9.779   9.289  0.00  0.00    +0.072 C 
ATOM     33  C   UNL     1      13.962  11.226   9.126  0.00  0.00    +0.035 C 
ATOM     34  C   UNL     1      12.746  12.142   8.975  0.00  0.00    +0.003 C 
ATOM     35  C   UNL     1      11.865  12.032  10.220  0.00  0.00    +0.001 C 
ATOM     36  C   UNL     1      11.398  10.585  10.391  0.00  0.00    +0.008 C 
ATOM     37  C   UNL     1      12.617   9.672  10.542  0.00  0.00    +0.038 C 
ATOM     38  C   UNL     1      12.154   8.224  10.720  0.00  0.00    +0.114 C 
BRANCH  32  39
ATOM     39  O   UNL     1      14.624   8.918   9.422  0.00  0.00    -0.388 OA
ATOM     40  H   UNL     1      15.221   8.936   8.662  0.00  0.00    +0.210 HD
ENDBRANCH  32  39
ENDBRANCH  26  27
ENDBRANCH  25  26
ENDBRANCH  24  25
ENDBRANCH  23  24
ENDBRANCH  22  23
ENDBRANCH   3  22
TORSDOF 10
