REMARK  Name = ZINC13501187
REMARK  13 active torsions:
REMARK  status: ('A' for Active; 'I' for Inactive)
REMARK    1  A    between atoms: C_1  and  C_2
REMARK    2  A    between atoms: C_2  and  C_3
REMARK    3  A    between atoms: C_3  and  C_5
REMARK    4  A    between atoms: C_3  and  N_17
REMARK    5  A    between atoms: N_9  and  C_10
REMARK    6  A    between atoms: C_10  and  C_11
REMARK    7  A    between atoms: N_17  and  C_18
REMARK    8  A    between atoms: N_17  and  C_27
REMARK    9  A    between atoms: C_18  and  C_19
REMARK   10  A    between atoms: C_19  and  C_20
REMARK   11  A    between atoms: C_20  and  N_21
REMARK   12  A    between atoms: C_27  and  C_28
REMARK   13  A    between atoms: C_32  and  C_40
REMARK                            x       y       z     vdW  Elec       q    Type
REMARK                         _______ _______ _______ _____ _____    ______ ____
ROOT
ATOM      1  N   UNL     1       1.232   4.172   1.719  0.00  0.00    +0.389 N 
ATOM      2  H   UNL     1       0.538   3.828   2.500  0.00  0.00    -0.080 HD
ENDROOT
BRANCH   1   3
ATOM      3  C   UNL     1       1.176   5.640   1.681  0.00  0.00    +0.003 C 
BRANCH   3   4
ATOM      4  C   UNL     1      -0.228   6.097   1.986  0.00  0.00    +0.138 A 
ATOM      5  N   UNL     1      -1.339   5.571   1.531  0.00  0.00    -0.115 NA
ATOM      6  N   UNL     1      -2.325   6.241   2.019  0.00  0.00    -0.023 NA
ATOM      7  N   UNL     1      -1.872   7.179   2.775  0.00  0.00    -0.044 NA
ATOM      8  N   UNL     1      -0.583   7.120   2.785  0.00  0.00    -0.228 N 
BRANCH   8   9
ATOM      9  C   UNL     1       0.323   8.004   3.523  0.00  0.00    +0.178 C 
BRANCH   9  10
ATOM     10  C   UNL     1       0.684   9.208   2.651  0.00  0.00    +0.140 C 
ATOM     11  C   UNL     1       1.728  10.085   3.376  0.00  0.00    +0.035 C 
ATOM     12  C   UNL     1       1.253  11.521   3.023  0.00  0.00    +0.031 C 
ATOM     13  C   UNL     1      -0.283  11.323   2.987  0.00  0.00    +0.160 C 
ATOM     14  O   UNL     1      -0.479  10.014   2.429  0.00  0.00    -0.375 OA
ENDBRANCH   9  10
ENDBRANCH   8   9
ENDBRANCH   3   4
BRANCH   3  16
ATOM     15  C   UNL     1       3.050   5.789   0.035  0.00  0.00    +0.002 C 
ATOM     16  C   UNL     1       1.580   6.129   0.289  0.00  0.00    -0.011 C 
ENDBRANCH   3  16
ENDBRANCH   1   3
BRANCH   1  17
ATOM     17  C   UNL     1       2.579   3.706   2.075  0.00  0.00    -0.076 C 
BRANCH  17  18
ATOM     18  C   UNL     1       2.899   4.123   3.512  0.00  0.00    -0.003 C 
BRANCH  18  19
ATOM     19  C   UNL     1       4.249   3.533   3.925  0.00  0.00    +0.083 C 
BRANCH  19  20
ATOM     20  N   UNL     1       4.557   3.933   5.304  0.00  0.00    -0.298 NA
ATOM     21  C   UNL     1       4.775   5.384   5.395  0.00  0.00    +0.112 C 
ATOM     22  C   UNL     1       5.033   5.765   6.856  0.00  0.00    +0.175 C 
ATOM     23  O   UNL     1       6.149   5.018   7.348  0.00  0.00    -0.377 OA
ATOM     24  C   UNL     1       5.970   3.601   7.275  0.00  0.00    +0.175 C 
ATOM     25  C   UNL     1       5.722   3.198   5.819  0.00  0.00    +0.112 C 
ENDBRANCH  19  20
ENDBRANCH  18  19
ENDBRANCH  17  18
ENDBRANCH   1  17
BRANCH   1  26
ATOM     26  C   UNL     1       0.796   3.595   0.441  0.00  0.00    -0.037 C 
BRANCH  26  27
ATOM     27  C   UNL     1       0.521   2.124   0.621  0.00  0.00    +0.001 A 
ATOM     28  C   UNL     1      -0.741   1.699   0.874  0.00  0.00    +0.017 A 
ATOM     29  C   UNL     1      -0.975   0.264   1.044  0.00  0.00    -0.001 A 
ATOM     30  C   UNL     1      -2.255  -0.235   1.307  0.00  0.00    +0.013 A 
ATOM     31  C   UNL     1      -2.439  -1.580   1.460  0.00  0.00    -0.050 A 
ATOM     32  C   UNL     1      -1.367  -2.456   1.358  0.00  0.00    +0.005 A 
ATOM     33  C   UNL     1      -0.098  -1.987   1.100  0.00  0.00    +0.026 A 
ATOM     34  C   UNL     1       0.115  -0.622   0.940  0.00  0.00    +0.049 A 
ATOM     35  N   UNL     1       1.375  -0.125   0.681  0.00  0.00    -0.322 N 
ATOM     36  H   UNL     1       2.230  -0.811   0.599  0.00  0.00    +0.169 HD
ATOM     37  C   UNL     1       1.579   1.195   0.527  0.00  0.00    +0.251 A 
ATOM     38  O   UNL     1       2.706   1.599   0.299  0.00  0.00    -0.268 OA
ATOM     39  C   UNL     1      -3.819  -2.117   1.743  0.00  0.00    +0.044 C 
ENDBRANCH  26  27
ENDBRANCH   1  26
TORSDOF 11
