REMARK  Name = ZINC11068021
REMARK  7 active torsions:
REMARK  status: ('A' for Active; 'I' for Inactive)
REMARK    1  A    between atoms: C_1  and  C_2
REMARK    2  A    between atoms: C_15  and  C_17
REMARK    3  A    between atoms: C_17  and  N_52
REMARK    4  A    between atoms: C_18  and  N_52
REMARK    5  A    between atoms: C_19  and  C_20
REMARK    6  A    between atoms: C_19  and  N_52
REMARK    7  A    between atoms: N_22  and  C_23
REMARK                            x       y       z     vdW  Elec       q    Type
REMARK                         _______ _______ _______ _____ _____    ______ ____
ROOT
ATOM      1  C   UNL     1      -2.383  -4.171   0.852  0.00  0.00    +0.019 C 
ENDROOT
BRANCH   1  15
ATOM      2  C   UNL     1      -6.120  -6.750  -0.063  0.00  0.00    +0.029 C 
ATOM      3  C   UNL     1      -5.459  -6.417   1.276  0.00  0.00    +0.087 C 
ATOM      4  C   UNL     1      -5.435  -7.669   2.155  0.00  0.00    +0.118 C 
ATOM      5  C   UNL     1      -4.461  -7.488   3.289  0.00  0.00    +0.219 C 
ATOM      6  O   UNL     1      -4.875  -7.270   4.408  0.00  0.00    -0.275 OA
ATOM      7  N   UNL     1      -3.130  -7.567   3.069  0.00  0.00    -0.284 N 
ATOM      8  C   UNL     1      -2.631  -7.730   1.771  0.00  0.00    +0.055 A 
ATOM      9  C   UNL     1      -1.682  -8.698   1.489  0.00  0.00    +0.025 A 
ATOM     10  C   UNL     1      -1.183  -8.817   0.205  0.00  0.00    +0.002 A 
ATOM     11  C   UNL     1      -1.627  -7.972  -0.796  0.00  0.00    +0.002 A 
ATOM     12  C   UNL     1      -2.583  -7.012  -0.524  0.00  0.00    +0.025 A 
ATOM     13  C   UNL     1      -3.100  -6.895   0.751  0.00  0.00    +0.058 A 
ATOM     14  N   UNL     1      -4.092  -5.949   1.041  0.00  0.00    -0.268 N 
ATOM     15  C   UNL     1      -3.796  -4.636   1.097  0.00  0.00    +0.204 C 
ATOM     16  O   UNL     1      -4.665  -3.828   1.343  0.00  0.00    -0.277 OA
ATOM     17  H   UNL     1      -2.515  -7.509   3.817  0.00  0.00    +0.155 HD
ENDBRANCH   1  15
BRANCH   1  19
ATOM     18  C   UNL     1      -2.598  -2.278   2.345  0.00  0.00    -0.095 C 
ATOM     19  N   UNL     1      -2.342  -2.697   0.951  0.00  0.00    +0.389 N 
ATOM     20  H   UNL     1      -3.070  -2.302   0.345  0.00  0.00    -0.081 HD
BRANCH  19  21
ATOM     21  C   UNL     1      -1.024  -2.198   0.507  0.00  0.00    +0.019 C 
BRANCH  21  22
ATOM     22  C   UNL     1      -1.082  -0.695   0.408  0.00  0.00    +0.201 C 
ATOM     23  O   UNL     1      -2.104  -0.107   0.693  0.00  0.00    -0.278 OA
ATOM     24  N   UNL     1       0.002  -0.004   0.002  0.00  0.00    -0.283 N 
ATOM     25  H   UNL     1       0.795  -0.477  -0.296  0.00  0.00    +0.155 HD
BRANCH  24  26
ATOM     26  C   UNL     1      -0.017   1.397   0.010  0.00  0.00    +0.105 A 
ATOM     27  C   UNL     1      -0.424   2.095  -1.121  0.00  0.00    +0.147 A 
ATOM     28  C   UNL     1      -0.446   3.478  -1.107  0.00  0.00    +0.040 A 
ATOM     29  C   UNL     1      -0.054   4.167   0.026  0.00  0.00    +0.006 A 
ATOM     30  C   UNL     1       0.357   3.476   1.151  0.00  0.00    +0.040 A 
ATOM     31  C   UNL     1       0.377   2.093   1.147  0.00  0.00    +0.147 A 
ATOM     32  F   UNL     1       0.779   1.419   2.247  0.00  0.00    -0.203 F 
ATOM     33  F   UNL     1      -0.801   1.423  -2.231  0.00  0.00    -0.203 F 
ENDBRANCH  24  26
ENDBRANCH  21  22
ENDBRANCH  19  21
ENDBRANCH   1  19
TORSDOF 5
