REMARK  Name = ZINC09377657
REMARK  11 active torsions:
REMARK  status: ('A' for Active; 'I' for Inactive)
REMARK    1  A    between atoms: C_1  and  C_2
REMARK    2  A    between atoms: C_2  and  C_4
REMARK    3  A    between atoms: C_2  and  N_62
REMARK    4  A    between atoms: C_7  and  S_16
REMARK    5  A    between atoms: N_8  and  C_9
REMARK    6  A    between atoms: S_16  and  C_17
REMARK    7  A    between atoms: C_17  and  C_19
REMARK    8  A    between atoms: C_17  and  C_25
REMARK    9  A    between atoms: C_25  and  C_27
REMARK   10  A    between atoms: C_37  and  N_62
REMARK   11  A    between atoms: C_38  and  N_62
REMARK                            x       y       z     vdW  Elec       q    Type
REMARK                         _______ _______ _______ _____ _____    ______ ____
ROOT
ATOM      1  S   UNL     1      -2.014   5.610   5.729  0.00  0.00    -0.069 S 
ENDROOT
BRANCH   1   5
ATOM      2  C   UNL     1      -1.451   3.475   2.510  0.00  0.00    +0.125 A 
ATOM      3  N   UNL     1      -2.564   2.989   2.981  0.00  0.00    -0.135 NA
ATOM      4  N   UNL     1      -2.890   3.600   4.064  0.00  0.00    -0.122 NA
ATOM      5  C   UNL     1      -1.996   4.519   4.346  0.00  0.00    +0.197 A 
ATOM      6  N   UNL     1      -1.044   4.465   3.365  0.00  0.00    -0.275 N 
BRANCH   6   7
ATOM      7  C   UNL     1       0.108   5.259   3.256  0.00  0.00    +0.050 A 
ATOM      8  C   UNL     1       1.365   4.679   3.360  0.00  0.00    +0.029 A 
ATOM      9  C   UNL     1       2.497   5.462   3.248  0.00  0.00    +0.040 A 
ATOM     10  C   UNL     1       2.379   6.826   3.042  0.00  0.00    +0.124 A 
ATOM     11  C   UNL     1       1.126   7.407   2.943  0.00  0.00    +0.040 A 
ATOM     12  C   UNL     1      -0.009   6.627   3.050  0.00  0.00    +0.029 A 
ATOM     13  F   UNL     1       3.488   7.591   2.938  0.00  0.00    -0.205 F 
ENDBRANCH   6   7
BRANCH   2  15
ATOM     14  C   UNL     1      -1.486   3.553   0.032  0.00  0.00    -0.005 C 
ATOM     15  C   UNL     1      -0.740   3.027   1.259  0.00  0.00    -0.003 C 
BRANCH  15  18
ATOM     16  C   UNL     1      -0.013   1.086   0.008  0.00  0.00    -0.096 C 
ATOM     17  C   UNL     1      -0.072   1.015   2.428  0.00  0.00    -0.096 C 
ATOM     18  N   UNL     1      -0.727   1.550   1.216  0.00  0.00    +0.382 N 
ATOM     19  H   UNL     1      -1.695   1.209   1.182  0.00  0.00    -0.082 HD
ENDBRANCH  15  18
ENDBRANCH   2  15
ENDBRANCH   1   5
BRANCH   1  20
ATOM     20  C   UNL     1      -3.542   5.070   6.535  0.00  0.00    +0.155 C 
BRANCH  20  21
ATOM     21  C   UNL     1      -3.381   3.650   7.015  0.00  0.00    -0.027 A 
ATOM     22  C   UNL     1      -2.389   3.336   7.925  0.00  0.00    +0.005 A 
ATOM     23  C   UNL     1      -2.245   2.035   8.368  0.00  0.00    +0.000 A 
ATOM     24  C   UNL     1      -3.087   1.046   7.895  0.00  0.00    +0.000 A 
ATOM     25  C   UNL     1      -4.076   1.359   6.982  0.00  0.00    +0.000 A 
ATOM     26  C   UNL     1      -4.223   2.661   6.542  0.00  0.00    +0.005 A 
ENDBRANCH  20  21
BRANCH  20  27
ATOM     27  C   UNL     1      -3.834   5.967   7.710  0.00  0.00    +0.183 C 
ATOM     28  O   UNL     1      -2.930   6.562   8.260  0.00  0.00    -0.290 OA
BRANCH  27  29
ATOM     29  C   UNL     1      -5.165   6.117   8.173  0.00  0.00    +0.044 A 
ATOM     30  C   UNL     1      -6.293   5.514   7.660  0.00  0.00    +0.095 A 
ATOM     31  N   UNL     1      -7.374   5.901   8.364  0.00  0.00    -0.360 N 
ATOM     32  H   UNL     1      -8.281   5.607   8.188  0.00  0.00    +0.165 HD
ATOM     33  C   UNL     1      -7.013   6.773   9.371  0.00  0.00    +0.047 A 
ATOM     34  C   UNL     1      -5.622   6.946   9.306  0.00  0.00    +0.010 A 
ATOM     35  C   UNL     1      -4.979   7.789  10.208  0.00  0.00    +0.011 A 
ATOM     36  C   UNL     1      -5.714   8.443  11.173  0.00  0.00    +0.001 A 
ATOM     37  C   UNL     1      -7.088   8.269  11.243  0.00  0.00    +0.002 A 
ATOM     38  C   UNL     1      -7.737   7.442  10.352  0.00  0.00    +0.026 A 
ENDBRANCH  27  29
ENDBRANCH  20  27
ENDBRANCH   1  20
TORSDOF 8
