REMARK  Name = ZINC39396767
REMARK  6 active torsions:
REMARK  status: ('A' for Active; 'I' for Inactive)
REMARK    1  A    between atoms: C_4  and  C_10
REMARK    2  A    between atoms: N_11  and  N_12
REMARK    3  A    between atoms: C_13  and  C_15
REMARK    4  A    between atoms: C_17  and  C_20
REMARK    5  A    between atoms: N_22  and  N_23
REMARK    6  A    between atoms: C_24  and  C_25
REMARK                            x       y       z     vdW  Elec       q    Type
REMARK                         _______ _______ _______ _____ _____    ______ ____
ROOT
ATOM      1  C   UNL     1       7.577   6.572  -0.035  0.00  0.00    +0.192 A 
ATOM      2  O   UNL     1       6.775   7.652  -0.016  0.00  0.00    -0.445 OA
ATOM      3  C   UNL     1       7.525   8.769  -0.019  0.00  0.00    +0.192 A 
ATOM      4  C   UNL     1       8.852   8.402  -0.041  0.00  0.00    +0.055 A 
ATOM      5  C   UNL     1       8.885   7.003  -0.045  0.00  0.00    +0.055 A 
ENDROOT
BRANCH   1   7
ATOM      6  N   UNL     1       5.816   4.881  -0.027  0.00  0.00    -0.200 N 
ATOM      7  C   UNL     1       7.133   5.170  -0.038  0.00  0.00    +0.299 C 
ATOM      8  O   UNL     1       7.953   4.272  -0.051  0.00  0.00    -0.265 OA
ATOM      9  H   UNL     1       5.162   5.597  -0.017  0.00  0.00    +0.178 HD
BRANCH   6  11
ATOM     10  C   UNL     1       4.113   3.264  -0.020  0.00  0.00    +0.136 C 
ATOM     11  N   UNL     1       5.393   3.545  -0.030  0.00  0.00    -0.188 NA
BRANCH  10  15
ATOM     12  C   UNL     1      -0.017   1.394   0.010  0.00  0.00    +0.001 A 
ATOM     13  C   UNL     1       1.129   2.121   0.003  0.00  0.00    +0.010 A 
ATOM     14  C   UNL     1       2.377   1.460  -0.013  0.00  0.00    +0.004 A 
ATOM     15  C   UNL     1       3.690   1.928  -0.023  0.00  0.00    +0.000 C 
ATOM     16  C   UNL     1       4.562   0.692  -0.038  0.00  0.00    +0.150 C 
ATOM     17  N   UNL     1       3.644  -0.451  -0.035  0.00  0.00    -0.380 N 
ATOM     18  C   UNL     1       2.403  -0.013  -0.021  0.00  0.00    +0.043 A 
ATOM     19  C   UNL     1       1.162  -0.704  -0.013  0.00  0.00    +0.026 A 
ATOM     20  C   UNL     1       0.002  -0.004   0.002  0.00  0.00    +0.002 A 
ATOM     21  H   UNL     1       3.910  -1.384  -0.043  0.00  0.00    +0.160 HD
ENDBRANCH  10  15
ENDBRANCH   6  11
ENDBRANCH   1   7
BRANCH   3  22
ATOM     22  C   UNL     1       7.015  10.149  -0.002  0.00  0.00    +0.299 C 
ATOM     23  O   UNL     1       7.792  11.085  -0.007  0.00  0.00    -0.265 OA
ATOM     24  N   UNL     1       5.686  10.376   0.019  0.00  0.00    -0.200 N 
ATOM     25  H   UNL     1       5.067   9.629   0.023  0.00  0.00    +0.178 HD
BRANCH  24  26
ATOM     26  N   UNL     1       5.200  11.690   0.035  0.00  0.00    -0.188 NA
ATOM     27  C   UNL     1       3.909  11.910   0.056  0.00  0.00    +0.136 C 
BRANCH  27  28
ATOM     28  C   UNL     1       3.423  13.224   0.071  0.00  0.00    +0.000 C 
ATOM     29  C   UNL     1       2.090  13.629   0.100  0.00  0.00    +0.004 A 
ATOM     30  C   UNL     1       2.046  15.101   0.108  0.00  0.00    +0.043 A 
ATOM     31  N   UNL     1       3.265  15.598   0.087  0.00  0.00    -0.380 N 
ATOM     32  C   UNL     1       4.235  14.500   0.068  0.00  0.00    +0.150 C 
ATOM     33  C   UNL     1       0.774  15.733   0.137  0.00  0.00    +0.026 A 
ATOM     34  C   UNL     1      -0.352  14.979   0.155  0.00  0.00    +0.002 A 
ATOM     35  C   UNL     1      -0.304  13.582   0.147  0.00  0.00    +0.001 A 
ATOM     36  C   UNL     1       0.874  12.910   0.120  0.00  0.00    +0.010 A 
ATOM     37  H   UNL     1       3.486  16.543   0.088  0.00  0.00    +0.160 HD
ENDBRANCH  27  28
ENDBRANCH  24  26
ENDBRANCH   3  22
TORSDOF 6
