REMARK  Name = ZINC03175640
REMARK  5 active torsions:
REMARK  status: ('A' for Active; 'I' for Inactive)
REMARK    1  A    between atoms: C_1  and  C_2
REMARK    2  A    between atoms: C_2  and  C_33
REMARK    3  A    between atoms: C_4  and  N_69
REMARK    4  A    between atoms: N_9  and  C_22
REMARK    5  A    between atoms: P_10  and  N_12
REMARK                            x       y       z     vdW  Elec       q    Type
REMARK                         _______ _______ _______ _____ _____    ______ ____
ROOT
ATOM      1  C   UNL     1       1.204  11.253  -2.081  0.00  0.00    +0.015 C 
ATOM      2  C   UNL     1       2.095  10.231  -1.371  0.00  0.00    -0.010 C 
ATOM      3  C   UNL     1       2.105   8.946  -2.182  0.00  0.00    +0.060 C 
ATOM      4  C   UNL     1       0.814   8.171  -2.023  0.00  0.00    +0.004 C 
ATOM      5  C   UNL     1       0.182   8.265  -0.871  0.00  0.00    +0.052 C 
ATOM      6  C   UNL     1       0.607   9.146   0.254  0.00  0.00    +0.054 C 
ATOM      7  C   UNL     1       1.588  10.043   0.035  0.00  0.00    +0.005 C 
ATOM      8  N   UNL     1      -0.096   8.880   1.402  0.00  0.00    -0.259 N 
ATOM      9  N   UNL     1      -1.264   8.111   1.342  0.00  0.00    -0.209 N 
ATOM     10  P   UNL     1      -1.306   7.473  -0.195  0.00  0.00    +0.124 P 
ATOM     11  S   UNL     1      -2.839   8.002  -1.111  0.00  0.00    -0.024 S 
ATOM     12  C   UNL     1       3.521  10.782  -1.310  0.00  0.00    +0.015 C 
ATOM     13  H   UNL     1       0.217   9.223   2.254  0.00  0.00    +0.171 HD
ENDROOT
BRANCH  10  14
ATOM     14  N   UNL     1      -1.155   5.797  -0.171  0.00  0.00    -0.254 NA
ATOM     15  C   UNL     1      -2.321   5.172   0.474  0.00  0.00    +0.096 C 
ATOM     16  C   UNL     1      -2.313   3.678   0.147  0.00  0.00    +0.051 C 
ATOM     17  C   UNL     1      -0.958   3.092   0.449  0.00  0.00    -0.042 A 
ATOM     18  C   UNL     1      -0.843   1.715   0.558  0.00  0.00    +0.004 A 
ATOM     19  C   UNL     1       0.380   1.137   0.834  0.00  0.00    +0.000 A 
ATOM     20  C   UNL     1       1.498   1.935   0.991  0.00  0.00    +0.000 A 
ATOM     21  C   UNL     1       1.385   3.306   0.879  0.00  0.00    +0.005 A 
ATOM     22  C   UNL     1       0.155   3.889   0.609  0.00  0.00    -0.030 A 
ATOM     23  C   UNL     1       0.080   5.390   0.506  0.00  0.00    +0.126 C 
ENDBRANCH  10  14
BRANCH   4  29
ATOM     24  C   UNL     1      -0.972   7.717  -3.678  0.00  0.00    +0.085 C 
ATOM     25  C   UNL     1      -0.762   7.824  -5.196  0.00  0.00    +0.017 C 
ATOM     26  C   UNL     1      -0.121   6.533  -5.709  0.00  0.00    +0.003 C 
ATOM     27  C   UNL     1       1.246   6.342  -5.046  0.00  0.00    +0.017 C 
ATOM     28  C   UNL     1       1.061   6.221  -3.530  0.00  0.00    +0.085 C 
ATOM     29  N   UNL     1       0.484   7.598  -3.289  0.00  0.00    -0.396 NA
ATOM     30  H   UNL     1       0.976   8.200  -3.960  0.00  0.00    +0.126 HD
ENDBRANCH   4  29
BRANCH   9  31
ATOM     31  C   UNL     1      -2.200   7.918   2.360  0.00  0.00    +0.054 A 
ATOM     32  C   UNL     1      -3.482   8.438   2.234  0.00  0.00    +0.025 A 
ATOM     33  C   UNL     1      -4.407   8.242   3.241  0.00  0.00    +0.002 A 
ATOM     34  C   UNL     1      -4.055   7.538   4.378  0.00  0.00    +0.000 A 
ATOM     35  C   UNL     1      -2.778   7.025   4.509  0.00  0.00    +0.002 A 
ATOM     36  C   UNL     1      -1.850   7.212   3.504  0.00  0.00    +0.025 A 
ENDBRANCH   9  31
TORSDOF 3
