REMARK  Name = ZINC17576852
REMARK  8 active torsions:
REMARK  status: ('A' for Active; 'I' for Inactive)
REMARK    1  A    between atoms: N_9  and  C_12
REMARK    2  A    between atoms: C_12  and  C_13
REMARK    3  A    between atoms: C_13  and  C_14
REMARK    4  A    between atoms: N_16  and  N_17
REMARK    5  A    between atoms: C_18  and  C_20
REMARK    6  A    between atoms: C_25  and  N_26
REMARK    7  A    between atoms: N_26  and  S_27
REMARK    8  A    between atoms: S_27  and  C_30
REMARK                            x       y       z     vdW  Elec       q    Type
REMARK                         _______ _______ _______ _____ _____    ______ ____
ROOT
ATOM      1  N   UNL     1       2.742   5.306   0.293  0.00  0.00    -0.230 N 
ATOM      2  C   UNL     1       3.835   6.087   0.191  0.00  0.00    +0.262 C 
ATOM      3  O   UNL     1       4.930   5.583   0.029  0.00  0.00    -0.269 OA
ATOM      4  H   UNL     1       1.869   5.707   0.422  0.00  0.00    +0.173 HD
ENDROOT
BRANCH   2   5
ATOM      5  C   UNL     1       3.704   7.553   0.277  0.00  0.00    +0.060 A 
ATOM      6  C   UNL     1       2.447   8.137   0.457  0.00  0.00    +0.015 A 
ATOM      7  C   UNL     1       2.332   9.507   0.540  0.00  0.00    +0.001 A 
ATOM      8  C   UNL     1       3.455  10.312   0.437  0.00  0.00    +0.002 A 
ATOM      9  C   UNL     1       4.702   9.752   0.253  0.00  0.00    +0.025 A 
ATOM     10  C   UNL     1       4.839   8.371   0.171  0.00  0.00    +0.060 A 
BRANCH  10  11
ATOM     11  N   UNL     1       6.094   7.804  -0.013  0.00  0.00    -0.215 N 
ATOM     12  H   UNL     1       6.190   7.007  -0.557  0.00  0.00    +0.174 HD
BRANCH  11  13
ATOM     13  S   UNL     1       7.424   8.489   0.695  0.00  0.00    +0.079 S 
ATOM     14  O   UNL     1       8.516   7.617   0.438  0.00  0.00    -0.149 OA
ATOM     15  O   UNL     1       7.433   9.856   0.306  0.00  0.00    -0.149 OA
BRANCH  13  16
ATOM     16  C   UNL     1       7.159   8.463   2.437  0.00  0.00    +0.146 A 
ATOM     17  C   UNL     1       7.487   7.504   3.336  0.00  0.00    +0.036 A 
ATOM     18  C   UNL     1       7.178   7.700   4.669  0.00  0.00    +0.010 A 
ATOM     19  C   UNL     1       6.555   8.847   5.037  0.00  0.00    +0.047 A 
ATOM     20  S   UNL     1       6.393   9.697   3.476  0.00  0.00    -0.077 S 
ENDBRANCH  13  16
ENDBRANCH  11  13
ENDBRANCH  10  11
ENDBRANCH   2   5
BRANCH   1  23
ATOM     21  C   UNL     1       1.774   3.131   0.313  0.00  0.00    +0.231 C 
ATOM     22  O   UNL     1       0.682   3.633   0.475  0.00  0.00    -0.274 OA
ATOM     23  N   UNL     1       2.867   3.913   0.211  0.00  0.00    -0.234 N 
ATOM     24  H   UNL     1       3.740   3.511   0.082  0.00  0.00    +0.173 HD
BRANCH  21  25
ATOM     25  C   UNL     1       1.908   1.632   0.226  0.00  0.00    +0.117 C 
BRANCH  25  26
ATOM     26  C   UNL     1       0.528   0.987   0.370  0.00  0.00    +0.126 C 
BRANCH  26  35
ATOM     27  C   UNL     1       1.152  -5.056   0.704  0.00  0.00    +0.001 A 
ATOM     28  C   UNL     1       0.978  -4.991  -0.666  0.00  0.00    +0.001 A 
ATOM     29  C   UNL     1       0.784  -3.771  -1.293  0.00  0.00    +0.014 A 
ATOM     30  C   UNL     1       0.764  -2.607  -0.540  0.00  0.00    +0.049 A 
ATOM     31  C   UNL     1       0.941  -2.673   0.857  0.00  0.00    +0.049 A 
ATOM     32  C   UNL     1       1.135  -3.900   1.470  0.00  0.00    +0.014 A 
ATOM     33  C   UNL     1       0.866  -1.278   1.340  0.00  0.00    +0.254 C 
ATOM     34  O   UNL     1       0.974  -0.921   2.496  0.00  0.00    -0.270 OA
ATOM     35  N   UNL     1       0.659  -0.469   0.285  0.00  0.00    -0.234 N 
ATOM     36  C   UNL     1       0.582  -1.175  -0.858  0.00  0.00    +0.254 C 
ATOM     37  O   UNL     1       0.396  -0.713  -1.965  0.00  0.00    -0.270 OA
ENDBRANCH  26  35
ENDBRANCH  25  26
ENDBRANCH  21  25
ENDBRANCH   1  23
TORSDOF 8
