REMARK  Name = ZINC27695693
REMARK  11 active torsions:
REMARK  status: ('A' for Active; 'I' for Inactive)
REMARK    1  A    between atoms: C_4  and  C_7
REMARK    2  A    between atoms: C_7  and  N_8
REMARK    3  A    between atoms: N_8  and  C_9
REMARK    4  A    between atoms: N_8  and  C_36
REMARK    5  A    between atoms: C_9  and  C_10
REMARK    6  A    between atoms: C_10  and  C_12
REMARK    7  A    between atoms: C_10  and  O_35
REMARK    8  A    between atoms: C_12  and  N_13
REMARK    9  A    between atoms: C_21  and  C_22
REMARK   10  A    between atoms: C_22  and  C_23
REMARK   11  A    between atoms: C_22  and  C_29
REMARK                            x       y       z     vdW  Elec       q    Type
REMARK                         _______ _______ _______ _____ _____    ______ ____
ROOT
ATOM      1  N   UNL     1       1.453   3.645   0.704  0.00  0.00    -0.324 N 
ATOM      2  C   UNL     1       1.128   2.551  -0.072  0.00  0.00    +0.069 A 
ATOM      3  C   UNL     1       1.502   1.214  -0.064  0.00  0.00    +0.028 A 
ATOM      4  C   UNL     1       0.980   0.352  -1.004  0.00  0.00    +0.002 A 
ATOM      5  C   UNL     1       0.088   0.814  -1.962  0.00  0.00    +0.002 A 
ATOM      6  C   UNL     1      -0.296   2.124  -1.982  0.00  0.00    +0.030 A 
ATOM      7  C   UNL     1       0.220   3.016  -1.038  0.00  0.00    +0.089 A 
ATOM      8  N   UNL     1       0.042   4.342  -0.807  0.00  0.00    -0.231 NA
ATOM      9  C   UNL     1       0.763   4.709   0.212  0.00  0.00    +0.123 A 
ENDROOT
BRANCH   1  10
ATOM     10  C   UNL     1       2.370   3.658   1.846  0.00  0.00    +0.153 C 
BRANCH  10  11
ATOM     11  C   UNL     1       3.805   3.835   1.346  0.00  0.00    +0.118 C 
BRANCH  11  12
ATOM     12  O   UNL     1       4.193   2.683   0.595  0.00  0.00    -0.392 OA
ATOM     13  H   UNL     1       3.631   2.398  -0.306  0.00  0.00    +0.210 HD
ENDBRANCH  11  12
BRANCH  11  14
ATOM     14  C   UNL     1       4.745   4.005   2.541  0.00  0.00    -0.045 C 
BRANCH  14  15
ATOM     15  N   UNL     1       6.135   4.044   2.069  0.00  0.00    +0.386 N 
ATOM     16  H   UNL     1       6.244   3.290   1.276  0.00  0.00    -0.081 HD
BRANCH  15  17
ATOM     17  C   UNL     1       6.459   5.356   1.493  0.00  0.00    -0.068 C 
ATOM     18  C   UNL     1       5.645   6.440   2.203  0.00  0.00    -0.015 C 
ATOM     19  C   UNL     1       5.982   7.806   1.603  0.00  0.00    -0.002 C 
ATOM     20  C   UNL     1       5.640   7.807   0.112  0.00  0.00    -0.000 C 
ATOM     21  C   UNL     1       6.453   6.723  -0.599  0.00  0.00    -0.002 C 
ATOM     22  C   UNL     1       6.116   5.357   0.002  0.00  0.00    -0.015 C 
ENDBRANCH  15  17
BRANCH  15  23
ATOM     23  C   UNL     1       7.068   3.700   3.151  0.00  0.00    -0.043 C 
BRANCH  23  27
ATOM     24  C   UNL     1      10.847   2.615   1.481  0.00  0.00    +0.000 A 
ATOM     25  C   UNL     1      10.630   3.909   1.917  0.00  0.00    +0.000 A 
ATOM     26  C   UNL     1       9.407   4.260   2.457  0.00  0.00    +0.002 A 
ATOM     27  C   UNL     1       8.401   3.317   2.561  0.00  0.00    -0.064 A 
ATOM     28  C   UNL     1       8.620   2.022   2.130  0.00  0.00    +0.002 A 
ATOM     29  C   UNL     1       9.841   1.672   1.585  0.00  0.00    +0.000 A 
ENDBRANCH  23  27
ENDBRANCH  15  23
ENDBRANCH  14  15
ENDBRANCH  11  14
ENDBRANCH  10  11
ENDBRANCH   1  10
BRANCH   9  30
ATOM     30  C   UNL     1       0.825   6.109   0.766  0.00  0.00    +0.115 C 
BRANCH  30  31
ATOM     31  C   UNL     1       1.419   7.032  -0.267  0.00  0.00    -0.033 A 
ATOM     32  C   UNL     1       1.840   8.298   0.098  0.00  0.00    +0.004 A 
ATOM     33  C   UNL     1       2.390   9.143  -0.848  0.00  0.00    +0.000 A 
ATOM     34  C   UNL     1       2.510   8.726  -2.160  0.00  0.00    +0.000 A 
ATOM     35  C   UNL     1       2.085   7.462  -2.526  0.00  0.00    +0.000 A 
ATOM     36  C   UNL     1       1.540   6.615  -1.579  0.00  0.00    +0.004 A 
ENDBRANCH  30  31
BRANCH  30  37
ATOM     37  C   UNL     1      -0.566   6.574   1.113  0.00  0.00    -0.033 A 
ATOM     38  C   UNL     1      -1.534   6.653   0.130  0.00  0.00    +0.004 A 
ATOM     39  C   UNL     1      -2.811   7.075   0.450  0.00  0.00    +0.000 A 
ATOM     40  C   UNL     1      -3.117   7.427   1.751  0.00  0.00    +0.000 A 
ATOM     41  C   UNL     1      -2.148   7.353   2.733  0.00  0.00    +0.000 A 
ATOM     42  C   UNL     1      -0.872   6.927   2.414  0.00  0.00    +0.004 A 
ENDBRANCH  30  37
ENDBRANCH   9  30
TORSDOF 11
