REMARK  Name = ZINC07059092
REMARK  6 active torsions:
REMARK  status: ('A' for Active; 'I' for Inactive)
REMARK    1  A    between atoms: C_1  and  C_2
REMARK    2  A    between atoms: C_2  and  C_4
REMARK    3  A    between atoms: C_2  and  S_18
REMARK    4  A    between atoms: N_6  and  C_7
REMARK    5  A    between atoms: C_8  and  C_15
REMARK    6  A    between atoms: S_18  and  C_19
REMARK                            x       y       z     vdW  Elec       q    Type
REMARK                         _______ _______ _______ _____ _____    ______ ____
ROOT
ATOM      1  C   UNL     1      -0.385   7.655  -0.078  0.00  0.00    +0.231 C 
ATOM      2  O   UNL     1      -1.504   7.933   0.298  0.00  0.00    -0.274 OA
ATOM      3  N   UNL     1       0.409   8.613  -0.596  0.00  0.00    -0.278 N 
ATOM      4  H   UNL     1       1.304   8.391  -0.897  0.00  0.00    +0.155 HD
ENDROOT
BRANCH   3   5
ATOM      5  C   UNL     1      -0.053   9.916  -0.699  0.00  0.00    +0.084 A 
ATOM      6  C   UNL     1       0.608  11.028  -1.193  0.00  0.00    +0.068 A 
ATOM      7  C   UNL     1      -0.113  12.300  -1.194  0.00  0.00    -0.023 A 
ATOM      8  C   UNL     1      -1.361  12.249  -0.696  0.00  0.00    -0.004 A 
ATOM      9  S   UNL     1      -1.595  10.550  -0.235  0.00  0.00    -0.077 S 
ATOM     10  C   UNL     1      -2.037  13.594  -0.728  0.00  0.00    +0.043 C 
ATOM     11  C   UNL     1      -1.194  14.428  -1.718  0.00  0.00    +0.010 C 
ATOM     12  C   UNL     1       0.181  13.739  -1.620  0.00  0.00    +0.037 C 
BRANCH   6  13
ATOM     13  C   UNL     1       1.981  10.932  -1.700  0.00  0.00    +0.244 C 
ATOM     14  O   UNL     1       2.179  10.684  -2.875  0.00  0.00    -0.270 OA
ATOM     15  N   UNL     1       3.022  11.117  -0.865  0.00  0.00    -0.325 N 
ATOM     16  H   UNL     1       2.864  11.314   0.072  0.00  0.00    +0.145 HD
ATOM     17  H   UNL     1       3.930  11.054  -1.200  0.00  0.00    +0.145 HD
ENDBRANCH   6  13
ENDBRANCH   3   5
BRANCH   1  19
ATOM     18  C   UNL     1       0.910   6.080   1.333  0.00  0.00    +0.029 C 
ATOM     19  C   UNL     1       0.118   6.239   0.034  0.00  0.00    +0.137 C 
BRANCH  19  20
ATOM     20  S   UNL     1      -1.288   5.099   0.040  0.00  0.00    -0.075 S 
BRANCH  20  21
ATOM     21  C   UNL     1      -0.432   3.558   0.025  0.00  0.00    +0.168 A 
ATOM     22  N   UNL     1      -1.028   2.329   0.019  0.00  0.00    -0.333 N 
ATOM     23  H   UNL     1      -2.011   2.146   0.021  0.00  0.00    +0.168 HD
ATOM     24  C   UNL     1      -0.017   1.382   0.010  0.00  0.00    +0.067 A 
ATOM     25  C   UNL     1       0.002  -0.004   0.002  0.00  0.00    +0.028 A 
ATOM     26  C   UNL     1       1.208  -0.674  -0.013  0.00  0.00    +0.002 A 
ATOM     27  C   UNL     1       2.403   0.029  -0.021  0.00  0.00    +0.002 A 
ATOM     28  C   UNL     1       2.403   1.406  -0.013  0.00  0.00    +0.030 A 
ATOM     29  C   UNL     1       1.191   2.100   0.002  0.00  0.00    +0.090 A 
ATOM     30  N   UNL     1       0.871   3.421   0.012  0.00  0.00    -0.222 NA
ENDBRANCH  20  21
ENDBRANCH  19  20
ENDBRANCH   1  19
TORSDOF 5
