REMARK  Name = ZINC01326754
REMARK  10 active torsions:
REMARK  status: ('A' for Active; 'I' for Inactive)
REMARK    1  A    between atoms: C_1  and  O_2
REMARK    2  A    between atoms: O_2  and  C_3
REMARK    3  A    between atoms: C_6  and  C_11
REMARK    4  A    between atoms: C_8  and  O_9
REMARK    5  A    between atoms: O_9  and  C_10
REMARK    6  A    between atoms: C_11  and  C_12
REMARK    7  A    between atoms: C_12  and  N_13
REMARK    8  A    between atoms: C_14  and  C_16
REMARK    9  A    between atoms: C_21  and  C_36
REMARK   10  A    between atoms: C_24  and  C_27
REMARK                            x       y       z     vdW  Elec       q    Type
REMARK                         _______ _______ _______ _____ _____    ______ ____
ROOT
ATOM      1  C   UNL     1       6.612  -4.310  -6.314  0.00  0.00    +0.149 A 
ATOM      2  C   UNL     1       7.975  -4.676  -6.393  0.00  0.00    +0.078 A 
ATOM      3  C   UNL     1       8.176  -5.240  -7.600  0.00  0.00    +0.119 A 
ATOM      4  N   UNL     1       6.987  -5.240  -8.273  0.00  0.00    -0.238 N 
ATOM      5  N   UNL     1       6.027  -4.658  -7.446  0.00  0.00    -0.164 NA
ATOM      6  C   UNL     1       6.817  -5.781  -9.624  0.00  0.00    +0.215 C 
ATOM      7  C   UNL     1       7.981  -6.731  -9.928  0.00  0.00    +0.063 C 
ATOM      8  C   UNL     1       9.313  -6.046  -9.601  0.00  0.00    +0.104 C 
ATOM      9  N   UNL     1       9.350  -5.758  -8.153  0.00  0.00    -0.322 N 
ATOM     10  H   UNL     1      10.142  -5.920  -7.618  0.00  0.00    +0.148 HD
ENDROOT
BRANCH   8  11
ATOM     11  C   UNL     1       9.425  -4.760 -10.379  0.00  0.00    -0.024 A 
ATOM     12  C   UNL     1       8.778  -3.624  -9.931  0.00  0.00    +0.009 A 
ATOM     13  C   UNL     1       8.878  -2.442 -10.641  0.00  0.00    +0.050 A 
ATOM     14  C   UNL     1       9.628  -2.394 -11.805  0.00  0.00    +0.166 A 
ATOM     15  C   UNL     1      10.280  -3.539 -12.257  0.00  0.00    +0.167 A 
ATOM     16  C   UNL     1      10.180  -4.719 -11.537  0.00  0.00    +0.055 A 
ATOM     17  O   UNL     1      10.944  -3.237 -13.410  0.00  0.00    -0.453 OA
ATOM     18  C   UNL     1      10.361  -2.007 -13.879  0.00  0.00    +0.466 C 
ATOM     19  O   UNL     1       9.884  -1.375 -12.676  0.00  0.00    -0.453 OA
ENDBRANCH   8  11
BRANCH   1  21
ATOM     20  N   UNL     1       4.640  -3.366  -5.213  0.00  0.00    -0.310 N 
ATOM     21  C   UNL     1       5.955  -3.658  -5.162  0.00  0.00    +0.264 C 
ATOM     22  O   UNL     1       6.600  -3.384  -4.169  0.00  0.00    -0.268 OA
ATOM     23  H   UNL     1       4.126  -3.584  -6.006  0.00  0.00    +0.149 HD
BRANCH  20  24
ATOM     24  C   UNL     1       3.989  -2.719  -4.072  0.00  0.00    +0.109 C 
BRANCH  24  25
ATOM     25  C   UNL     1       2.507  -2.501  -4.386  0.00  0.00    +0.054 C 
BRANCH  25  29
ATOM     26  C   UNL     1       0.606  -0.608  -1.056  0.00  0.00    +0.161 A 
ATOM     27  C   UNL     1       1.173   0.159  -2.062  0.00  0.00    +0.049 A 
ATOM     28  C   UNL     1       1.787  -0.456  -3.137  0.00  0.00    +0.007 A 
ATOM     29  C   UNL     1       1.837  -1.836  -3.212  0.00  0.00    -0.042 A 
ATOM     30  C   UNL     1       1.273  -2.606  -2.212  0.00  0.00    +0.053 A 
ATOM     31  C   UNL     1       0.662  -1.996  -1.129  0.00  0.00    +0.162 A 
BRANCH  26  33
ATOM     32  C   UNL     1      -0.017   1.425   0.010  0.00  0.00    +0.277 C 
ATOM     33  O   UNL     1       0.002  -0.004   0.002  0.00  0.00    -0.491 OA
ENDBRANCH  26  33
BRANCH  31  34
ATOM     34  O   UNL     1       0.112  -2.753  -0.142  0.00  0.00    -0.491 OA
ATOM     35  C   UNL     1       0.206  -4.171  -0.283  0.00  0.00    +0.277 C 
ENDBRANCH  31  34
ENDBRANCH  25  29
ENDBRANCH  24  25
ENDBRANCH  20  24
ENDBRANCH   1  21
BRANCH   6  36
ATOM     36  C   UNL     1       5.494  -6.545  -9.708  0.00  0.00    +0.412 C 
ATOM     37  F   UNL     1       4.435  -5.677  -9.418  0.00  0.00    -0.168 F 
ATOM     38  F   UNL     1       5.334  -7.060 -10.998  0.00  0.00    -0.168 F 
ATOM     39  F   UNL     1       5.502  -7.595  -8.784  0.00  0.00    -0.168 F 
ENDBRANCH   6  36
TORSDOF 8
