REMARK  Name = ZINC36637501
REMARK  15 active torsions:
REMARK  status: ('A' for Active; 'I' for Inactive)
REMARK    1  A    between atoms: C_1  and  C_2
REMARK    2  A    between atoms: C_2  and  O_3
REMARK    3  A    between atoms: O_3  and  C_4
REMARK    4  A    between atoms: C_6  and  C_16
REMARK    5  A    between atoms: C_8  and  O_13
REMARK    6  A    between atoms: C_9  and  O_10
REMARK    7  A    between atoms: O_10  and  C_11
REMARK    8  A    between atoms: C_11  and  C_12
REMARK    9  A    between atoms: O_13  and  C_14
REMARK   10  A    between atoms: C_14  and  C_15
REMARK   11  A    between atoms: N_18  and  C_19
REMARK   12  A    between atoms: C_19  and  C_20
REMARK   13  A    between atoms: C_20  and  N_21
REMARK   14  A    between atoms: N_21  and  C_22
REMARK   15  A    between atoms: N_21  and  C_23
REMARK                            x       y       z     vdW  Elec       q    Type
REMARK                         _______ _______ _______ _____ _____    ______ ____
ROOT
ATOM      1  C   UNL     1      -0.004  -4.683   1.185  0.00  0.00    +0.252 C 
ATOM      2  O   UNL     1      -0.683  -4.418   2.158  0.00  0.00    -0.270 OA
ATOM      3  N   UNL     1       0.017  -5.939   0.699  0.00  0.00    -0.248 N 
ATOM      4  C   UNL     1      -0.805  -6.909   1.250  0.00  0.00    +0.168 A 
ATOM      5  N   UNL     1      -0.921  -8.174   0.921  0.00  0.00    -0.224 NA
ATOM      6  C   UNL     1      -1.773  -9.013   1.552  0.00  0.00    +0.084 A 
ATOM      7  C   UNL     1      -1.992 -10.386   1.294  0.00  0.00    +0.078 A 
ATOM      8  C   UNL     1      -2.904 -11.109   2.031  0.00  0.00    +0.164 A 
ATOM      9  C   UNL     1      -3.635 -10.507   3.055  0.00  0.00    +0.163 A 
ATOM     10  C   UNL     1      -3.443  -9.162   3.330  0.00  0.00    +0.066 A 
ATOM     11  C   UNL     1      -2.535  -8.441   2.594  0.00  0.00    +0.044 A 
ATOM     12  S   UNL     1      -1.971  -6.756   2.596  0.00  0.00    -0.052 S 
ATOM     13  O   UNL     1      -4.532 -11.218   3.791  0.00  0.00    -0.485 OA
ATOM     14  C   UNL     1      -4.964 -12.469   3.244  0.00  0.00    +0.270 C 
ATOM     15  C   UNL     1      -3.725 -13.226   2.745  0.00  0.00    +0.270 C 
ATOM     16  O   UNL     1      -3.084 -12.431   1.744  0.00  0.00    -0.485 OA
ENDROOT
BRANCH   1  19
ATOM     17  C   UNL     1       1.513  -2.484  -1.456  0.00  0.00    +0.166 A 
ATOM     18  C   UNL     1       0.761  -3.473  -0.851  0.00  0.00    +0.062 A 
ATOM     19  C   UNL     1       0.799  -3.627   0.537  0.00  0.00    +0.044 A 
ATOM     20  C   UNL     1       1.597  -2.780   1.310  0.00  0.00    +0.062 A 
ATOM     21  C   UNL     1       2.347  -1.792   0.700  0.00  0.00    +0.166 A 
ATOM     22  C   UNL     1       2.312  -1.645  -0.684  0.00  0.00    +0.204 A 
BRANCH  17  23
ATOM     23  O   UNL     1       1.476  -2.333  -2.808  0.00  0.00    -0.488 OA
BRANCH  23  25
ATOM     24  C   UNL     1       0.580  -2.774  -5.008  0.00  0.00    +0.048 C 
ATOM     25  C   UNL     1       0.560  -3.160  -3.528  0.00  0.00    +0.226 C 
ENDBRANCH  23  25
ENDBRANCH  17  23
BRANCH  22  26
ATOM     26  O   UNL     1       3.054  -0.676  -1.282  0.00  0.00    -0.485 OA
BRANCH  26  27
ATOM     27  C   UNL     1       2.439   0.602  -1.450  0.00  0.00    +0.226 C 
ATOM     28  C   UNL     1       3.421   1.555  -2.136  0.00  0.00    +0.048 C 
ENDBRANCH  26  27
ENDBRANCH  22  26
BRANCH  21  29
ATOM     29  O   UNL     1       3.124  -0.968   1.452  0.00  0.00    -0.488 OA
BRANCH  29  30
ATOM     30  C   UNL     1       3.058  -1.128   2.870  0.00  0.00    +0.226 C 
ATOM     31  C   UNL     1       3.908  -0.050   3.546  0.00  0.00    +0.048 C 
ENDBRANCH  29  30
ENDBRANCH  21  29
ENDBRANCH   1  19
BRANCH   3  32
ATOM     32  C   UNL     1       0.908  -6.280  -0.412  0.00  0.00    +0.097 C 
BRANCH  32  33
ATOM     33  C   UNL     1       2.303  -6.600   0.132  0.00  0.00    -0.060 C 
BRANCH  33  34
ATOM     34  N   UNL     1       3.161  -7.066  -0.965  0.00  0.00    +0.377 N 
ATOM     35  C   UNL     1       3.373  -5.970  -1.921  0.00  0.00    -0.097 C 
ATOM     36  C   UNL     1       4.456  -7.499  -0.423  0.00  0.00    -0.097 C 
ATOM     37  H   UNL     1       2.717  -7.840  -1.434  0.00  0.00    -0.083 HD
ENDBRANCH  33  34
ENDBRANCH  32  33
ENDBRANCH   3  32
TORSDOF 10
