REMARK  Name = ZINC39935967
REMARK  10 active torsions:
REMARK  status: ('A' for Active; 'I' for Inactive)
REMARK    1  A    between atoms: C_1  and  C_2
REMARK    2  A    between atoms: C_2  and  C_4
REMARK    3  A    between atoms: C_2  and  N_32
REMARK    4  A    between atoms: C_8  and  S_17
REMARK    5  A    between atoms: N_9  and  C_10
REMARK    6  A    between atoms: S_17  and  C_18
REMARK    7  A    between atoms: C_18  and  C_19
REMARK    8  A    between atoms: C_19  and  C_21
REMARK    9  A    between atoms: N_32  and  C_33
REMARK   10  A    between atoms: N_32  and  C_34
REMARK                            x       y       z     vdW  Elec       q    Type
REMARK                         _______ _______ _______ _____ _____    ______ ____
ROOT
ATOM      1  C   UNL     1       1.150  -0.643   0.952  0.00  0.00    +0.168 C 
ATOM      2  N   UNL     1       1.429  -2.071   0.725  0.00  0.00    -0.248 N 
ATOM      3  N   UNL     1       2.820  -2.213   0.801  0.00  0.00    -0.162 NA
ATOM      4  C   UNL     1       3.399  -1.085   1.038  0.00  0.00    +0.180 C 
ATOM      5  N   UNL     1       2.481  -0.046   1.153  0.00  0.00    -0.260 N 
ATOM      6  H   UNL     1       0.780  -2.772   0.557  0.00  0.00    +0.170 HD
ENDROOT
BRANCH   5   7
ATOM      7  C   UNL     1       2.764   1.299   1.407  0.00  0.00    +0.037 A 
ATOM      8  C   UNL     1       2.289   1.903   2.564  0.00  0.00    +0.025 A 
ATOM      9  C   UNL     1       2.570   3.232   2.814  0.00  0.00    +0.022 A 
ATOM     10  C   UNL     1       3.325   3.962   1.912  0.00  0.00    +0.041 A 
ATOM     11  C   UNL     1       3.800   3.363   0.758  0.00  0.00    +0.022 A 
ATOM     12  C   UNL     1       3.527   2.032   0.507  0.00  0.00    +0.025 A 
ATOM     13 CL   UNL     1       3.677   5.632   2.229  0.00  0.00    -0.084 Cl
ENDBRANCH   5   7
BRANCH   1  15
ATOM     14  C   UNL     1       1.391  -0.142  -1.484  0.00  0.00    -0.010 C 
ATOM     15  C   UNL     1       0.466  -0.029  -0.271  0.00  0.00    -0.032 C 
BRANCH  15  16
ATOM     16  N   UNL     1       0.173   1.387  -0.010  0.00  0.00    +0.380 N 
ATOM     17  C   UNL     1      -0.446   1.987  -1.199  0.00  0.00    -0.096 C 
ATOM     18  C   UNL     1      -0.749   1.494   1.129  0.00  0.00    -0.096 C 
ATOM     19  H   UNL     1       1.030   1.873   0.205  0.00  0.00    -0.082 HD
ENDBRANCH  15  16
ENDBRANCH   1  15
BRANCH   4  20
ATOM     20  S   UNL     1       5.142  -0.884   1.198  0.00  0.00    -0.081 S 
BRANCH  20  21
ATOM     21  C   UNL     1       5.801  -2.556   0.956  0.00  0.00    +0.156 C 
BRANCH  21  22
ATOM     22  C   UNL     1       7.303  -2.526   1.070  0.00  0.00    +0.173 C 
ATOM     23  O   UNL     1       7.873  -1.478   1.292  0.00  0.00    -0.291 OA
BRANCH  22  24
ATOM     24  C   UNL     1       8.077  -3.764   0.911  0.00  0.00    +0.022 A 
ATOM     25  C   UNL     1       7.420  -4.973   0.648  0.00  0.00    +0.013 A 
ATOM     26  C   UNL     1       8.137  -6.126   0.500  0.00  0.00    +0.030 A 
ATOM     27  C   UNL     1       9.522  -6.106   0.610  0.00  0.00    +0.087 A 
ATOM     28  C   UNL     1      10.191  -4.906   0.872  0.00  0.00    +0.157 A 
ATOM     29  C   UNL     1       9.472  -3.736   1.017  0.00  0.00    +0.060 A 
ATOM     30  O   UNL     1      11.516  -5.189   0.925  0.00  0.00    -0.408 OA
ATOM     31  C   UNL     1      11.693  -6.502   0.709  0.00  0.00    +0.419 A 
ATOM     32  O   UNL     1      12.767  -7.072   0.692  0.00  0.00    -0.223 OA
ATOM     33  N   UNL     1      10.497  -7.091   0.513  0.00  0.00    -0.288 N 
ATOM     34  H   UNL     1      10.345  -8.032   0.336  0.00  0.00    +0.172 HD
ENDBRANCH  22  24
ENDBRANCH  21  22
ENDBRANCH  20  21
ENDBRANCH   4  20
TORSDOF 7
