REMARK  Name = ZINC00083131
REMARK  5 active torsions:
REMARK  status: ('A' for Active; 'I' for Inactive)
REMARK    1  A    between atoms: C_8  and  C_13
REMARK    2  A    between atoms: C_13  and  C_14
REMARK    3  A    between atoms: N_16  and  C_17
REMARK    4  A    between atoms: C_22  and  O_23
REMARK    5  A    between atoms: O_23  and  C_24
REMARK                            x       y       z     vdW  Elec       q    Type
REMARK                         _______ _______ _______ _____ _____    ______ ____
ROOT
ATOM      1  C   UNL     1      -3.596   3.305  -2.051  0.00  0.00    +0.127 C 
ENDROOT
BRANCH   1   9
ATOM      2  C   UNL     1       1.145   3.125   0.009  0.00  0.00    +0.002 A 
ATOM      3  C   UNL     1       1.145   1.742   0.001  0.00  0.00    +0.002 A 
ATOM      4  C   UNL     1      -0.048   1.043   0.008  0.00  0.00    +0.025 A 
ATOM      5  C   UNL     1      -1.251   1.730   0.017  0.00  0.00    +0.055 A 
ATOM      6  C   UNL     1      -1.249   3.126   0.040  0.00  0.00    +0.049 A 
ATOM      7  C   UNL     1      -0.051   3.820   0.029  0.00  0.00    +0.025 A 
ATOM      8  N   UNL     1      -2.474   3.806   0.082  0.00  0.00    -0.331 N 
ATOM      9  C   UNL     1      -3.647   3.153  -0.529  0.00  0.00    +0.166 C 
ATOM     10  C   UNL     1      -3.632   1.689  -0.168  0.00  0.00    +0.238 C 
ATOM     11  O   UNL     1      -4.679   1.091  -0.045  0.00  0.00    -0.273 OA
ATOM     12  N   UNL     1      -2.468   1.040   0.019  0.00  0.00    -0.282 N 
ATOM     13  H   UNL     1      -2.545   4.681   0.493  0.00  0.00    +0.147 HD
ATOM     14  H   UNL     1      -2.473   0.080   0.158  0.00  0.00    +0.155 HD
ENDBRANCH   1   9
BRANCH   1  15
ATOM     15  C   UNL     1      -3.735   4.761  -2.415  0.00  0.00    +0.220 C 
ATOM     16  O   UNL     1      -3.862   5.595  -1.543  0.00  0.00    -0.275 OA
ATOM     17  N   UNL     1      -3.718   5.137  -3.709  0.00  0.00    -0.283 N 
ATOM     18  H   UNL     1      -3.537   4.483  -4.402  0.00  0.00    +0.155 HD
BRANCH  17  19
ATOM     19  C   UNL     1      -3.963   6.473  -4.054  0.00  0.00    +0.076 A 
ATOM     20  C   UNL     1      -4.702   7.286  -3.207  0.00  0.00    +0.027 A 
ATOM     21  C   UNL     1      -4.937   8.604  -3.546  0.00  0.00    +0.002 A 
ATOM     22  C   UNL     1      -4.447   9.114  -4.735  0.00  0.00    +0.004 A 
ATOM     23  C   UNL     1      -3.714   8.309  -5.587  0.00  0.00    +0.048 A 
ATOM     24  C   UNL     1      -3.469   6.987  -5.251  0.00  0.00    +0.148 A 
BRANCH  24  25
ATOM     25  O   UNL     1      -2.749   6.193  -6.088  0.00  0.00    -0.432 OA
BRANCH  25  26
ATOM     26  C   UNL     1      -2.274   6.788  -7.297  0.00  0.00    +0.541 C 
ATOM     27  F   UNL     1      -3.362   7.241  -8.052  0.00  0.00    -0.166 F 
ATOM     28  F   UNL     1      -1.438   7.866  -6.990  0.00  0.00    -0.166 F 
ENDBRANCH  25  26
ENDBRANCH  24  25
ENDBRANCH  17  19
ENDBRANCH   1  15
TORSDOF 5
