REMARK  Name = ZINC13344287
REMARK  6 active torsions:
REMARK  status: ('A' for Active; 'I' for Inactive)
REMARK    1  A    between atoms: C_6  and  C_7
REMARK    2  A    between atoms: C_7  and  C_9
REMARK    3  A    between atoms: C_7  and  N_12
REMARK    4  A    between atoms: C_9  and  C_10
REMARK    5  A    between atoms: N_12  and  S_13
REMARK    6  A    between atoms: S_13  and  C_16
REMARK                            x       y       z     vdW  Elec       q    Type
REMARK                         _______ _______ _______ _____ _____    ______ ____
ROOT
ATOM      1  N   UNL     1      -3.314   1.847   1.009  0.00  0.00    -0.182 NA
ATOM      2  H   UNL     1      -3.775   2.638   0.688  0.00  0.00    +0.149 HD
ENDROOT
BRANCH   1   3
ATOM      3  S   UNL     1      -3.537   1.332   2.567  0.00  0.00    +0.059 S 
ATOM      4  O   UNL     1      -4.392   2.281   3.189  0.00  0.00    -0.153 OA
ATOM      5  O   UNL     1      -3.857  -0.051   2.496  0.00  0.00    -0.153 OA
BRANCH   3   6
ATOM      6  C   UNL     1      -1.979   1.448   3.382  0.00  0.00    +0.108 A 
ATOM      7  C   UNL     1      -1.113   0.370   3.373  0.00  0.00    +0.048 A 
ATOM      8  C   UNL     1       0.113   0.462   4.008  0.00  0.00    +0.044 A 
ATOM      9  C   UNL     1       0.467   1.629   4.661  0.00  0.00    +0.040 A 
ATOM     10  C   UNL     1      -0.402   2.705   4.675  0.00  0.00    +0.044 A 
ATOM     11  C   UNL     1      -1.625   2.614   4.035  0.00  0.00    +0.048 A 
ATOM     12 CL   UNL     1       0.042   4.170   5.494  0.00  0.00    -0.083 Cl
ATOM     13 CL   UNL     1       1.203  -0.888   3.990  0.00  0.00    -0.083 Cl
ENDBRANCH   3   6
ENDBRANCH   1   3
BRANCH   1  14
ATOM     14  C   UNL     1      -2.419   1.108   0.114  0.00  0.00    +0.117 C 
BRANCH  14  20
ATOM     15  C   UNL     1       0.078   0.941   0.133  0.00  0.00    +0.006 A 
ATOM     16  C   UNL     1       1.333   1.519   0.149  0.00  0.00    +0.020 A 
ATOM     17  C   UNL     1       1.460   2.897   0.177  0.00  0.00    +0.041 A 
ATOM     18  C   UNL     1       0.330   3.695   0.189  0.00  0.00    +0.020 A 
ATOM     19  C   UNL     1      -0.925   3.115   0.172  0.00  0.00    +0.006 A 
ATOM     20  C   UNL     1      -1.051   1.739   0.139  0.00  0.00    -0.028 A 
ATOM     21 CL   UNL     1       3.037   3.623   0.197  0.00  0.00    -0.084 Cl
ENDBRANCH  14  20
BRANCH  14  22
ATOM     22  C   UNL     1      -2.974   1.150  -1.311  0.00  0.00    +0.150 C 
BRANCH  22  23
ATOM     23  C   UNL     1      -4.279   0.398  -1.364  0.00  0.00    +0.358 C 
ATOM     24  O   UNL     1      -4.669  -0.205  -0.392  0.00  0.00    -0.246 OA
ATOM     25  O   UNL     1      -5.009   0.398  -2.490  0.00  0.00    -0.246 OA
ENDBRANCH  22  23
ENDBRANCH  14  22
ENDBRANCH   1  14
TORSDOF 6
