REMARK  Name = ZINC00875623
REMARK  3 active torsions:
REMARK  status: ('A' for Active; 'I' for Inactive)
REMARK    1  A    between atoms: C_1  and  C_2
REMARK    2  A    between atoms: C_2  and  C_26
REMARK    3  A    between atoms: C_6  and  C_16
REMARK                            x       y       z     vdW  Elec       q    Type
REMARK                         _______ _______ _______ _____ _____    ______ ____
ROOT
ATOM      1  C   UNL     1      -6.673   4.405  -4.331  0.00  0.00    +0.031 C 
ATOM      2  C   UNL     1      -5.391   4.414  -3.474  0.00  0.00    +0.033 C 
ATOM      3  C   UNL     1      -5.605   3.492  -2.283  0.00  0.00    +0.093 C 
ATOM      4  C   UNL     1      -4.795   3.881  -1.052  0.00  0.00    +0.180 C 
ATOM      5  C   UNL     1      -3.332   3.468  -1.211  0.00  0.00    +0.081 C 
ATOM      6  C   UNL     1      -2.556   3.870   0.047  0.00  0.00    +0.061 C 
ATOM      7  C   UNL     1      -3.327   3.512   1.292  0.00  0.00    +0.040 C 
ATOM      8  C   UNL     1      -4.619   3.135   1.232  0.00  0.00    +0.108 C 
ATOM      9  O   UNL     1      -5.334   3.165   0.095  0.00  0.00    -0.472 OA
ATOM     10  C   UNL     1      -5.335   2.647   2.474  0.00  0.00    +0.075 C 
ATOM     11  C   UNL     1      -4.323   2.008   3.426  0.00  0.00    +0.015 C 
ATOM     12  C   UNL     1      -3.284   3.071   3.799  0.00  0.00    +0.080 C 
ATOM     13  C   UNL     1      -2.679   3.628   2.538  0.00  0.00    +0.163 C 
ATOM     14  O   UNL     1      -1.621   4.219   2.628  0.00  0.00    -0.292 OA
ATOM     15  N   UNL     1      -4.882   5.316  -0.800  0.00  0.00    -0.289 N 
ATOM     16  C   UNL     1      -4.987   6.188  -1.812  0.00  0.00    +0.133 C 
ATOM     17  S   UNL     1      -4.965   7.865  -1.464  0.00  0.00    -0.019 S 
ATOM     18  N   UNL     1      -5.122   5.792  -3.082  0.00  0.00    -0.321 N 
ATOM     19  C   UNL     1      -4.244   3.893  -4.348  0.00  0.00    +0.031 C 
ATOM     20  H   UNL     1      -4.866   5.644   0.113  0.00  0.00    +0.151 HD
ATOM     21  H   UNL     1      -5.036   6.466  -3.784  0.00  0.00    +0.148 HD
ENDROOT
BRANCH   6  22
ATOM     22  C   UNL     1      -1.238   3.133   0.030  0.00  0.00    -0.040 A 
ATOM     23  C   UNL     1      -1.219   1.751   0.017  0.00  0.00    +0.004 A 
ATOM     24  C   UNL     1      -0.013   1.076   0.008  0.00  0.00    +0.000 A 
ATOM     25  C   UNL     1       1.175   1.783   0.000  0.00  0.00    +0.000 A 
ATOM     26  C   UNL     1       1.156   3.165   0.008  0.00  0.00    +0.000 A 
ATOM     27  C   UNL     1      -0.050   3.840   0.022  0.00  0.00    +0.004 A 
ENDBRANCH   6  22
TORSDOF 1
