REMARK  Name = ZINC54617784
REMARK  11 active torsions:
REMARK  status: ('A' for Active; 'I' for Inactive)
REMARK    1  A    between atoms: C_1  and  C_2
REMARK    2  A    between atoms: C_2  and  C_3
REMARK    3  A    between atoms: C_3  and  C_4
REMARK    4  A    between atoms: C_4  and  S_5
REMARK    5  A    between atoms: S_5  and  C_6
REMARK    6  A    between atoms: C_11  and  C_28
REMARK    7  A    between atoms: C_13  and  C_17
REMARK    8  A    between atoms: C_14  and  C_16
REMARK    9  A    between atoms: N_19  and  C_20
REMARK   10  A    between atoms: C_24  and  C_27
REMARK   11  A    between atoms: C_25  and  C_26
REMARK                            x       y       z     vdW  Elec       q    Type
REMARK                         _______ _______ _______ _____ _____    ______ ____
ROOT
ATOM      1  C   UNL     1       1.755  -4.402   2.389  0.00  0.00    +0.210 A 
ATOM      2  N   UNL     1       1.135  -5.093   1.420  0.00  0.00    -0.187 NA
ATOM      3  C   UNL     1       1.245  -6.371   1.657  0.00  0.00    +0.219 A 
ATOM      4  N   UNL     1       1.946  -6.528   2.807  0.00  0.00    -0.220 N 
ATOM      5  N   UNL     1       2.271  -5.248   3.254  0.00  0.00    -0.141 NA
ATOM      6  C   UNL     1       2.259  -7.829   3.392  0.00  0.00    +0.179 C 
ATOM      7  C   UNL     1       1.954  -8.914   2.394  0.00  0.00    +0.060 C 
ATOM      8  C   UNL     1       1.257  -8.699   1.269  0.00  0.00    +0.018 C 
ATOM      9  N   UNL     1       0.772  -7.458   0.934  0.00  0.00    -0.287 N 
ATOM     10  C   UNL     1       0.997  -9.857   0.341  0.00  0.00    +0.061 C 
ATOM     11  H   UNL     1       0.125  -7.346   0.221  0.00  0.00    +0.155 HD
ENDROOT
BRANCH   6  12
ATOM     12  C   UNL     1       1.424  -8.036   4.630  0.00  0.00    +0.007 A 
ATOM     13  C   UNL     1       0.083  -8.062   4.694  0.00  0.00    +0.089 A 
ATOM     14  N   UNL     1      -0.319  -8.273   5.984  0.00  0.00    -0.360 N 
ATOM     15  H   UNL     1      -1.241  -8.331   6.279  0.00  0.00    +0.165 HD
ATOM     16  C   UNL     1       0.782  -8.391   6.804  0.00  0.00    +0.047 A 
ATOM     17  C   UNL     1       1.921  -8.254   5.990  0.00  0.00    +0.005 A 
ATOM     18  C   UNL     1       3.195  -8.336   6.556  0.00  0.00    +0.010 A 
ATOM     19  C   UNL     1       3.328  -8.553   7.899  0.00  0.00    +0.001 A 
ATOM     20  C   UNL     1       2.207  -8.693   8.705  0.00  0.00    +0.002 A 
ATOM     21  C   UNL     1       0.941  -8.606   8.169  0.00  0.00    +0.026 A 
ENDBRANCH   6  12
BRANCH   7  22
ATOM     22  C   UNL     1       2.427 -10.222   2.655  0.00  0.00    +0.248 C 
ATOM     23  O   UNL     1       3.587 -10.508   2.421  0.00  0.00    -0.270 OA
ATOM     24  N   UNL     1       1.593 -11.151   3.162  0.00  0.00    -0.281 N 
ATOM     25  H   UNL     1       0.654 -10.943   3.289  0.00  0.00    +0.155 HD
BRANCH  24  26
ATOM     26  C   UNL     1       2.081 -12.415   3.507  0.00  0.00    +0.037 A 
ATOM     27  C   UNL     1       3.095 -12.998   2.757  0.00  0.00    +0.023 A 
ATOM     28  C   UNL     1       3.575 -14.247   3.100  0.00  0.00    +0.002 A 
ATOM     29  C   UNL     1       3.047 -14.917   4.189  0.00  0.00    +0.004 A 
ATOM     30  C   UNL     1       2.038 -14.340   4.937  0.00  0.00    -0.046 A 
ATOM     31  C   UNL     1       1.557 -13.088   4.603  0.00  0.00    -0.026 A 
ATOM     32  C   UNL     1       0.462 -12.457   5.423  0.00  0.00    +0.046 C 
ATOM     33  C   UNL     1       1.466 -15.074   6.123  0.00  0.00    +0.044 C 
ENDBRANCH  24  26
ENDBRANCH   7  22
BRANCH   1  34
ATOM     34  S   UNL     1       1.867  -2.646   2.482  0.00  0.00    -0.084 S 
BRANCH  34  35
ATOM     35  C   UNL     1       0.967  -2.070   1.017  0.00  0.00    +0.077 C 
BRANCH  35  36
ATOM     36  C   UNL     1       0.986  -0.541   0.974  0.00  0.00    +0.011 C 
BRANCH  36  38
ATOM     37  C   UNL     1       0.247   1.474  -0.304  0.00  0.00    +0.004 C 
ATOM     38  C   UNL     1       0.227  -0.055  -0.262  0.00  0.00    -0.003 C 
ENDBRANCH  36  38
ENDBRANCH  35  36
ENDBRANCH  34  35
ENDBRANCH   1  34
TORSDOF 7
