REMARK  Name = ZINC06505949
REMARK  5 active torsions:
REMARK  status: ('A' for Active; 'I' for Inactive)
REMARK    1  A    between atoms: C_3  and  S_18
REMARK    2  A    between atoms: C_6  and  N_7
REMARK    3  A    between atoms: N_8  and  C_9
REMARK    4  A    between atoms: C_14  and  O_15
REMARK    5  A    between atoms: S_18  and  N_21
REMARK                            x       y       z     vdW  Elec       q    Type
REMARK                         _______ _______ _______ _____ _____    ______ ____
ROOT
ATOM      1  C   UNL     1      -0.017   1.393   0.010  0.00  0.00    +0.031 A 
ATOM      2  C   UNL     1       1.170   2.096   0.002  0.00  0.00    +0.030 A 
ATOM      3  C   UNL     1       2.378   1.420  -0.013  0.00  0.00    +0.106 A 
ATOM      4  C   UNL     1       2.404   0.036  -0.021  0.00  0.00    +0.030 A 
ATOM      5  C   UNL     1       1.225  -0.679  -0.014  0.00  0.00    +0.031 A 
ATOM      6  C   UNL     1       0.002  -0.004   0.002  0.00  0.00    +0.086 A 
ENDROOT
BRANCH   3   7
ATOM      7  S   UNL     1       3.889   2.326  -0.023  0.00  0.00    +0.061 S 
ATOM      8  O   UNL     1       4.872   1.470  -0.587  0.00  0.00    -0.153 OA
ATOM      9  O   UNL     1       3.592   3.606  -0.564  0.00  0.00    -0.153 OA
BRANCH   7  10
ATOM     10  N   UNL     1       4.324   2.569   1.557  0.00  0.00    -0.177 NA
ATOM     11  C   UNL     1       3.866   3.760   2.284  0.00  0.00    +0.109 C 
ATOM     12  C   UNL     1       3.183   3.314   3.581  0.00  0.00    +0.017 C 
ATOM     13  C   UNL     1       4.140   2.421   4.375  0.00  0.00    +0.003 C 
ATOM     14  C   UNL     1       4.478   1.175   3.554  0.00  0.00    +0.017 C 
ATOM     15  C   UNL     1       5.170   1.595   2.259  0.00  0.00    +0.109 C 
ENDBRANCH   7  10
ENDBRANCH   3   7
BRANCH   6  16
ATOM     16  N   UNL     1      -1.171  -0.707   0.010  0.00  0.00    -0.149 NA
ATOM     17  N   UNL     1      -1.149  -1.997   0.003  0.00  0.00    -0.146 NA
BRANCH  17  18
ATOM     18  C   UNL     1      -2.320  -2.698   0.011  0.00  0.00    +0.130 A 
ATOM     19  C   UNL     1      -3.544  -2.023   0.021  0.00  0.00    +0.053 A 
ATOM     20  C   UNL     1      -4.723  -2.738   0.028  0.00  0.00    +0.045 A 
ATOM     21  C   UNL     1      -4.701  -4.124   0.026  0.00  0.00    +0.043 A 
ATOM     22  C   UNL     1      -3.497  -4.804   0.016  0.00  0.00    +0.086 A 
ATOM     23  C   UNL     1      -2.301  -4.101   0.003  0.00  0.00    +0.162 A 
ATOM     24 CL   UNL     1      -3.481  -6.540   0.013  0.00  0.00    -0.080 Cl
ATOM     25 CL   UNL     1      -6.243  -1.899   0.041  0.00  0.00    -0.083 Cl
BRANCH  23  26
ATOM     26  O   UNL     1      -1.119  -4.767  -0.012  0.00  0.00    -0.503 OA
ATOM     27  H   UNL     1      -0.767  -4.965   0.867  0.00  0.00    +0.292 HD
ENDBRANCH  23  26
ENDBRANCH  17  18
ENDBRANCH   6  16
TORSDOF 5
