REMARK  Name = ZINC52604034
REMARK  9 active torsions:
REMARK  status: ('A' for Active; 'I' for Inactive)
REMARK    1  A    between atoms: C_1  and  C_2
REMARK    2  A    between atoms: C_6  and  N_26
REMARK    3  A    between atoms: N_9  and  C_10
REMARK    4  A    between atoms: C_10  and  C_11
REMARK    5  A    between atoms: N_13  and  C_14
REMARK    6  A    between atoms: C_14  and  C_15
REMARK    7  A    between atoms: N_26  and  S_27
REMARK    8  A    between atoms: S_27  and  C_30
REMARK    9  A    between atoms: C_30  and  C_31
REMARK                            x       y       z     vdW  Elec       q    Type
REMARK                         _______ _______ _______ _____ _____    ______ ____
ROOT
ATOM      1  C   UNL     1      -0.019   1.526   0.010  0.00  0.00    +0.028 C 
ATOM      2  C   UNL     1       0.002  -0.004   0.002  0.00  0.00    +0.078 C 
ATOM      3  C   UNL     1      -1.432  -0.529   0.005  0.00  0.00    +0.051 C 
ATOM      4  C   UNL     1      -2.082  -0.262   1.337  0.00  0.00    +0.004 C 
ATOM      5  C   UNL     1      -1.353  -0.293   2.455  0.00  0.00    +0.106 C 
ATOM      6  C   UNL     1       0.096  -0.563   2.373  0.00  0.00    +0.262 C 
ATOM      7  O   UNL     1       0.722  -0.855   3.374  0.00  0.00    -0.269 OA
ATOM      8  N   UNL     1       0.717  -0.485   1.185  0.00  0.00    -0.285 N 
ENDROOT
BRANCH   5   9
ATOM      9  N   UNL     1      -1.959  -0.069   3.696  0.00  0.00    -0.216 N 
ATOM     10  H   UNL     1      -1.427  -0.092   4.507  0.00  0.00    +0.173 HD
BRANCH   9  11
ATOM     11  S   UNL     1      -3.585   0.234   3.782  0.00  0.00    +0.047 S 
ATOM     12  O   UNL     1      -3.845   0.432   5.165  0.00  0.00    -0.155 OA
ATOM     13  O   UNL     1      -3.808   1.279   2.845  0.00  0.00    -0.155 OA
BRANCH  11  14
ATOM     14  C   UNL     1      -4.375  -1.296   3.211  0.00  0.00    +0.223 C 
BRANCH  14  15
ATOM     15  C   UNL     1      -5.873  -1.131   3.248  0.00  0.00    -0.025 A 
ATOM     16  C   UNL     1      -6.577  -1.461   4.391  0.00  0.00    +0.005 A 
ATOM     17  C   UNL     1      -7.950  -1.310   4.424  0.00  0.00    +0.000 A 
ATOM     18  C   UNL     1      -8.620  -0.829   3.315  0.00  0.00    +0.000 A 
ATOM     19  C   UNL     1      -7.916  -0.499   2.172  0.00  0.00    +0.000 A 
ATOM     20  C   UNL     1      -6.542  -0.645   2.140  0.00  0.00    +0.005 A 
ENDBRANCH  14  15
ENDBRANCH  11  14
ENDBRANCH   9  11
ENDBRANCH   5   9
BRANCH   8  21
ATOM     21  C   UNL     1       2.123  -0.884   1.075  0.00  0.00    +0.204 C 
BRANCH  21  22
ATOM     22  C   UNL     1       3.005   0.308   1.336  0.00  0.00    +0.230 C 
ATOM     23  O   UNL     1       2.510   1.386   1.589  0.00  0.00    -0.274 OA
ATOM     24  N   UNL     1       4.346   0.178   1.288  0.00  0.00    -0.314 N 
ATOM     25  H   UNL     1       4.743  -0.684   1.086  0.00  0.00    +0.149 HD
BRANCH  24  26
ATOM     26  C   UNL     1       5.204   1.338   1.542  0.00  0.00    +0.108 C 
BRANCH  26  27
ATOM     27  C   UNL     1       6.672   0.921   1.428  0.00  0.00    +0.011 C 
ATOM     28  C   UNL     1       7.569   2.100   1.815  0.00  0.00    +0.011 C 
ATOM     29  C   UNL     1       9.018   1.618   1.950  0.00  0.00    +0.055 C 
ATOM     30  C   UNL     1       9.375   0.831   0.714  0.00  0.00    +0.039 A 
ATOM     31  C   UNL     1       8.465   0.336  -0.163  0.00  0.00    -0.007 A 
ATOM     32  C   UNL     1       9.157  -0.326  -1.174  0.00  0.00    +0.138 A 
ATOM     33  N   UNL     1      10.439  -0.234  -0.917  0.00  0.00    -0.182 NA
ATOM     34  N   UNL     1      10.598   0.493   0.273  0.00  0.00    -0.281 N 
ATOM     35  H   UNL     1      11.441   0.712   0.701  0.00  0.00    +0.189 HD
ATOM     36  C   UNL     1       6.973   0.502  -0.016  0.00  0.00    +0.043 C 
ENDBRANCH  26  27
ENDBRANCH  24  26
ENDBRANCH  21  22
ENDBRANCH   8  21
TORSDOF 8
