REMARK  Name = ZINC00724014
REMARK  8 active torsions:
REMARK  status: ('A' for Active; 'I' for Inactive)
REMARK    1  A    between atoms: C_1  and  N_43
REMARK    2  A    between atoms: C_2  and  N_43
REMARK    3  A    between atoms: C_3  and  C_4
REMARK    4  A    between atoms: C_3  and  N_43
REMARK    5  A    between atoms: C_5  and  O_27
REMARK    6  A    between atoms: C_11  and  C_23
REMARK    7  A    between atoms: C_12  and  O_15
REMARK    8  A    between atoms: O_15  and  C_16
REMARK                            x       y       z     vdW  Elec       q    Type
REMARK                         _______ _______ _______ _____ _____    ______ ____
ROOT
ATOM      1  C   UNL     1      -1.082   7.582  -0.166  0.00  0.00    +0.020 A 
ATOM      2  C   UNL     1      -1.060   8.344   0.990  0.00  0.00    +0.122 A 
ATOM      3  C   UNL     1      -1.067   7.733   2.242  0.00  0.00    +0.046 A 
ATOM      4  C   UNL     1      -1.097   6.372   2.346  0.00  0.00    +0.019 A 
ATOM      5  C   UNL     1      -1.119   5.590   1.191  0.00  0.00    +0.068 A 
ATOM      6  C   UNL     1      -1.111   6.197  -0.077  0.00  0.00    +0.144 A 
ATOM      7  O   UNL     1      -1.133   5.431  -1.187  0.00  0.00    -0.447 OA
ATOM      8  C   UNL     1      -1.162   4.093  -1.135  0.00  0.00    +0.254 A 
ATOM      9  C   UNL     1      -1.172   3.409   0.026  0.00  0.00    +0.222 A 
ATOM     10  C   UNL     1      -1.156   4.119   1.260  0.00  0.00    +0.235 A 
ATOM     11  O   UNL     1      -1.169   3.533   2.330  0.00  0.00    -0.283 OA
ENDROOT
BRANCH   8  12
ATOM     12  C   UNL     1      -1.185   3.321  -2.429  0.00  0.00    +0.454 C 
ATOM     13  F   UNL     1      -2.510   3.110  -2.823  0.00  0.00    -0.163 F 
ATOM     14  F   UNL     1      -0.514   4.048  -3.418  0.00  0.00    -0.163 F 
ATOM     15  F   UNL     1      -0.551   2.087  -2.246  0.00  0.00    -0.163 F 
ENDBRANCH   8  12
BRANCH   2  16
ATOM     16  O   UNL     1      -1.032   9.698   0.902  0.00  0.00    -0.506 OA
ATOM     17  H   UNL     1      -1.907  10.110   0.881  0.00  0.00    +0.292 HD
ENDBRANCH   2  16
BRANCH   1  18
ATOM     18  C   UNL     1      -1.074   8.253  -1.515  0.00  0.00    -0.036 C 
BRANCH  18  21
ATOM     19  C   UNL     1      -2.490   9.361  -3.138  0.00  0.00    -0.096 C 
ATOM     20  C   UNL     1      -3.167   7.238  -2.189  0.00  0.00    -0.096 C 
ATOM     21  N   UNL     1      -2.470   8.515  -1.926  0.00  0.00    +0.379 N 
ATOM     22  H   UNL     1      -2.954   9.009  -1.167  0.00  0.00    -0.082 HD
ENDBRANCH  18  21
ENDBRANCH   1  18
BRANCH   9  23
ATOM     23  O   UNL     1      -1.202   2.048   0.019  0.00  0.00    -0.448 OA
BRANCH  23  24
ATOM     24  C   UNL     1      -0.017   1.383   0.010  0.00  0.00    +0.129 A 
ATOM     25  C   UNL     1       1.177   2.091   0.002  0.00  0.00    +0.047 A 
ATOM     26  C   UNL     1       2.380   1.414  -0.013  0.00  0.00    +0.019 A 
ATOM     27  C   UNL     1       2.397   0.031  -0.020  0.00  0.00    +0.018 A 
ATOM     28  C   UNL     1       1.208  -0.677  -0.013  0.00  0.00    +0.019 A 
ATOM     29  C   UNL     1       0.002  -0.004   0.002  0.00  0.00    +0.047 A 
ATOM     30 BR   UNL     1       4.046  -0.894  -0.040  0.00  0.00    -0.050 Br
ENDBRANCH  23  24
ENDBRANCH   9  23
TORSDOF 6
