REMARK  Name = ZINC09108680
REMARK  10 active torsions:
REMARK  status: ('A' for Active; 'I' for Inactive)
REMARK    1  A    between atoms: C_1  and  C_2
REMARK    2  A    between atoms: C_7  and  O_8
REMARK    3  A    between atoms: O_8  and  C_9
REMARK    4  A    between atoms: C_9  and  C_10
REMARK    5  A    between atoms: C_10  and  C_12
REMARK    6  A    between atoms: C_10  and  O_38
REMARK    7  A    between atoms: C_12  and  N_13
REMARK    8  A    between atoms: N_18  and  N_19
REMARK    9  A    between atoms: N_30  and  C_37
REMARK   10  A    between atoms: N_33  and  C_36
REMARK                            x       y       z     vdW  Elec       q    Type
REMARK                         _______ _______ _______ _____ _____    ______ ____
ROOT
ATOM      1  N   UNL     1       0.317   0.058   7.285  0.00  0.00    -0.302 N 
ATOM      2  C   UNL     1       1.494   0.343   7.958  0.00  0.00    +0.153 A 
ATOM      3  C   UNL     1       1.125   0.962   9.148  0.00  0.00    +0.170 A 
ATOM      4  N   UNL     1      -0.206   1.035   9.168  0.00  0.00    -0.195 NA
ATOM      5  C   UNL     1      -0.701   0.507   8.067  0.00  0.00    +0.218 A 
ATOM      6  N   UNL     1      -2.042   0.421   7.757  0.00  0.00    -0.206 N 
ATOM      7  N   UNL     1       2.118   1.361  10.029  0.00  0.00    -0.280 N 
ATOM      8  C   UNL     1       3.413   1.149   9.727  0.00  0.00    +0.333 A 
ATOM      9  O   UNL     1       4.271   1.506  10.511  0.00  0.00    -0.246 OA
ATOM     10  N   UNL     1       3.781   0.551   8.581  0.00  0.00    -0.262 N 
ATOM     11  C   UNL     1       2.860   0.140   7.684  0.00  0.00    +0.282 A 
ATOM     12  O   UNL     1       3.207  -0.399   6.648  0.00  0.00    -0.265 OA
ATOM     13  C   UNL     1       5.204   0.343   8.300  0.00  0.00    +0.157 C 
ATOM     14  C   UNL     1       1.758   2.016  11.289  0.00  0.00    +0.155 C 
ATOM     15  H   UNL     1      -2.322   0.013   6.922  0.00  0.00    +0.177 HD
ENDROOT
BRANCH   6  16
ATOM     16  N   UNL     1      -2.925   0.882   8.576  0.00  0.00    -0.174 NA
ATOM     17  C   UNL     1      -4.203   0.703   8.335  0.00  0.00    +0.153 C 
ATOM     18  C   UNL     1      -4.811  -0.141   7.280  0.00  0.00    +0.028 A 
ATOM     19  C   UNL     1      -4.279  -0.953   6.284  0.00  0.00    +0.012 A 
ATOM     20  C   UNL     1      -5.125  -1.632   5.430  0.00  0.00    +0.001 A 
ATOM     21  C   UNL     1      -6.497  -1.505   5.566  0.00  0.00    +0.002 A 
ATOM     22  C   UNL     1      -7.035  -0.702   6.551  0.00  0.00    +0.024 A 
ATOM     23  C   UNL     1      -6.199  -0.010   7.421  0.00  0.00    +0.043 A 
ATOM     24  N   UNL     1      -6.474   0.849   8.479  0.00  0.00    -0.280 N 
ATOM     25  C   UNL     1      -5.345   1.293   9.057  0.00  0.00    +0.269 C 
ATOM     26  O   UNL     1      -5.277   2.052  10.007  0.00  0.00    -0.268 OA
ATOM     27  H   UNL     1      -7.367   1.093   8.767  0.00  0.00    +0.155 HD
ENDBRANCH   6  16
BRANCH   1  28
ATOM     28  C   UNL     1       0.193  -0.595   5.980  0.00  0.00    +0.160 C 
BRANCH  28  29
ATOM     29  C   UNL     1       0.218   0.464   4.875  0.00  0.00    +0.172 C 
BRANCH  29  30
ATOM     30  O   UNL     1      -0.936   1.299   4.991  0.00  0.00    -0.387 OA
ATOM     31  H   UNL     1      -1.775   0.824   4.912  0.00  0.00    +0.210 HD
ENDBRANCH  29  30
BRANCH  29  32
ATOM     32  C   UNL     1       0.214  -0.225   3.509  0.00  0.00    +0.262 C 
BRANCH  32  33
ATOM     33  O   UNL     1       0.354   0.757   2.480  0.00  0.00    -0.489 OA
BRANCH  33  40
ATOM     34  C   UNL     1       0.630   2.682   0.432  0.00  0.00    +0.047 C 
ATOM     35  C   UNL     1       0.503   1.208   0.149  0.00  0.00    -0.009 A 
ATOM     36  C   UNL     1       0.524   0.749  -1.154  0.00  0.00    +0.007 A 
ATOM     37  C   UNL     1       0.408  -0.604  -1.414  0.00  0.00    +0.000 A 
ATOM     38  C   UNL     1       0.269  -1.501  -0.371  0.00  0.00    +0.004 A 
ATOM     39  C   UNL     1       0.247  -1.048   0.934  0.00  0.00    +0.046 A 
ATOM     40  C   UNL     1       0.370   0.309   1.197  0.00  0.00    +0.124 A 
ENDBRANCH  33  40
ENDBRANCH  32  33
ENDBRANCH  29  32
ENDBRANCH  28  29
ENDBRANCH   1  28
TORSDOF 7
