REMARK  Name = ZINC33779036
REMARK  11 active torsions:
REMARK  status: ('A' for Active; 'I' for Inactive)
REMARK    1  A    between atoms: C_1  and  C_2
REMARK    2  A    between atoms: C_2  and  C_3
REMARK    3  A    between atoms: C_3  and  C_4
REMARK    4  A    between atoms: C_3  and  C_5
REMARK    5  A    between atoms: C_3  and  C_6
REMARK    6  A    between atoms: N_12  and  C_17
REMARK    7  A    between atoms: C_17  and  C_18
REMARK    8  A    between atoms: C_22  and  C_24
REMARK    9  A    between atoms: N_26  and  C_27
REMARK   10  A    between atoms: C_27  and  C_28
REMARK   11  A    between atoms: C_28  and  N_29
REMARK                            x       y       z     vdW  Elec       q    Type
REMARK                         _______ _______ _______ _____ _____    ______ ____
ROOT
ATOM      1  C   UNL     1      -2.195  -4.498  -0.016  0.00  0.00    -0.029 A 
ATOM      2  C   UNL     1      -1.117  -5.365   0.004  0.00  0.00    +0.005 A 
ATOM      3  C   UNL     1       0.176  -4.871  -0.019  0.00  0.00    +0.001 A 
ATOM      4  C   UNL     1       0.397  -3.510  -0.067  0.00  0.00    +0.013 A 
ATOM      5  C   UNL     1      -0.687  -2.630  -0.082  0.00  0.00    +0.037 A 
ATOM      6  C   UNL     1      -1.988  -3.135  -0.059  0.00  0.00    +0.018 A 
ENDROOT
BRANCH   5   7
ATOM      7  C   UNL     1      -0.457  -1.171  -0.129  0.00  0.00    +0.244 C 
ATOM      8  O   UNL     1      -1.403  -0.407  -0.146  0.00  0.00    -0.270 OA
ATOM      9  N   UNL     1       0.800  -0.686  -0.151  0.00  0.00    -0.313 N 
ATOM     10  H   UNL     1       1.656  -1.378  -0.135  0.00  0.00    +0.149 HD
BRANCH   9  11
ATOM     11  C   UNL     1       1.028   0.760  -0.197  0.00  0.00    +0.086 C 
BRANCH  11  12
ATOM     12  C   UNL     1       2.532   1.040  -0.214  0.00  0.00    -0.060 C 
BRANCH  12  13
ATOM     13  N   UNL     1       2.760   2.490  -0.260  0.00  0.00    +0.381 N 
ATOM     14  C   UNL     1       2.279   3.058  -1.526  0.00  0.00    -0.079 C 
ATOM     15  C   UNL     1       2.399   4.583  -1.480  0.00  0.00    -0.019 C 
ATOM     16  C   UNL     1       3.863   4.969  -1.249  0.00  0.00    -0.004 C 
ATOM     17  C   UNL     1       4.353   4.325   0.050  0.00  0.00    -0.019 C 
ATOM     18  C   UNL     1       4.177   2.807  -0.040  0.00  0.00    -0.079 C 
ATOM     19  H   UNL     1       2.183   2.950   0.555  0.00  0.00    -0.082 HD
ENDBRANCH  12  13
ENDBRANCH  11  12
ENDBRANCH   9  11
ENDBRANCH   5   7
BRANCH   1  20
ATOM     20  C   UNL     1      -3.599  -5.045   0.009  0.00  0.00    +0.149 C 
BRANCH  20  27
ATOM     21  C   UNL     1      -3.040  -8.601  -2.250  0.00  0.00    -0.040 A 
ATOM     22  C   UNL     1      -3.229  -8.583  -3.619  0.00  0.00    +0.008 A 
ATOM     23  C   UNL     1      -3.705  -7.443  -4.242  0.00  0.00    +0.048 A 
ATOM     24  C   UNL     1      -3.991  -6.316  -3.492  0.00  0.00    +0.143 A 
ATOM     25  C   UNL     1      -3.795  -6.332  -2.113  0.00  0.00    +0.079 A 
ATOM     26  C   UNL     1      -3.324  -7.479  -1.493  0.00  0.00    +0.031 A 
ATOM     27  N   UNL     1      -4.093  -5.185  -1.363  0.00  0.00    -0.261 N 
ATOM     28  C   UNL     1      -4.838  -4.209  -1.927  0.00  0.00    +0.258 C 
ATOM     29  O   UNL     1      -5.078  -3.193  -1.310  0.00  0.00    -0.271 OA
ATOM     30  C   UNL     1      -5.369  -4.388  -3.326  0.00  0.00    +0.325 C 
ATOM     31  O   UNL     1      -4.459  -5.187  -4.088  0.00  0.00    -0.481 OA
BRANCH  21  32
ATOM     32  C   UNL     1      -2.521  -9.847  -1.580  0.00  0.00    -0.010 C 
ATOM     33  C   UNL     1      -1.203  -9.534  -0.870  0.00  0.00    +0.016 C 
ATOM     34  C   UNL     1      -3.546 -10.340  -0.556  0.00  0.00    +0.016 C 
BRANCH  32  36
ATOM     35  C   UNL     1      -1.762 -12.198  -1.952  0.00  0.00    +0.005 C 
ATOM     36  C   UNL     1      -2.289 -10.933  -2.632  0.00  0.00    +0.007 C 
ENDBRANCH  32  36
ENDBRANCH  21  32
ENDBRANCH  20  27
ENDBRANCH   1  20
TORSDOF 8
