REMARK  Name = ZINC35848564
REMARK  13 active torsions:
REMARK  status: ('A' for Active; 'I' for Inactive)
REMARK    1  A    between atoms: C_1  and  C_2
REMARK    2  A    between atoms: C_2  and  O_3
REMARK    3  A    between atoms: O_3  and  N_4
REMARK    4  A    between atoms: C_5  and  C_7
REMARK    5  A    between atoms: C_7  and  N_8
REMARK    6  A    between atoms: C_11  and  C_22
REMARK    7  A    between atoms: N_13  and  C_14
REMARK    8  A    between atoms: C_17  and  C_21
REMARK    9  A    between atoms: C_19  and  C_20
REMARK   10  A    between atoms: C_22  and  C_23
REMARK   11  A    between atoms: C_22  and  C_24
REMARK   12  A    between atoms: C_22  and  C_25
REMARK   13  A    between atoms: C_26  and  C_32
REMARK                            x       y       z     vdW  Elec       q    Type
REMARK                         _______ _______ _______ _____ _____    ______ ____
ROOT
ATOM      1  N   UNL     1       5.583  -7.285  -7.394  0.00  0.00    -0.246 N 
ATOM      2  C   UNL     1       4.275  -6.990  -6.984  0.00  0.00    +0.136 A 
ATOM      3  C   UNL     1       3.169  -7.342  -7.680  0.00  0.00    +0.034 A 
ATOM      4  C   UNL     1       2.055  -6.880  -6.978  0.00  0.00    +0.075 A 
ATOM      5  N   UNL     1       2.476  -6.274  -5.894  0.00  0.00    -0.169 NA
ATOM      6  N   UNL     1       3.878  -6.330  -5.870  0.00  0.00    -0.217 N 
ATOM      7  C   UNL     1       3.177  -8.104  -8.980  0.00  0.00    +0.118 C 
ATOM      8  S   UNL     1       3.747  -6.984 -10.309  0.00  0.00    -0.138 S 
ATOM      9  C   UNL     1       5.100  -6.080  -9.484  0.00  0.00    +0.166 C 
ATOM     10  C   UNL     1       5.934  -7.006  -8.654  0.00  0.00    +0.231 C 
ATOM     11  O   UNL     1       6.931  -7.507  -9.129  0.00  0.00    -0.274 OA
ENDROOT
BRANCH   6  12
ATOM     12  C   UNL     1       4.714  -5.801  -4.877  0.00  0.00    +0.070 A 
ATOM     13  C   UNL     1       5.118  -6.595  -3.812  0.00  0.00    +0.028 A 
ATOM     14  C   UNL     1       5.942  -6.071  -2.835  0.00  0.00    +0.005 A 
ATOM     15  C   UNL     1       6.363  -4.756  -2.916  0.00  0.00    -0.050 A 
ATOM     16  C   UNL     1       5.962  -3.963  -3.975  0.00  0.00    +0.008 A 
ATOM     17  C   UNL     1       5.143  -4.483  -4.958  0.00  0.00    -0.025 A 
ATOM     18  C   UNL     1       4.712  -3.620  -6.115  0.00  0.00    +0.046 C 
ATOM     19  C   UNL     1       7.261  -4.187  -1.847  0.00  0.00    +0.044 C 
ENDBRANCH   6  12
BRANCH   7  20
ATOM     20  C   UNL     1       1.786  -8.594  -9.288  0.00  0.00    +0.007 A 
ATOM     21  C   UNL     1       0.813  -7.997 -10.021  0.00  0.00    +0.012 A 
ATOM     22  C   UNL     1      -0.401  -8.639 -10.172  0.00  0.00    +0.008 A 
ATOM     23  C   UNL     1      -0.584  -9.847  -9.584  0.00  0.00    +0.045 A 
ATOM     24  S   UNL     1       0.992 -10.114  -8.790  0.00  0.00    -0.100 S 
ENDBRANCH   7  20
BRANCH   4  25
ATOM     25  C   UNL     1       0.616  -7.048  -7.394  0.00  0.00    +0.007 C 
ATOM     26  C   UNL     1       0.276  -8.538  -7.463  0.00  0.00    +0.017 C 
ATOM     27  C   UNL     1      -0.294  -6.364  -6.371  0.00  0.00    +0.017 C 
ATOM     28  C   UNL     1       0.406  -6.412  -8.769  0.00  0.00    +0.017 C 
ENDBRANCH   4  25
BRANCH   1  29
ATOM     29  C   UNL     1       6.545  -7.880  -6.463  0.00  0.00    +0.212 C 
BRANCH  29  31
ATOM     30  N   UNL     1       8.869  -7.466  -5.725  0.00  0.00    -0.193 N 
ATOM     31  C   UNL     1       7.830  -7.093  -6.497  0.00  0.00    +0.253 C 
ATOM     32  O   UNL     1       7.929  -6.124  -7.220  0.00  0.00    -0.272 OA
ATOM     33  H   UNL     1       8.768  -8.197  -5.095  0.00  0.00    +0.182 HD
BRANCH  30  34
ATOM     34  O   UNL     1      10.110  -6.792  -5.833  0.00  0.00    -0.280 OA
BRANCH  34  36
ATOM     35  C   UNL     1      12.411  -6.493  -5.157  0.00  0.00    +0.036 C 
ATOM     36  C   UNL     1      11.121  -7.291  -4.956  0.00  0.00    +0.187 C 
ENDBRANCH  34  36
ENDBRANCH  30  34
ENDBRANCH  29  31
ENDBRANCH   1  29
TORSDOF 7
