REMARK  Name = ZINC04329523
REMARK  8 active torsions:
REMARK  status: ('A' for Active; 'I' for Inactive)
REMARK    1  A    between atoms: C_1  and  C_2
REMARK    2  A    between atoms: C_5  and  C_9
REMARK    3  A    between atoms: C_7  and  C_8
REMARK    4  A    between atoms: C_12  and  C_14
REMARK    5  A    between atoms: C_14  and  C_26
REMARK    6  A    between atoms: C_15  and  N_16
REMARK    7  A    between atoms: N_16  and  C_17
REMARK    8  A    between atoms: C_20  and  N_23
REMARK                            x       y       z     vdW  Elec       q    Type
REMARK                         _______ _______ _______ _____ _____    ______ ____
ROOT
ATOM      1  C   UNL     1      -0.119  -7.193   2.074  0.00  0.00    +0.098 C 
ATOM      2  C   UNL     1      -0.072  -8.584   1.804  0.00  0.00    +0.093 C 
ENDROOT
BRANCH   1   6
ATOM      3  C   UNL     1      -0.035  -4.246  -0.020  0.00  0.00    +0.079 A 
ATOM      4  C   UNL     1       0.068  -5.008  -1.279  0.00  0.00    +0.075 A 
ATOM      5  S   UNL     1       0.063  -6.599  -0.729  0.00  0.00    -0.074 S 
ATOM      6  C   UNL     1      -0.065  -6.274   1.020  0.00  0.00    +0.120 A 
ATOM      7  N   UNL     1      -0.091  -4.934   1.079  0.00  0.00    -0.238 NA
BRANCH   3  12
ATOM      8  C   UNL     1      -0.158   1.505   0.018  0.00  0.00    +0.044 C 
ATOM      9  C   UNL     1      -0.125  -0.002   0.008  0.00  0.00    -0.047 A 
ATOM     10  C   UNL     1      -0.137  -0.683  -1.198  0.00  0.00    +0.004 A 
ATOM     11  C   UNL     1      -0.108  -2.060  -1.216  0.00  0.00    +0.010 A 
ATOM     12  C   UNL     1      -0.066  -2.772  -0.010  0.00  0.00    +0.001 A 
ATOM     13  C   UNL     1      -0.053  -2.075   1.204  0.00  0.00    +0.013 A 
ATOM     14  C   UNL     1      -0.078  -0.697   1.205  0.00  0.00    -0.047 A 
ATOM     15  C   UNL     1      -0.059   0.054   2.511  0.00  0.00    +0.044 C 
ENDBRANCH   3  12
ENDBRANCH   1   6
BRANCH   2  16
ATOM     16  N   UNL     1      -0.124  -9.458   2.806  0.00  0.00    -0.319 N 
ATOM     17  H   UNL     1      -0.116  -9.144   3.724  0.00  0.00    +0.152 HD
BRANCH  16  18
ATOM     18  C   UNL     1      -0.189 -10.820   2.538  0.00  0.00    +0.031 A 
ATOM     19  C   UNL     1      -0.379 -11.728   3.576  0.00  0.00    +0.025 A 
ATOM     20  C   UNL     1      -0.443 -13.079   3.305  0.00  0.00    +0.034 A 
ATOM     21  C   UNL     1      -0.318 -13.533   2.003  0.00  0.00    +0.126 A 
ATOM     22  C   UNL     1      -0.129 -12.634   0.968  0.00  0.00    +0.034 A 
ATOM     23  C   UNL     1      -0.069 -11.280   1.229  0.00  0.00    +0.025 A 
BRANCH  21  24
ATOM     24  N   UNL     1      -0.387 -14.983   1.718  0.00  0.00    +0.056 N 
ATOM     25  O   UNL     1      -0.567 -15.840   2.701  0.00  0.00    -0.126 OA
ATOM     26  O   UNL     1      -0.268 -15.417   0.480  0.00  0.00    -0.126 OA
ENDBRANCH  21  24
ENDBRANCH  16  18
ENDBRANCH   2  16
BRANCH   1  27
ATOM     27  C   UNL     1      -0.223  -6.728   3.424  0.00  0.00    +0.103 C 
ATOM     28  N   UNL     1      -0.305  -6.360   4.495  0.00  0.00    -0.191 NA
ENDBRANCH   1  27
TORSDOF 6
