REMARK  Name = ZINC39676985
REMARK  8 active torsions:
REMARK  status: ('A' for Active; 'I' for Inactive)
REMARK    1  A    between atoms: C_1  and  C_2
REMARK    2  A    between atoms: C_5  and  C_35
REMARK    3  A    between atoms: C_6  and  C_8
REMARK    4  A    between atoms: C_8  and  C_9
REMARK    5  A    between atoms: C_9  and  N_10
REMARK    6  A    between atoms: C_11  and  C_13
REMARK    7  A    between atoms: C_24  and  C_26
REMARK    8  A    between atoms: C_32  and  C_34
REMARK                            x       y       z     vdW  Elec       q    Type
REMARK                         _______ _______ _______ _____ _____    ______ ____
ROOT
ATOM      1  C   UNL     1       2.760  -5.179   6.004  0.00  0.00    +0.100 C 
ATOM      2  C   UNL     1       1.895  -6.453   5.876  0.00  0.00    +0.121 C 
ATOM      3  N   UNL     1       2.853  -7.520   5.501  0.00  0.00    -0.300 N 
ATOM      4  C   UNL     1       4.061  -7.231   6.310  0.00  0.00    +0.115 C 
ATOM      5  C   UNL     1       4.180  -5.694   6.293  0.00  0.00    -0.004 C 
ATOM      6  C   UNL     1       4.661  -5.186   7.649  0.00  0.00    -0.010 C 
ATOM      7  C   UNL     1       6.096  -5.662   7.888  0.00  0.00    -0.082 C 
ATOM      8  N   UNL     1       6.966  -5.158   6.817  0.00  0.00    +0.379 N 
ATOM      9  C   UNL     1       6.553  -5.725   5.528  0.00  0.00    -0.082 C 
ATOM     10  C   UNL     1       5.137  -5.252   5.189  0.00  0.00    -0.010 C 
ATOM     11  C   UNL     1       2.667  -8.526   4.624  0.00  0.00    +0.219 C 
ATOM     12  O   UNL     1       3.554  -9.328   4.425  0.00  0.00    -0.275 OA
ATOM     13  H   UNL     1       6.899  -4.152   6.777  0.00  0.00    -0.086 HD
ATOM     14  H   UNL     1       7.921  -5.421   7.009  0.00  0.00    -0.086 HD
ENDROOT
BRANCH  11  15
ATOM     15  C   UNL     1       1.356  -8.655   3.892  0.00  0.00    +0.078 C 
ATOM     16  C   UNL     1       0.222  -8.831   4.904  0.00  0.00    +0.032 C 
ATOM     17  C   UNL     1      -1.113  -8.926   4.158  0.00  0.00    +0.108 C 
ATOM     18  N   UNL     1      -1.021 -10.002   3.162  0.00  0.00    -0.302 N 
ATOM     19  C   UNL     1       0.086  -9.979   2.197  0.00  0.00    +0.108 C 
ATOM     20  C   UNL     1       1.407  -9.871   2.965  0.00  0.00    +0.032 C 
ATOM     21  C   UNL     1      -1.936 -10.992   3.134  0.00  0.00    +0.212 C 
ATOM     22  O   UNL     1      -1.793 -11.928   2.376  0.00  0.00    -0.276 OA
ATOM     23  C   UNL     1      -3.135 -10.935   4.044  0.00  0.00    +0.109 C 
ENDBRANCH  11  15
BRANCH   1  25
ATOM     24  N   UNL     1       2.864  -3.056   4.739  0.00  0.00    -0.315 N 
ATOM     25  C   UNL     1       2.737  -4.397   4.716  0.00  0.00    +0.218 C 
ATOM     26  O   UNL     1       2.605  -4.975   3.658  0.00  0.00    -0.275 OA
ATOM     27  H   UNL     1       2.970  -2.593   5.586  0.00  0.00    +0.149 HD
BRANCH  24  28
ATOM     28  C   UNL     1       2.841  -2.296   3.487  0.00  0.00    +0.109 C 
BRANCH  28  29
ATOM     29  C   UNL     1       3.003  -0.805   3.792  0.00  0.00    +0.054 C 
BRANCH  29  35
ATOM     30  C   UNL     1       5.438   1.401   0.018  0.00  0.00    +0.044 C 
ATOM     31  C   UNL     1       4.145   1.033   0.699  0.00  0.00    -0.050 A 
ATOM     32  C   UNL     1       2.938   1.412   0.142  0.00  0.00    +0.003 A 
ATOM     33  C   UNL     1       1.752   1.075   0.766  0.00  0.00    +0.004 A 
ATOM     34  C   UNL     1       1.773   0.357   1.948  0.00  0.00    -0.047 A 
ATOM     35  C   UNL     1       2.980  -0.023   2.504  0.00  0.00    -0.043 A 
ATOM     36  C   UNL     1       4.166   0.311   1.877  0.00  0.00    +0.007 A 
ATOM     37  C   UNL     1       0.480  -0.011   2.630  0.00  0.00    +0.044 C 
ENDBRANCH  29  35
ENDBRANCH  28  29
ENDBRANCH  24  28
ENDBRANCH   1  25
TORSDOF 5
