REMARK  Name = ZINC09461634
REMARK  15 active torsions:
REMARK  status: ('A' for Active; 'I' for Inactive)
REMARK    1  A    between atoms: C_1  and  C_2
REMARK    2  A    between atoms: C_2  and  C_3
REMARK    3  A    between atoms: C_3  and  C_4
REMARK    4  A    between atoms: C_4  and  O_5
REMARK    5  A    between atoms: O_5  and  C_6
REMARK    6  A    between atoms: C_6  and  C_8
REMARK    7  A    between atoms: C_9  and  N_33
REMARK    8  A    between atoms: C_11  and  C_32
REMARK    9  A    between atoms: C_12  and  C_26
REMARK   10  A    between atoms: N_20  and  C_23
REMARK   11  A    between atoms: C_23  and  C_24
REMARK   12  A    between atoms: C_26  and  O_28
REMARK   13  A    between atoms: O_28  and  C_29
REMARK   14  A    between atoms: C_29  and  C_30
REMARK   15  A    between atoms: C_29  and  C_31
REMARK                            x       y       z     vdW  Elec       q    Type
REMARK                         _______ _______ _______ _____ _____    ______ ____
ROOT
ATOM      1  C   UNL     1      -2.674   3.660   0.983  0.00  0.00    +0.117 C 
ATOM      2  C   UNL     1      -3.691   2.759   1.060  0.00  0.00    +0.195 C 
ATOM      3  O   UNL     1      -3.557   1.506   0.597  0.00  0.00    -0.446 OA
ATOM      4  C   UNL     1      -2.333   0.998   0.391  0.00  0.00    +0.116 C 
ATOM      5  C   UNL     1      -1.246   1.775   0.281  0.00  0.00    +0.098 C 
ATOM      6  C   UNL     1      -1.358   3.269   0.375  0.00  0.00    +0.145 C 
ATOM      7  C   UNL     1      -1.201   3.897  -0.988  0.00  0.00    -0.002 A 
ATOM      8  C   UNL     1      -1.917   3.792  -2.159  0.00  0.00    +0.007 A 
ATOM      9  C   UNL     1      -1.521   4.506  -3.277  0.00  0.00    +0.000 A 
ATOM     10  C   UNL     1      -0.408   5.324  -3.212  0.00  0.00    +0.002 A 
ATOM     11  C   UNL     1       0.310   5.432  -2.039  0.00  0.00    +0.024 A 
ATOM     12  C   UNL     1      -0.081   4.716  -0.910  0.00  0.00    +0.041 A 
ATOM     13  N   UNL     1       0.472   4.657   0.370  0.00  0.00    -0.266 N 
ATOM     14  C   UNL     1      -0.215   3.835   1.183  0.00  0.00    +0.240 C 
ATOM     15  O   UNL     1       0.036   3.593   2.345  0.00  0.00    -0.274 OA
ATOM     16  C   UNL     1      -2.172  -0.497   0.286  0.00  0.00    +0.087 C 
ENDROOT
BRANCH   2  17
ATOM     17  N   UNL     1      -4.879   3.140   1.622  0.00  0.00    -0.329 N 
ATOM     18  H   UNL     1      -5.016   4.062   1.890  0.00  0.00    +0.145 HD
ATOM     19  H   UNL     1      -5.585   2.488   1.753  0.00  0.00    +0.145 HD
ENDBRANCH   2  17
BRANCH   1  20
ATOM     20  C   UNL     1      -2.857   4.962   1.476  0.00  0.00    +0.342 C 
ATOM     21  O   UNL     1      -3.070   5.880   0.705  0.00  0.00    -0.245 OA
BRANCH  20  22
ATOM     22  O   UNL     1      -2.796   5.195   2.805  0.00  0.00    -0.461 OA
BRANCH  22  23
ATOM     23  C   UNL     1      -3.105   6.519   3.245  0.00  0.00    +0.232 C 
BRANCH  23  24
ATOM     24  C   UNL     1      -2.872   6.622   4.754  0.00  0.00    +0.041 C 
BRANCH  24  26
ATOM     25  C   UNL     1      -3.084   8.103   6.755  0.00  0.00    +0.004 C 
ATOM     26  C   UNL     1      -3.317   8.001   5.246  0.00  0.00    -0.000 C 
ENDBRANCH  24  26
ENDBRANCH  23  24
ENDBRANCH  22  23
ENDBRANCH  20  22
ENDBRANCH   1  20
BRANCH   5  27
ATOM     27  C   UNL     1       0.022   1.180   0.069  0.00  0.00    +0.340 C 
ATOM     28  O   UNL     1       0.506   1.162  -1.047  0.00  0.00    -0.245 OA
BRANCH  27  29
ATOM     29  O   UNL     1       0.695   0.638   1.105  0.00  0.00    -0.459 OA
BRANCH  29  30
ATOM     30  C   UNL     1       1.970   0.061   0.819  0.00  0.00    +0.171 C 
ATOM     31  C   UNL     1       2.873   0.185   2.048  0.00  0.00    +0.052 C 
ATOM     32  C   UNL     1       1.793  -1.417   0.463  0.00  0.00    +0.052 C 
ENDBRANCH  29  30
ENDBRANCH  27  29
ENDBRANCH   5  27
BRANCH  13  33
ATOM     33  C   UNL     1       1.663   5.405   0.782  0.00  0.00    +0.140 C 
BRANCH  33  34
ATOM     34  C   UNL     1       1.244   6.699   1.430  0.00  0.00    -0.015 C 
ATOM     35  C   UNL     1       1.655   6.990   2.639  0.00  0.00    +0.005 C 
ENDBRANCH  33  34
ENDBRANCH  13  33
TORSDOF 11
