REMARK  Name = ZINC57043384
REMARK  10 active torsions:
REMARK  status: ('A' for Active; 'I' for Inactive)
REMARK    1  A    between atoms: C_1  and  C_2
REMARK    2  A    between atoms: C_2  and  C_4
REMARK    3  A    between atoms: C_2  and  C_23
REMARK    4  A    between atoms: C_4  and  N_5
REMARK    5  A    between atoms: N_8  and  N_9
REMARK    6  A    between atoms: C_10  and  C_12
REMARK    7  A    between atoms: C_12  and  C_14
REMARK    8  A    between atoms: C_12  and  O_15
REMARK    9  A    between atoms: O_15  and  C_16
REMARK   10  A    between atoms: C_23  and  N_24
REMARK                            x       y       z     vdW  Elec       q    Type
REMARK                         _______ _______ _______ _____ _____    ______ ____
ROOT
ATOM      1  N   UNL     1      -2.337  -0.911  -1.489  0.00  0.00    -0.298 N 
ATOM      2  C   UNL     1      -3.663  -1.044  -1.686  0.00  0.00    +0.316 C 
ATOM      3  O   UNL     1      -4.339  -1.657  -0.882  0.00  0.00    -0.251 OA
ATOM      4  N   UNL     1      -4.241  -0.498  -2.774  0.00  0.00    -0.218 N 
ATOM      5  H   UNL     1      -1.798  -0.422  -2.130  0.00  0.00    +0.150 HD
ATOM      6  H   UNL     1      -5.196  -0.594  -2.916  0.00  0.00    +0.174 HD
ENDROOT
BRANCH   4   7
ATOM      7  N   UNL     1      -3.463   0.208  -3.701  0.00  0.00    -0.230 N 
ATOM      8  C   UNL     1      -4.040   0.754  -4.789  0.00  0.00    +0.270 C 
ATOM      9  O   UNL     1      -5.234   0.634  -4.967  0.00  0.00    -0.270 OA
ATOM     10  H   UNL     1      -2.508   0.304  -3.559  0.00  0.00    +0.173 HD
BRANCH   8  11
ATOM     11  C   UNL     1      -3.203   1.514  -5.786  0.00  0.00    +0.257 C 
ATOM     12  C   UNL     1      -2.632   2.768  -5.121  0.00  0.00    +0.062 C 
BRANCH  11  13
ATOM     13  O   UNL     1      -4.014   1.892  -6.900  0.00  0.00    -0.477 OA
BRANCH  13  14
ATOM     14  C   UNL     1      -3.379   2.101  -8.083  0.00  0.00    +0.157 A 
ATOM     15  C   UNL     1      -1.994   2.057  -8.146  0.00  0.00    +0.048 A 
ATOM     16  C   UNL     1      -1.351   2.269  -9.350  0.00  0.00    +0.004 A 
ATOM     17  C   UNL     1      -2.085   2.526 -10.493  0.00  0.00    +0.003 A 
ATOM     18  C   UNL     1      -3.466   2.571 -10.435  0.00  0.00    +0.042 A 
ATOM     19  C   UNL     1      -4.116   2.353  -9.234  0.00  0.00    +0.165 A 
ATOM     20  F   UNL     1      -5.465   2.390  -9.178  0.00  0.00    -0.202 F 
ENDBRANCH  13  14
ENDBRANCH  11  13
ENDBRANCH   8  11
ENDBRANCH   4   7
BRANCH   1  21
ATOM     21  C   UNL     1      -1.709  -1.504  -0.306  0.00  0.00    +0.107 C 
BRANCH  21  23
ATOM     22  C   UNL     1       0.017   0.299  -0.187  0.00  0.00    +0.007 C 
ATOM     23  C   UNL     1      -0.208  -1.209  -0.323  0.00  0.00    -0.014 C 
BRANCH  23  24
ATOM     24  C   UNL     1       0.468  -1.932   0.844  0.00  0.00    -0.074 C 
BRANCH  24  25
ATOM     25  N   UNL     1       1.923  -1.747   0.759  0.00  0.00    +0.380 N 
ATOM     26  C   UNL     1       2.427  -2.397  -0.457  0.00  0.00    -0.079 C 
ATOM     27  C   UNL     1       3.929  -2.138  -0.592  0.00  0.00    -0.019 C 
ATOM     28  C   UNL     1       4.652  -2.708   0.631  0.00  0.00    -0.004 C 
ATOM     29  C   UNL     1       4.067  -2.077   1.898  0.00  0.00    -0.019 C 
ATOM     30  C   UNL     1       2.560  -2.338   1.941  0.00  0.00    -0.079 C 
ATOM     31  H   UNL     1       2.133  -0.761   0.722  0.00  0.00    -0.082 HD
ENDBRANCH  24  25
ENDBRANCH  23  24
ENDBRANCH  21  23
ENDBRANCH   1  21
TORSDOF 8
