REMARK  Name = ZINC50671553
REMARK  8 active torsions:
REMARK  status: ('A' for Active; 'I' for Inactive)
REMARK    1  A    between atoms: C_1  and  C_2
REMARK    2  A    between atoms: C_2  and  C_3
REMARK    3  A    between atoms: C_3  and  C_5
REMARK    4  A    between atoms: C_3  and  N_8
REMARK    5  A    between atoms: C_5  and  C_6
REMARK    6  A    between atoms: C_5  and  C_7
REMARK    7  A    between atoms: N_8  and  S_9
REMARK    8  A    between atoms: S_9  and  C_12
REMARK                            x       y       z     vdW  Elec       q    Type
REMARK                         _______ _______ _______ _____ _____    ______ ____
ROOT
ATOM      1  S   UNL     1      -3.439   0.767   1.392  0.00  0.00    +0.060 S 
ATOM      2  O   UNL     1      -3.804   0.960   2.752  0.00  0.00    -0.153 OA
ATOM      3  O   UNL     1      -3.278   1.850   0.486  0.00  0.00    -0.153 OA
ENDROOT
BRANCH   1   4
ATOM      4  C   UNL     1      -4.653  -0.299   0.691  0.00  0.00    +0.123 A 
ATOM      5  C   UNL     1      -4.880  -0.300  -0.679  0.00  0.00    +0.033 A 
ATOM      6  C   UNL     1      -5.842  -1.152  -1.189  0.00  0.00    +0.045 A 
ATOM      7  C   UNL     1      -6.547  -1.976  -0.317  0.00  0.00    +0.116 A 
ATOM      8  N   UNL     1      -6.301  -1.947   0.984  0.00  0.00    -0.239 NA
ATOM      9  C   UNL     1      -5.385  -1.148   1.497  0.00  0.00    +0.141 A 
ATOM     10  N   UNL     1      -7.517  -2.838  -0.816  0.00  0.00    -0.343 N 
ATOM     11  H   UNL     1      -7.700  -2.863  -1.768  0.00  0.00    +0.144 HD
ATOM     12  H   UNL     1      -8.010  -3.414  -0.211  0.00  0.00    +0.144 HD
ENDBRANCH   1   4
BRANCH   1  13
ATOM     13  N   UNL     1      -2.005  -0.061   1.399  0.00  0.00    -0.187 NA
ATOM     14  H   UNL     1      -1.586  -0.298   2.240  0.00  0.00    +0.148 HD
BRANCH  13  15
ATOM     15  C   UNL     1      -1.369  -0.435   0.133  0.00  0.00    +0.079 C 
BRANCH  15  16
ATOM     16  C   UNL     1      -1.363  -1.959  -0.004  0.00  0.00    +0.001 C 
ATOM     17  C   UNL     1      -0.700  -2.350  -1.326  0.00  0.00    +0.009 C 
ATOM     18  C   UNL     1      -0.583  -2.572   1.160  0.00  0.00    +0.009 C 
ENDBRANCH  15  16
BRANCH  15  20
ATOM     19  C   UNL     1       0.060   1.614   0.124  0.00  0.00    +0.005 C 
ATOM     20  C   UNL     1       0.070   0.084   0.112  0.00  0.00    +0.017 C 
ENDBRANCH  15  20
ENDBRANCH  13  15
ENDBRANCH   1  13
TORSDOF 5
