REMARK  Name = ZINC08276651
REMARK  6 active torsions:
REMARK  status: ('A' for Active; 'I' for Inactive)
REMARK    1  A    between atoms: C_1  and  C_2
REMARK    2  A    between atoms: C_6  and  C_8
REMARK    3  A    between atoms: C_8  and  O_10
REMARK    4  A    between atoms: O_10  and  C_11
REMARK    5  A    between atoms: C_11  and  C_13
REMARK    6  A    between atoms: C_11  and  C_19
REMARK                            x       y       z     vdW  Elec       q    Type
REMARK                         _______ _______ _______ _____ _____    ______ ____
ROOT
ATOM      1  C   UNL     1       0.983   7.504   0.038  0.00  0.00    +0.292 C 
ENDROOT
BRANCH   1   2
ATOM      2  C   UNL     1       2.396   7.915   0.363  0.00  0.00    +0.261 C 
ATOM      3  O   UNL     1       3.310   7.138   0.183  0.00  0.00    -0.271 OA
ATOM      4  N   UNL     1       2.644   9.146   0.854  0.00  0.00    -0.298 N 
ATOM      5  C   UNL     1       1.539  10.057   1.182  0.00  0.00    +0.108 C 
ATOM      6  C   UNL     1       1.711  10.530   2.634  0.00  0.00    +0.019 C 
ATOM      7  C   UNL     1       3.103  11.144   2.803  0.00  0.00    +0.003 C 
ATOM      8  C   UNL     1       4.168  10.084   2.512  0.00  0.00    +0.019 C 
ATOM      9  C   UNL     1       4.024   9.604   1.065  0.00  0.00    +0.108 C 
ENDBRANCH   1   2
BRANCH   1  10
ATOM     10  C   UNL     1       0.534   8.201  -1.220  0.00  0.00    +0.002 A 
ATOM     11  C   UNL     1       0.999   7.774  -2.450  0.00  0.00    +0.008 A 
ATOM     12  C   UNL     1       0.583   8.411  -3.605  0.00  0.00    +0.000 A 
ATOM     13  C   UNL     1      -0.290   9.481  -3.528  0.00  0.00    +0.000 A 
ATOM     14  C   UNL     1      -0.751   9.910  -2.298  0.00  0.00    +0.000 A 
ATOM     15  C   UNL     1      -0.339   9.270  -1.144  0.00  0.00    +0.008 A 
ENDBRANCH   1  10
BRANCH   1  16
ATOM     16  O   UNL     1       0.931   6.066  -0.160  0.00  0.00    -0.444 OA
BRANCH  16  17
ATOM     17  C   UNL     1      -0.224   5.447   0.153  0.00  0.00    +0.340 C 
ATOM     18  O   UNL     1      -1.161   6.090   0.581  0.00  0.00    -0.245 OA
BRANCH  17  24
ATOM     19  C   UNL     1      -2.950   1.281   0.470  0.00  0.00    +0.044 C 
ATOM     20  C   UNL     1      -1.658   1.977   0.128  0.00  0.00    -0.050 A 
ATOM     21  C   UNL     1      -0.586   1.246  -0.353  0.00  0.00    +0.003 A 
ATOM     22  C   UNL     1       0.601   1.879  -0.675  0.00  0.00    +0.001 A 
ATOM     23  C   UNL     1       0.726   3.243  -0.513  0.00  0.00    +0.015 A 
ATOM     24  C   UNL     1      -0.350   3.986  -0.023  0.00  0.00    +0.059 A 
ATOM     25  C   UNL     1      -1.545   3.341   0.301  0.00  0.00    +0.018 A 
ENDBRANCH  17  24
ENDBRANCH  16  17
ENDBRANCH   1  16
TORSDOF 5
