REMARK  Name = ZINC13064961
REMARK  12 active torsions:
REMARK  status: ('A' for Active; 'I' for Inactive)
REMARK    1  A    between atoms: C_1  and  C_2
REMARK    2  A    between atoms: C_2  and  C_3
REMARK    3  A    between atoms: C_3  and  C_5
REMARK    4  A    between atoms: C_3  and  N_69
REMARK    5  A    between atoms: N_9  and  C_10
REMARK    6  A    between atoms: C_10  and  C_11
REMARK    7  A    between atoms: C_16  and  C_17
REMARK    8  A    between atoms: C_16  and  N_69
REMARK    9  A    between atoms: C_26  and  C_27
REMARK   10  A    between atoms: C_26  and  N_69
REMARK   11  A    between atoms: C_30  and  C_40
REMARK   12  A    between atoms: C_32  and  C_39
REMARK                            x       y       z     vdW  Elec       q    Type
REMARK                         _______ _______ _______ _____ _____    ______ ____
ROOT
ATOM      1  N   UNL     1       1.237   3.107  -1.002  0.00  0.00    +0.392 N 
ATOM      2  H   UNL     1       1.733   2.833  -1.859  0.00  0.00    -0.080 HD
ENDROOT
BRANCH   1   3
ATOM      3  C   UNL     1       1.434   2.058   0.021  0.00  0.00    +0.003 C 
BRANCH   3   4
ATOM      4  C   UNL     1       1.170   0.713  -0.607  0.00  0.00    +0.139 A 
ATOM      5  N   UNL     1       0.159   0.395  -1.379  0.00  0.00    -0.115 NA
ATOM      6  N   UNL     1       0.288  -0.843  -1.712  0.00  0.00    -0.023 NA
ATOM      7  N   UNL     1       1.355  -1.322  -1.173  0.00  0.00    -0.044 NA
ATOM      8  N   UNL     1       1.926  -0.393  -0.484  0.00  0.00    -0.223 N 
BRANCH   8   9
ATOM      9  C   UNL     1       3.165  -0.519   0.287  0.00  0.00    +0.221 C 
BRANCH   9  10
ATOM     10  C   UNL     1       4.340  -0.176  -0.591  0.00  0.00    +0.126 A 
ATOM     11  C   UNL     1       4.870   1.050  -0.753  0.00  0.00    +0.046 A 
ATOM     12  C   UNL     1       5.950   0.914  -1.655  0.00  0.00    +0.041 A 
ATOM     13  C   UNL     1       6.011  -0.386  -1.997  0.00  0.00    +0.195 A 
ATOM     14  O   UNL     1       5.034  -1.041  -1.349  0.00  0.00    -0.466 OA
ENDBRANCH   9  10
ENDBRANCH   8   9
ENDBRANCH   3   4
BRANCH   3  16
ATOM     15  C   UNL     1       0.875   3.535   1.956  0.00  0.00    +0.002 C 
ATOM     16  C   UNL     1       0.476   2.269   1.196  0.00  0.00    -0.011 C 
ENDBRANCH   3  16
ENDBRANCH   1   3
BRANCH   1  17
ATOM     17  C   UNL     1      -0.202   3.253  -1.305  0.00  0.00    -0.041 C 
BRANCH  17  18
ATOM     18  C   UNL     1      -0.347   3.958  -2.629  0.00  0.00    -0.060 A 
ATOM     19  C   UNL     1      -0.472   5.335  -2.667  0.00  0.00    +0.005 A 
ATOM     20  C   UNL     1      -0.599   5.987  -3.880  0.00  0.00    +0.050 A 
ATOM     21  C   UNL     1      -0.614   5.260  -5.059  0.00  0.00    +0.166 A 
ATOM     22  C   UNL     1      -0.494   3.873  -5.021  0.00  0.00    +0.166 A 
ATOM     23  C   UNL     1      -0.360   3.227  -3.802  0.00  0.00    +0.051 A 
ATOM     24  O   UNL     1      -0.536   3.396  -6.299  0.00  0.00    -0.453 OA
ATOM     25  C   UNL     1      -1.093   4.463  -7.090  0.00  0.00    +0.466 C 
ATOM     26  O   UNL     1      -0.732   5.652  -6.362  0.00  0.00    -0.453 OA
ENDBRANCH  17  18
ENDBRANCH   1  17
BRANCH   1  27
ATOM     27  C   UNL     1       1.785   4.392  -0.519  0.00  0.00    -0.036 C 
BRANCH  27  28
ATOM     28  C   UNL     1       3.273   4.401  -0.759  0.00  0.00    +0.001 A 
ATOM     29  C   UNL     1       3.767   4.882  -1.926  0.00  0.00    +0.017 A 
ATOM     30  C   UNL     1       5.217   4.877  -2.128  0.00  0.00    +0.002 A 
ATOM     31  C   UNL     1       5.785   5.361  -3.311  0.00  0.00    -0.041 A 
ATOM     32  C   UNL     1       7.142   5.343  -3.468  0.00  0.00    +0.007 A 
ATOM     33  C   UNL     1       7.962   4.848  -2.463  0.00  0.00    -0.048 A 
ATOM     34  C   UNL     1       7.425   4.366  -1.289  0.00  0.00    +0.029 A 
ATOM     35  C   UNL     1       6.046   4.375  -1.107  0.00  0.00    +0.050 A 
ATOM     36  N   UNL     1       5.481   3.900   0.058  0.00  0.00    -0.322 N 
ATOM     37  H   UNL     1       6.053   3.554   0.760  0.00  0.00    +0.169 HD
ATOM     38  C   UNL     1       4.148   3.914   0.236  0.00  0.00    +0.251 A 
ATOM     39  O   UNL     1       3.684   3.490   1.280  0.00  0.00    -0.268 OA
ATOM     40  C   UNL     1       9.457   4.838  -2.658  0.00  0.00    +0.044 C 
ATOM     41  C   UNL     1       4.903   5.900  -4.408  0.00  0.00    +0.044 C 
ENDBRANCH  27  28
ENDBRANCH   1  27
TORSDOF 9
