REMARK  Name = ZINC09066988
REMARK  12 active torsions:
REMARK  status: ('A' for Active; 'I' for Inactive)
REMARK    1  A    between atoms: C_1  and  C_2
REMARK    2  A    between atoms: C_2  and  N_61
REMARK    3  A    between atoms: C_3  and  C_4
REMARK    4  A    between atoms: C_3  and  N_61
REMARK    5  A    between atoms: C_5  and  C_6
REMARK    6  A    between atoms: C_5  and  N_61
REMARK    7  A    between atoms: C_6  and  N_7
REMARK    8  A    between atoms: C_8  and  C_28
REMARK    9  A    between atoms: C_11  and  C_12
REMARK   10  A    between atoms: C_11  and  O_23
REMARK   11  A    between atoms: C_18  and  O_21
REMARK   12  A    between atoms: O_21  and  C_22
REMARK                            x       y       z     vdW  Elec       q    Type
REMARK                         _______ _______ _______ _____ _____    ______ ____
ROOT
ATOM      1  N   UNL     1       1.053   2.019   0.628  0.00  0.00    -0.285 N 
ATOM      2  C   UNL     1       0.638   3.393   0.332  0.00  0.00    +0.144 C 
ATOM      3  C   UNL     1      -0.873   3.397   0.327  0.00  0.00    +0.074 C 
ATOM      4  C   UNL     1      -1.701   4.483   0.093  0.00  0.00    +0.168 C 
ATOM      5  C   UNL     1      -1.268   2.082   0.602  0.00  0.00    +0.249 C 
ATOM      6  O   UNL     1      -2.416   1.682   0.678  0.00  0.00    -0.282 OA
ATOM      7  C   UNL     1      -0.044   1.258   0.788  0.00  0.00    +0.288 C 
ATOM      8  O   UNL     1      -0.036   0.071   1.042  0.00  0.00    -0.266 OA
ENDROOT
BRANCH   4   9
ATOM      9  C   UNL     1      -3.149   4.294   0.016  0.00  0.00    +0.171 A 
ATOM     10  C   UNL     1      -4.079   5.060   0.654  0.00  0.00    +0.061 A 
ATOM     11  C   UNL     1      -5.350   4.537   0.309  0.00  0.00    +0.025 A 
ATOM     12  C   UNL     1      -6.664   4.887   0.644  0.00  0.00    +0.012 A 
ATOM     13  C   UNL     1      -7.709   4.169   0.137  0.00  0.00    +0.004 A 
ATOM     14  C   UNL     1      -7.481   3.092  -0.709  0.00  0.00    +0.049 A 
ATOM     15  C   UNL     1      -6.192   2.728  -1.053  0.00  0.00    +0.163 A 
ATOM     16  C   UNL     1      -5.111   3.447  -0.547  0.00  0.00    +0.177 A 
ATOM     17  O   UNL     1      -3.775   3.338  -0.704  0.00  0.00    -0.448 OA
BRANCH  15  18
ATOM     18  O   UNL     1      -5.980   1.671  -1.883  0.00  0.00    -0.491 OA
ATOM     19  C   UNL     1      -7.136   0.982  -2.363  0.00  0.00    +0.277 C 
ENDBRANCH  15  18
ENDBRANCH   4   9
BRANCH   2  20
ATOM     20  C   UNL     1       1.154   4.328   1.396  0.00  0.00    -0.022 A 
ATOM     21  C   UNL     1       1.131   3.944   2.724  0.00  0.00    +0.008 A 
ATOM     22  C   UNL     1       1.608   4.798   3.700  0.00  0.00    +0.038 A 
ATOM     23  C   UNL     1       2.100   6.044   3.348  0.00  0.00    +0.123 A 
ATOM     24  C   UNL     1       2.118   6.430   2.019  0.00  0.00    +0.038 A 
ATOM     25  C   UNL     1       1.645   5.572   1.044  0.00  0.00    +0.008 A 
ATOM     26  F   UNL     1       2.562   6.882   4.302  0.00  0.00    -0.205 F 
ENDBRANCH   2  20
BRANCH   4  27
ATOM     27  O   UNL     1      -1.171   5.716  -0.065  0.00  0.00    -0.503 OA
ATOM     28  H   UNL     1      -1.905   6.376  -0.225  0.00  0.00    +0.292 HD
ENDBRANCH   4  27
BRANCH   1  29
ATOM     29  C   UNL     1       2.437   1.550   0.733  0.00  0.00    +0.090 C 
BRANCH  29  30
ATOM     30  C   UNL     1       2.923   1.086  -0.641  0.00  0.00    -0.060 C 
BRANCH  30  31
ATOM     31  N   UNL     1       4.326   0.636  -0.524  0.00  0.00    +0.380 N 
ATOM     32  H   UNL     1       4.875   1.373  -0.064  0.00  0.00    -0.082 HD
BRANCH  31  34
ATOM     33  C   UNL     1       3.630  -1.732  -0.387  0.00  0.00    -0.017 C 
ATOM     34  C   UNL     1       4.396  -0.594   0.292  0.00  0.00    -0.082 C 
ENDBRANCH  31  34
BRANCH  31  35
ATOM     35  C   UNL     1       4.891   0.385  -1.867  0.00  0.00    -0.082 C 
ATOM     36  C   UNL     1       6.412   0.275  -1.748  0.00  0.00    -0.017 C 
ENDBRANCH  31  35
ENDBRANCH  30  31
ENDBRANCH  29  30
ENDBRANCH   1  29
TORSDOF 9
