REMARK  Name = ZINC08443454
REMARK  6 active torsions:
REMARK  status: ('A' for Active; 'I' for Inactive)
REMARK    1  A    between atoms: C_3  and  C_10
REMARK    2  A    between atoms: C_5  and  N_7
REMARK    3  A    between atoms: N_14  and  C_15
REMARK    4  A    between atoms: C_19  and  C_21
REMARK    5  A    between atoms: N_25  and  C_26
REMARK    6  A    between atoms: C_26  and  C_27
REMARK                            x       y       z     vdW  Elec       q    Type
REMARK                         _______ _______ _______ _____ _____    ______ ____
ROOT
ATOM      1  C   UNL     1      -5.824   2.040   0.344  0.00  0.00    +0.058 A 
ATOM      2  C   UNL     1      -5.582   3.436   0.355  0.00  0.00    +0.075 A 
ATOM      3  S   UNL     1      -3.857   3.511   0.176  0.00  0.00    -0.059 S 
ATOM      4  C   UNL     1      -3.531   1.758   0.096  0.00  0.00    +0.152 A 
ATOM      5  N   UNL     1      -2.375   1.137  -0.042  0.00  0.00    -0.336 N 
ATOM      6  N   UNL     1      -4.789   1.222   0.209  0.00  0.00    -0.316 N 
ATOM      7  H   UNL     1      -2.349   0.043  -0.158  0.00  0.00    +0.168 HD
ENDROOT
BRANCH   1  10
ATOM      8  C   UNL     1      -9.275   1.403   1.663  0.00  0.00    +0.003 A 
ATOM      9  C   UNL     1      -7.997   1.903   1.551  0.00  0.00    +0.010 A 
ATOM     10  C   UNL     1      -7.188   1.512   0.474  0.00  0.00    +0.001 A 
ATOM     11  C   UNL     1      -7.692   0.618  -0.483  0.00  0.00    +0.042 A 
ATOM     12  C   UNL     1      -8.971   0.125  -0.351  0.00  0.00    +0.127 A 
ATOM     13  C   UNL     1      -9.763   0.517   0.717  0.00  0.00    +0.033 A 
BRANCH  12  14
ATOM     14  N   UNL     1      -9.504  -0.822  -1.356  0.00  0.00    +0.056 N 
ATOM     15  O   UNL     1     -10.728  -1.292  -1.234  0.00  0.00    -0.126 OA
ATOM     16  O   UNL     1      -8.753  -1.196  -2.372  0.00  0.00    -0.126 OA
ENDBRANCH  12  14
ENDBRANCH   1  10
BRANCH   5  17
ATOM     17  C   UNL     1      -1.229   1.840  -0.042  0.00  0.00    +0.042 A 
ATOM     18  C   UNL     1      -0.599   2.170   1.175  0.00  0.00    +0.026 A 
ATOM     19  C   UNL     1       0.562   2.890   1.163  0.00  0.00    +0.003 A 
ATOM     20  C   UNL     1       1.123   3.291  -0.041  0.00  0.00    +0.012 A 
ATOM     21  C   UNL     1       0.515   2.967  -1.245  0.00  0.00    +0.057 A 
ATOM     22  C   UNL     1      -0.646   2.248  -1.257  0.00  0.00    +0.038 A 
BRANCH  21  23
ATOM     23  C   UNL     1       1.138   3.410  -2.543  0.00  0.00    +0.417 C 
ATOM     24  F   UNL     1       0.636   4.667  -2.896  0.00  0.00    -0.166 F 
ATOM     25  F   UNL     1       2.527   3.487  -2.392  0.00  0.00    -0.166 F 
ATOM     26  F   UNL     1       0.829   2.486  -3.548  0.00  0.00    -0.166 F 
ENDBRANCH  21  23
ENDBRANCH   5  17
BRANCH   6  27
ATOM     27  C   UNL     1      -4.984  -0.230   0.185  0.00  0.00    +0.159 C 
BRANCH  27  28
ATOM     28  C   UNL     1      -4.790  -0.786   1.572  0.00  0.00    -0.024 A 
ATOM     29  C   UNL     1      -3.519  -1.103   2.016  0.00  0.00    +0.009 A 
ATOM     30  C   UNL     1      -3.335  -1.610   3.289  0.00  0.00    +0.050 A 
ATOM     31  C   UNL     1      -4.426  -1.810   4.120  0.00  0.00    +0.166 A 
ATOM     32  C   UNL     1      -5.706  -1.496   3.671  0.00  0.00    +0.167 A 
ATOM     33  C   UNL     1      -5.883  -0.984   2.395  0.00  0.00    +0.055 A 
ATOM     34  O   UNL     1      -6.599  -1.781   4.663  0.00  0.00    -0.453 OA
ATOM     35  C   UNL     1      -5.815  -1.888   5.866  0.00  0.00    +0.466 C 
ATOM     36  O   UNL     1      -4.517  -2.292   5.394  0.00  0.00    -0.453 OA
ENDBRANCH  27  28
ENDBRANCH   6  27
TORSDOF 6
