REMARK  Name = ZINC04635020
REMARK  5 active torsions:
REMARK  status: ('A' for Active; 'I' for Inactive)
REMARK    1  A    between atoms: C_1  and  C_2
REMARK    2  A    between atoms: C_6  and  N_9
REMARK    3  A    between atoms: C_7  and  C_8
REMARK    4  A    between atoms: C_12  and  N_17
REMARK    5  A    between atoms: N_17  and  C_18
REMARK                            x       y       z     vdW  Elec       q    Type
REMARK                         _______ _______ _______ _____ _____    ______ ____
ROOT
ATOM      1  N   UNL     1       1.280  -0.421  -0.012  0.00  0.00    -0.200 N 
ATOM      2  C   UNL     1       2.107   0.641  -0.015  0.00  0.00    +0.273 C 
ATOM      3  O   UNL     1       3.320   0.599  -0.027  0.00  0.00    -0.268 OA
ATOM      4  C   UNL     1       1.276   1.874  -0.000  0.00  0.00    +0.115 C 
ATOM      5  C   UNL     1      -0.018   1.464   0.010  0.00  0.00    +0.129 C 
ATOM      6  C   UNL     1       0.002  -0.004   0.002  0.00  0.00    +0.271 C 
ATOM      7  O   UNL     1      -0.977  -0.725   0.008  0.00  0.00    -0.268 OA
ATOM      8 CL   UNL     1      -1.425   2.480   0.023  0.00  0.00    -0.076 Cl
ENDROOT
BRANCH   1  14
ATOM      9  C   UNL     1       2.544  -4.483   2.455  0.00  0.00    +0.044 C 
ATOM     10  C   UNL     1       2.310  -3.753   1.157  0.00  0.00    -0.046 A 
ATOM     11  C   UNL     1       2.500  -4.406  -0.047  0.00  0.00    +0.004 A 
ATOM     12  C   UNL     1       2.286  -3.740  -1.239  0.00  0.00    +0.002 A 
ATOM     13  C   UNL     1       1.876  -2.421  -1.231  0.00  0.00    +0.024 A 
ATOM     14  C   UNL     1       1.690  -1.761  -0.024  0.00  0.00    +0.048 A 
ATOM     15  C   UNL     1       1.905  -2.433   1.172  0.00  0.00    -0.026 A 
ATOM     16  C   UNL     1       1.698  -1.722   2.485  0.00  0.00    +0.046 C 
ENDBRANCH   1  14
BRANCH   4  17
ATOM     17  N   UNL     1       1.731   3.177   0.003  0.00  0.00    -0.336 N 
ATOM     18  H   UNL     1       2.812   3.382  -0.007  0.00  0.00    +0.147 HD
BRANCH  17  19
ATOM     19  C   UNL     1       0.774   4.286   0.018  0.00  0.00    +0.071 C 
ATOM     20  C   UNL     1       0.332   4.598  -1.413  0.00  0.00    +0.022 C 
ATOM     21  C   UNL     1      -0.667   5.757  -1.396  0.00  0.00    +0.002 C 
ATOM     22  C   UNL     1      -0.004   6.994  -0.786  0.00  0.00    +0.000 C 
ATOM     23  C   UNL     1       0.439   6.682   0.644  0.00  0.00    +0.002 C 
ATOM     24  C   UNL     1       1.438   5.523   0.628  0.00  0.00    +0.022 C 
ENDBRANCH  17  19
ENDBRANCH   4  17
TORSDOF 3
