REMARK  Name = ZINC08667036
REMARK  12 active torsions:
REMARK  status: ('A' for Active; 'I' for Inactive)
REMARK    1  A    between atoms: C_1  and  C_2
REMARK    2  A    between atoms: C_5  and  C_8
REMARK    3  A    between atoms: C_8  and  C_10
REMARK    4  A    between atoms: C_8  and  N_19
REMARK    5  A    between atoms: N_12  and  C_13
REMARK    6  A    between atoms: C_13  and  C_14
REMARK    7  A    between atoms: N_19  and  C_20
REMARK    8  A    between atoms: C_23  and  C_27
REMARK    9  A    between atoms: C_25  and  C_26
REMARK   10  A    between atoms: C_28  and  C_30
REMARK   11  A    between atoms: C_30  and  N_31
REMARK   12  A    between atoms: C_32  and  C_34
REMARK                            x       y       z     vdW  Elec       q    Type
REMARK                         _______ _______ _______ _____ _____    ______ ____
ROOT
ATOM      1  N   UNL     1       1.041  -4.667   1.008  0.00  0.00    -0.254 N 
ATOM      2  C   UNL     1       2.166  -5.325   0.665  0.00  0.00    +0.238 C 
ATOM      3  O   UNL     1       2.380  -5.595  -0.498  0.00  0.00    -0.274 OA
ENDROOT
BRANCH   1   4
ATOM      4  C   UNL     1       0.794  -4.356   2.350  0.00  0.00    +0.040 A 
ATOM      5  C   UNL     1       0.204  -5.296   3.185  0.00  0.00    +0.024 A 
ATOM      6  C   UNL     1      -0.038  -4.986   4.509  0.00  0.00    +0.005 A 
ATOM      7  C   UNL     1       0.306  -3.741   5.003  0.00  0.00    -0.050 A 
ATOM      8  C   UNL     1       0.893  -2.803   4.174  0.00  0.00    +0.008 A 
ATOM      9  C   UNL     1       1.143  -3.109   2.850  0.00  0.00    -0.029 A 
ATOM     10  C   UNL     1       1.789  -2.088   1.949  0.00  0.00    +0.045 C 
ATOM     11  C   UNL     1       0.040  -3.406   6.448  0.00  0.00    +0.044 C 
ENDBRANCH   1   4
BRANCH   1  12
ATOM     12  C   UNL     1       0.076  -4.278  -0.024  0.00  0.00    +0.197 C 
BRANCH  12  17
ATOM     13  C   UNL     1      -4.122  -1.102   2.361  0.00  0.00    +0.044 C 
ATOM     14  C   UNL     1      -3.027  -1.931   1.739  0.00  0.00    -0.050 A 
ATOM     15  C   UNL     1      -2.224  -1.387   0.754  0.00  0.00    +0.004 A 
ATOM     16  C   UNL     1      -1.219  -2.147   0.184  0.00  0.00    +0.006 A 
ATOM     17  C   UNL     1      -1.018  -3.450   0.599  0.00  0.00    -0.018 A 
ATOM     18  C   UNL     1      -1.821  -3.993   1.584  0.00  0.00    +0.006 A 
ATOM     19  C   UNL     1      -2.822  -3.232   2.158  0.00  0.00    +0.004 A 
ENDBRANCH  12  17
BRANCH  12  20
ATOM     20  C   UNL     1      -0.521  -5.515  -0.644  0.00  0.00    +0.239 C 
ATOM     21  O   UNL     1      -0.175  -6.613  -0.263  0.00  0.00    -0.273 OA
ATOM     22  N   UNL     1      -1.440  -5.400  -1.624  0.00  0.00    -0.306 N 
ATOM     23  H   UNL     1      -1.717  -4.522  -1.929  0.00  0.00    +0.149 HD
BRANCH  22  24
ATOM     24  C   UNL     1      -2.021  -6.602  -2.227  0.00  0.00    +0.178 C 
BRANCH  24  25
ATOM     25  C   UNL     1      -3.014  -6.202  -3.288  0.00  0.00    +0.122 A 
ATOM     26  C   UNL     1      -2.737  -6.007  -4.590  0.00  0.00    +0.046 A 
ATOM     27  C   UNL     1      -3.952  -5.646  -5.217  0.00  0.00    +0.041 A 
ATOM     28  C   UNL     1      -4.898  -5.641  -4.261  0.00  0.00    +0.195 A 
ATOM     29  O   UNL     1      -4.325  -5.984  -3.096  0.00  0.00    -0.466 OA
ENDBRANCH  24  25
ENDBRANCH  22  24
ENDBRANCH  12  20
ENDBRANCH   1  12
BRANCH   2  30
ATOM     30  C   UNL     1       3.158  -5.725   1.726  0.00  0.00    +0.201 C 
BRANCH  30  31
ATOM     31  N   UNL     1       4.286  -6.421   1.102  0.00  0.00    -0.302 N 
ATOM     32  C   UNL     1       5.303  -6.874   1.862  0.00  0.00    +0.251 C 
ATOM     33  O   UNL     1       5.283  -6.705   3.067  0.00  0.00    -0.270 OA
ATOM     34  H   UNL     1       4.302  -6.556   0.141  0.00  0.00    +0.150 HD
BRANCH  32  35
ATOM     35  C   UNL     1       6.431  -7.571   1.238  0.00  0.00    +0.074 A 
ATOM     36  C   UNL     1       7.560  -8.114   1.833  0.00  0.00    +0.021 A 
ATOM     37  C   UNL     1       8.456  -8.712   0.979  0.00  0.00    +0.008 A 
ATOM     38  C   UNL     1       8.186  -8.732  -0.350  0.00  0.00    +0.046 A 
ATOM     39  S   UNL     1       6.706  -7.948  -0.482  0.00  0.00    -0.092 S 
ENDBRANCH  32  35
ENDBRANCH  30  31
ENDBRANCH   2  30
TORSDOF 9
