REMARK  Name = ZINC01407940
REMARK  11 active torsions:
REMARK  status: ('A' for Active; 'I' for Inactive)
REMARK    1  A    between atoms: C_1  and  C_2
REMARK    2  A    between atoms: C_4  and  C_42
REMARK    3  A    between atoms: C_6  and  S_8
REMARK    4  A    between atoms: S_8  and  C_9
REMARK    5  A    between atoms: C_9  and  C_10
REMARK    6  A    between atoms: N_12  and  C_13
REMARK    7  A    between atoms: N_12  and  C_21
REMARK    8  A    between atoms: C_13  and  C_14
REMARK    9  A    between atoms: C_21  and  C_23
REMARK   10  A    between atoms: C_21  and  C_30
REMARK   11  A    between atoms: N_32  and  C_33
REMARK                            x       y       z     vdW  Elec       q    Type
REMARK                         _______ _______ _______ _____ _____    ______ ____
ROOT
ATOM      1  C   UNL     1       6.004   1.217  -0.499  0.00  0.00    +0.227 C 
ATOM      2  O   UNL     1       5.699   0.051  -0.636  0.00  0.00    -0.275 OA
ATOM      3  N   UNL     1       7.303   1.569  -0.427  0.00  0.00    -0.285 N 
ENDROOT
BRANCH   1   4
ATOM      4  C   UNL     1       4.931   2.271  -0.409  0.00  0.00    +0.173 C 
BRANCH   4   5
ATOM      5  S   UNL     1       3.304   1.478  -0.421  0.00  0.00    -0.077 S 
BRANCH   5  11
ATOM      6  C   UNL     1      -1.346   3.602  -0.183  0.00  0.00    +0.066 C 
ATOM      7  C   UNL     1       0.149   3.790  -0.206  0.00  0.00    +0.043 A 
ATOM      8  C   UNL     1       0.698   5.061  -0.140  0.00  0.00    +0.046 A 
ATOM      9  C   UNL     1       2.078   5.189  -0.163  0.00  0.00    +0.043 A 
ATOM     10  N   UNL     1       2.826   4.102  -0.248  0.00  0.00    -0.227 NA
ATOM     11  C   UNL     1       2.270   2.900  -0.309  0.00  0.00    +0.189 A 
ATOM     12  N   UNL     1       0.954   2.743  -0.289  0.00  0.00    -0.227 NA
ATOM     13  C   UNL     1       2.719   6.551  -0.094  0.00  0.00    +0.066 C 
ENDBRANCH   5  11
ENDBRANCH   4   5
ENDBRANCH   1   4
BRANCH   3  14
ATOM     14  C   UNL     1       7.670   2.966  -0.179  0.00  0.00    +0.143 C 
BRANCH  14  15
ATOM     15  C   UNL     1       8.007   3.636  -1.487  0.00  0.00    -0.030 A 
ATOM     16  C   UNL     1       9.328   3.790  -1.864  0.00  0.00    +0.008 A 
ATOM     17  C   UNL     1       9.638   4.400  -3.065  0.00  0.00    +0.038 A 
ATOM     18  C   UNL     1       8.625   4.866  -3.885  0.00  0.00    +0.123 A 
ATOM     19  C   UNL     1       7.302   4.716  -3.504  0.00  0.00    +0.038 A 
ATOM     20  C   UNL     1       6.995   4.101  -2.305  0.00  0.00    +0.008 A 
ATOM     21  F   UNL     1       8.927   5.468  -5.057  0.00  0.00    -0.205 F 
ENDBRANCH  14  15
ENDBRANCH   3  14
BRANCH   3  22
ATOM     22  C   UNL     1       8.348   0.556  -0.596  0.00  0.00    +0.166 C 
BRANCH  22  23
ATOM     23  C   UNL     1       9.155   0.862  -1.859  0.00  0.00    +0.023 C 
ATOM     24  C   UNL     1       8.213   0.945  -3.066  0.00  0.00    +0.010 C 
ATOM     25  C   UNL     1       9.017   1.420  -4.277  0.00  0.00    +0.027 C 
ATOM     26  C   UNL     1      10.276   0.615  -4.415  0.00  0.00    -0.031 C 
ATOM     27  C   UNL     1      10.779  -0.112  -3.469  0.00  0.00    -0.031 C 
ATOM     28  C   UNL     1      10.168  -0.258  -2.106  0.00  0.00    +0.032 C 
ENDBRANCH  22  23
BRANCH  22  29
ATOM     29  C   UNL     1       9.263   0.574   0.602  0.00  0.00    +0.238 C 
ATOM     30  O   UNL     1       9.189   1.477   1.408  0.00  0.00    -0.273 OA
ATOM     31  N   UNL     1      10.162  -0.414   0.777  0.00  0.00    -0.284 N 
ATOM     32  H   UNL     1      10.275  -1.094   0.094  0.00  0.00    +0.155 HD
BRANCH  31  33
ATOM     33  C   UNL     1      10.935  -0.459   1.944  0.00  0.00    +0.037 A 
ATOM     34  C   UNL     1      10.460   0.119   3.114  0.00  0.00    +0.027 A 
ATOM     35  C   UNL     1      11.221   0.075   4.267  0.00  0.00    +0.051 A 
ATOM     36  C   UNL     1      12.460  -0.545   4.259  0.00  0.00    +0.166 A 
ATOM     37  C   UNL     1      12.939  -1.126   3.087  0.00  0.00    +0.168 A 
ATOM     38  C   UNL     1      12.173  -1.087   1.934  0.00  0.00    +0.072 A 
ATOM     39  O   UNL     1      14.168  -1.666   3.338  0.00  0.00    -0.453 OA
ATOM     40  C   UNL     1      14.613  -1.054   4.563  0.00  0.00    +0.466 C 
ATOM     41  O   UNL     1      13.389  -0.722   5.244  0.00  0.00    -0.453 OA
ENDBRANCH  31  33
ENDBRANCH  22  29
ENDBRANCH   3  22
TORSDOF 9
