REMARK  Name = ZINC03294043
REMARK  13 active torsions:
REMARK  status: ('A' for Active; 'I' for Inactive)
REMARK    1  A    between atoms: C_1  and  C_2
REMARK    2  A    between atoms: C_2  and  C_3
REMARK    3  A    between atoms: C_3  and  C_5
REMARK    4  A    between atoms: C_3  and  C_6
REMARK    5  A    between atoms: C_9  and  C_12
REMARK    6  A    between atoms: C_14  and  C_22
REMARK    7  A    between atoms: C_22  and  O_24
REMARK    8  A    between atoms: O_24  and  C_25
REMARK    9  A    between atoms: C_25  and  C_26
REMARK   10  A    between atoms: C_26  and  C_28
REMARK   11  A    between atoms: C_29  and  N_38
REMARK   12  A    between atoms: N_30  and  C_37
REMARK   13  A    between atoms: N_33  and  C_36
REMARK                            x       y       z     vdW  Elec       q    Type
REMARK                         _______ _______ _______ _____ _____    ______ ____
ROOT
ATOM      1  C   UNL     1      -3.377  -1.061  -2.442  0.00  0.00    +0.072 A 
ATOM      2  C   UNL     1      -2.268  -0.281  -2.081  0.00  0.00    +0.044 A 
ATOM      3  C   UNL     1      -0.991  -0.810  -2.215  0.00  0.00    +0.070 A 
ATOM      4  C   UNL     1      -0.880  -2.171  -2.739  0.00  0.00    +0.014 A 
ATOM      5  C   UNL     1       0.363  -2.792  -2.903  0.00  0.00    +0.011 A 
ATOM      6  C   UNL     1       0.421  -4.065  -3.389  0.00  0.00    +0.001 A 
ATOM      7  C   UNL     1      -0.742  -4.757  -3.718  0.00  0.00    +0.002 A 
ATOM      8  C   UNL     1      -1.967  -4.185  -3.566  0.00  0.00    +0.028 A 
ATOM      9  C   UNL     1      -2.067  -2.873  -3.067  0.00  0.00    +0.072 A 
ATOM     10  N   UNL     1      -3.255  -2.286  -2.906  0.00  0.00    -0.247 NA
ENDROOT
BRANCH   1  14
ATOM     11  C   UNL     1      -7.271   0.591  -2.015  0.00  0.00    -0.045 A 
ATOM     12  C   UNL     1      -7.118  -0.694  -2.503  0.00  0.00    +0.004 A 
ATOM     13  C   UNL     1      -5.856  -1.236  -2.644  0.00  0.00    +0.010 A 
ATOM     14  C   UNL     1      -4.735  -0.485  -2.293  0.00  0.00    +0.000 A 
ATOM     15  C   UNL     1      -4.897   0.808  -1.798  0.00  0.00    +0.010 A 
ATOM     16  C   UNL     1      -6.163   1.341  -1.666  0.00  0.00    +0.004 A 
BRANCH  11  17
ATOM     17  C   UNL     1      -8.652   1.177  -1.864  0.00  0.00    +0.016 C 
ATOM     18  C   UNL     1      -8.895   1.537  -0.397  0.00  0.00    +0.012 C 
BRANCH  17  20
ATOM     19  C   UNL     1     -10.205   2.960  -2.670  0.00  0.00    +0.004 C 
ATOM     20  C   UNL     1      -8.769   2.436  -2.725  0.00  0.00    +0.004 C 
ENDBRANCH  17  20
ENDBRANCH  11  17
ENDBRANCH   1  14
BRANCH   3  21
ATOM     21  C   UNL     1       0.207  -0.027  -1.848  0.00  0.00    +0.340 C 
ATOM     22  O   UNL     1       1.306  -0.543  -1.889  0.00  0.00    -0.245 OA
BRANCH  21  23
ATOM     23  O   UNL     1       0.081   1.260  -1.468  0.00  0.00    -0.453 OA
BRANCH  23  24
ATOM     24  C   UNL     1       1.301   1.968  -1.122  0.00  0.00    +0.312 C 
BRANCH  24  25
ATOM     25  C   UNL     1       0.966   3.382  -0.726  0.00  0.00    +0.209 C 
ATOM     26  O   UNL     1      -0.189   3.758  -0.734  0.00  0.00    -0.288 OA
BRANCH  25  27
ATOM     27  C   UNL     1       1.994   4.271  -0.345  0.00  0.00    +0.123 A 
ATOM     28  C   UNL     1       1.698   5.554   0.146  0.00  0.00    +0.116 A 
ATOM     29  N   UNL     1       2.727   6.377   0.507  0.00  0.00    -0.284 N 
ATOM     30  C   UNL     1       4.006   5.986   0.391  0.00  0.00    +0.333 A 
ATOM     31  O   UNL     1       4.886   6.756   0.722  0.00  0.00    -0.246 OA
ATOM     32  N   UNL     1       4.349   4.774  -0.076  0.00  0.00    -0.263 N 
ATOM     33  C   UNL     1       3.407   3.886  -0.454  0.00  0.00    +0.269 A 
ATOM     34  O   UNL     1       3.721   2.789  -0.877  0.00  0.00    -0.267 OA
ATOM     35  C   UNL     1       5.766   4.413  -0.176  0.00  0.00    +0.157 C 
ATOM     36  C   UNL     1       2.430   7.714   1.025  0.00  0.00    +0.155 C 
BRANCH  28  37
ATOM     37  N   UNL     1       0.408   5.969   0.264  0.00  0.00    -0.344 N 
ATOM     38  H   UNL     1       0.187   6.976   0.649  0.00  0.00    +0.144 HD
ATOM     39  H   UNL     1      -0.414   5.298  -0.025  0.00  0.00    +0.144 HD
ENDBRANCH  28  37
ENDBRANCH  25  27
ENDBRANCH  24  25
ENDBRANCH  23  24
ENDBRANCH  21  23
ENDBRANCH   3  21
TORSDOF 9
