REMARK  Name = ZINC44175174
REMARK  7 active torsions:
REMARK  status: ('A' for Active; 'I' for Inactive)
REMARK    1  A    between atoms: C_3  and  C_11
REMARK    2  A    between atoms: C_5  and  C_7
REMARK    3  A    between atoms: C_12  and  C_13
REMARK    4  A    between atoms: N_19  and  C_29
REMARK    5  A    between atoms: C_23  and  C_26
REMARK    6  A    between atoms: C_29  and  C_30
REMARK    7  A    between atoms: C_30  and  C_31
REMARK                            x       y       z     vdW  Elec       q    Type
REMARK                         _______ _______ _______ _____ _____    ______ ____
ROOT
ATOM      1  C   UNL     1       4.899   4.249  -0.023  0.00  0.00    +0.244 C 
ATOM      2  O   UNL     1       5.959   3.652  -0.037  0.00  0.00    -0.270 OA
ATOM      3  N   UNL     1       4.885   5.597  -0.016  0.00  0.00    -0.257 N 
ATOM      4  C   UNL     1       3.617   6.343   0.006  0.00  0.00    +0.210 C 
ATOM      5  C   UNL     1       3.719   7.510  -0.943  0.00  0.00    +0.238 C 
ATOM      6  O   UNL     1       2.718   7.931  -1.483  0.00  0.00    -0.274 OA
ATOM      7  N   UNL     1       4.906   8.092  -1.197  0.00  0.00    -0.268 N 
ATOM      8  C   UNL     1       6.079   7.600  -0.627  0.00  0.00    +0.058 A 
ATOM      9  C   UNL     1       6.079   6.334  -0.024  0.00  0.00    +0.059 A 
ATOM     10  C   UNL     1       7.228   5.829   0.544  0.00  0.00    +0.040 A 
ATOM     11  C   UNL     1       8.403   6.591   0.524  0.00  0.00    +0.065 A 
ATOM     12  C   UNL     1       8.401   7.857  -0.070  0.00  0.00    +0.017 A 
ATOM     13  C   UNL     1       7.245   8.355  -0.650  0.00  0.00    +0.026 A 
ENDROOT
BRANCH  11  14
ATOM     14  C   UNL     1       9.636   6.061   1.129  0.00  0.00    +0.387 C 
ATOM     15  O   UNL     1       9.636   4.954   1.649  0.00  0.00    -0.241 OA
ATOM     16  O   UNL     1      10.662   6.728   1.111  0.00  0.00    -0.241 OA
ENDBRANCH  11  14
BRANCH   1  18
ATOM     17  C   UNL     1       3.653   2.156  -0.022  0.00  0.00    +0.013 C 
ATOM     18  C   UNL     1       3.639   3.504  -0.015  0.00  0.00    +0.068 C 
BRANCH  17  21
ATOM     19  C   UNL     1      -0.017   1.380   0.010  0.00  0.00    +0.001 A 
ATOM     20  C   UNL     1       1.166   2.089   0.002  0.00  0.00    +0.008 A 
ATOM     21  C   UNL     1       2.386   1.406  -0.013  0.00  0.00    -0.024 A 
ATOM     22  C   UNL     1       2.397   0.008  -0.021  0.00  0.00    +0.020 A 
ATOM     23  C   UNL     1       1.206  -0.687  -0.013  0.00  0.00    +0.055 A 
ATOM     24  C   UNL     1       0.002  -0.004   0.002  0.00  0.00    +0.012 A 
BRANCH  23  25
ATOM     25  C   UNL     1       1.215  -2.194  -0.022  0.00  0.00    +0.417 C 
ATOM     26  F   UNL     1       1.231  -2.668   1.295  0.00  0.00    -0.166 F 
ATOM     27  F   UNL     1       0.069  -2.663  -0.673  0.00  0.00    -0.166 F 
ATOM     28  F   UNL     1       2.354  -2.650  -0.695  0.00  0.00    -0.166 F 
ENDBRANCH  23  25
ENDBRANCH  17  21
ENDBRANCH   1  18
BRANCH   7  29
ATOM     29  C   UNL     1       4.965   9.257  -2.083  0.00  0.00    +0.119 C 
BRANCH  29  30
ATOM     30  C   UNL     1       4.801  10.534  -1.258  0.00  0.00    +0.062 C 
BRANCH  30  31
ATOM     31  C   UNL     1       4.862  11.732  -2.171  0.00  0.00    -0.009 A 
ATOM     32  C   UNL     1       3.852  12.366  -2.816  0.00  0.00    +0.011 A 
ATOM     33  C   UNL     1       4.146  13.459  -3.610  0.00  0.00    +0.008 A 
ATOM     34  C   UNL     1       5.435  13.865  -3.720  0.00  0.00    +0.045 A 
ATOM     35  S   UNL     1       6.282  12.690  -2.675  0.00  0.00    -0.102 S 
ENDBRANCH  30  31
ENDBRANCH  29  30
ENDBRANCH   7  29
TORSDOF 7
