REMARK  Name = ZINC09403097
REMARK  12 active torsions:
REMARK  status: ('A' for Active; 'I' for Inactive)
REMARK    1  A    between atoms: C_1  and  C_2
REMARK    2  A    between atoms: C_2  and  C_26
REMARK    3  A    between atoms: N_3  and  N_4
REMARK    4  A    between atoms: N_4  and  C_5
REMARK    5  A    between atoms: C_8  and  S_14
REMARK    6  A    between atoms: C_10  and  N_11
REMARK    7  A    between atoms: S_14  and  N_17
REMARK    8  A    between atoms: N_17  and  C_18
REMARK    9  A    between atoms: C_23  and  O_24
REMARK   10  A    between atoms: O_24  and  C_25
REMARK   11  A    between atoms: C_30  and  N_32
REMARK   12  A    between atoms: C_33  and  C_35
REMARK                            x       y       z     vdW  Elec       q    Type
REMARK                         _______ _______ _______ _____ _____    ______ ____
ROOT
ATOM      1  C   UNL     1      -2.107   0.293   0.651  0.00  0.00    +0.079 A 
ATOM      2  C   UNL     1      -1.877   1.663   0.599  0.00  0.00    +0.029 A 
ATOM      3  C   UNL     1      -2.918   2.526   0.323  0.00  0.00    +0.031 A 
ATOM      4  C   UNL     1      -4.190   2.030   0.100  0.00  0.00    +0.111 A 
ATOM      5  C   UNL     1      -4.423   0.668   0.152  0.00  0.00    +0.063 A 
ATOM      6  C   UNL     1      -3.385  -0.202   0.421  0.00  0.00    +0.150 A 
ENDROOT
BRANCH   6   7
ATOM      7  N   UNL     1      -3.634  -1.661   0.470  0.00  0.00    +0.058 N 
ATOM      8  O   UNL     1      -4.772  -2.087   0.393  0.00  0.00    -0.126 OA
ATOM      9  O   UNL     1      -2.701  -2.434   0.589  0.00  0.00    -0.126 OA
ENDBRANCH   6   7
BRANCH   4  10
ATOM     10  S   UNL     1      -5.516   3.136  -0.250  0.00  0.00    +0.073 S 
ATOM     11  O   UNL     1      -6.713   2.464   0.118  0.00  0.00    -0.150 OA
ATOM     12  O   UNL     1      -5.150   4.395   0.296  0.00  0.00    -0.150 OA
BRANCH  10  13
ATOM     13  N   UNL     1      -5.570   3.331  -1.894  0.00  0.00    -0.213 N 
ATOM     14  H   UNL     1      -5.449   4.212  -2.282  0.00  0.00    +0.174 HD
BRANCH  13  15
ATOM     15  C   UNL     1      -5.789   2.225  -2.723  0.00  0.00    +0.090 A 
ATOM     16  C   UNL     1      -6.638   1.206  -2.314  0.00  0.00    +0.028 A 
ATOM     17  C   UNL     1      -6.857   0.117  -3.137  0.00  0.00    +0.002 A 
ATOM     18  C   UNL     1      -6.224   0.035  -4.363  0.00  0.00    +0.004 A 
ATOM     19  C   UNL     1      -5.373   1.044  -4.775  0.00  0.00    +0.047 A 
ATOM     20  C   UNL     1      -5.152   2.141  -3.959  0.00  0.00    +0.142 A 
BRANCH  20  21
ATOM     21  O   UNL     1      -4.314   3.133  -4.363  0.00  0.00    -0.493 OA
ATOM     22  C   UNL     1      -3.695   2.980  -5.642  0.00  0.00    +0.277 C 
ENDBRANCH  20  21
ENDBRANCH  13  15
ENDBRANCH  10  13
ENDBRANCH   4  10
BRANCH   1  23
ATOM     23  N   UNL     1      -1.057  -0.582   0.930  0.00  0.00    -0.235 N 
ATOM     24  H   UNL     1      -1.232  -1.529   1.044  0.00  0.00    +0.174 HD
BRANCH  23  27
ATOM     25  C   UNL     1       0.957  -2.381   1.470  0.00  0.00    +0.068 C 
ATOM     26  C   UNL     1       1.230  -0.910   1.292  0.00  0.00    +0.063 C 
ATOM     27  N   UNL     1       0.252  -0.094   1.039  0.00  0.00    -0.187 NA
BRANCH  26  28
ATOM     28  C   UNL     1       2.607  -0.396   1.407  0.00  0.00    -0.001 A 
ATOM     29  C   UNL     1       3.661  -1.271   1.686  0.00  0.00    +0.010 A 
ATOM     30  C   UNL     1       4.949  -0.788   1.788  0.00  0.00    +0.002 A 
ATOM     31  C   UNL     1       5.202   0.562   1.625  0.00  0.00    +0.023 A 
ATOM     32  C   UNL     1       4.160   1.441   1.353  0.00  0.00    +0.034 A 
ATOM     33  C   UNL     1       2.863   0.966   1.243  0.00  0.00    +0.033 A 
BRANCH  32  34
ATOM     34  N   UNL     1       4.422   2.806   1.190  0.00  0.00    -0.286 N 
ATOM     35  C   UNL     1       3.519   3.719   1.601  0.00  0.00    +0.214 C 
ATOM     36  O   UNL     1       2.525   3.363   2.197  0.00  0.00    -0.276 OA
ATOM     37  C   UNL     1       3.746   5.182   1.321  0.00  0.00    +0.109 C 
ATOM     38  H   UNL     1       5.253   3.095   0.781  0.00  0.00    +0.155 HD
ENDBRANCH  32  34
ENDBRANCH  26  28
ENDBRANCH  23  27
ENDBRANCH   1  23
TORSDOF 9
