REMARK  Name = ZINC12487582
REMARK  11 active torsions:
REMARK  status: ('A' for Active; 'I' for Inactive)
REMARK    1  A    between atoms: C_1  and  C_2
REMARK    2  A    between atoms: C_2  and  N_3
REMARK    3  A    between atoms: N_3  and  C_4
REMARK    4  A    between atoms: C_12  and  C_14
REMARK    5  A    between atoms: C_14  and  O_15
REMARK    6  A    between atoms: O_15  and  C_16
REMARK    7  A    between atoms: C_16  and  C_18
REMARK    8  A    between atoms: C_21  and  S_24
REMARK    9  A    between atoms: S_24  and  N_27
REMARK   10  A    between atoms: N_27  and  C_28
REMARK   11  A    between atoms: C_28  and  C_29
REMARK                            x       y       z     vdW  Elec       q    Type
REMARK                         _______ _______ _______ _____ _____    ______ ____
ROOT
ATOM      1  C   UNL     1      -2.876  -2.428   0.017  0.00  0.00    +0.059 A 
ATOM      2  C   UNL     1      -3.997  -1.595   0.037  0.00  0.00    +0.017 A 
ATOM      3  C   UNL     1      -5.261  -2.146   0.041  0.00  0.00    +0.029 A 
ATOM      4  C   UNL     1      -5.420  -3.521   0.035  0.00  0.00    +0.105 A 
ATOM      5  C   UNL     1      -4.314  -4.352   0.020  0.00  0.00    +0.029 A 
ATOM      6  C   UNL     1      -3.043  -3.814   0.011  0.00  0.00    +0.017 A 
ENDROOT
BRANCH   4   7
ATOM      7  S   UNL     1      -7.039  -4.216   0.047  0.00  0.00    +0.059 S 
ATOM      8  O   UNL     1      -7.909  -3.229  -0.491  0.00  0.00    -0.153 OA
ATOM      9  O   UNL     1      -6.926  -5.518  -0.513  0.00  0.00    -0.153 OA
BRANCH   7  10
ATOM     10  N   UNL     1      -7.474  -4.419   1.631  0.00  0.00    -0.183 NA
ATOM     11  H   UNL     1      -7.614  -5.311   1.986  0.00  0.00    +0.148 HD
BRANCH  10  12
ATOM     12  C   UNL     1      -7.648  -3.250   2.498  0.00  0.00    +0.180 C 
BRANCH  12  13
ATOM     13  C   UNL     1      -8.385  -3.658   3.748  0.00  0.00    +0.120 A 
ATOM     14  C   UNL     1      -7.819  -4.090   4.889  0.00  0.00    +0.046 A 
ATOM     15  C   UNL     1      -8.873  -4.359   5.793  0.00  0.00    +0.041 A 
ATOM     16  C   UNL     1     -10.019  -4.074   5.150  0.00  0.00    +0.195 A 
ATOM     17  O   UNL     1      -9.718  -3.644   3.914  0.00  0.00    -0.466 OA
ENDBRANCH  12  13
ENDBRANCH  10  12
ENDBRANCH   7  10
ENDBRANCH   4   7
BRANCH   1  18
ATOM     18  C   UNL     1      -1.518  -1.844   0.007  0.00  0.00    +0.340 C 
ATOM     19  O   UNL     1      -0.545  -2.571  -0.006  0.00  0.00    -0.245 OA
BRANCH  18  20
ATOM     20  O   UNL     1      -1.360  -0.507   0.012  0.00  0.00    -0.452 OA
BRANCH  20  21
ATOM     21  C   UNL     1       0.002  -0.004   0.002  0.00  0.00    +0.328 C 
BRANCH  21  23
ATOM     22  N   UNL     1       1.139   2.192   0.003  0.00  0.00    -0.294 N 
ATOM     23  C   UNL     1      -0.018   1.503   0.010  0.00  0.00    +0.254 C 
ATOM     24  O   UNL     1      -1.077   2.095   0.018  0.00  0.00    -0.272 OA
BRANCH  22  25
ATOM     25  C   UNL     1       1.120   3.657   0.011  0.00  0.00    +0.099 C 
ATOM     26  C   UNL     1       0.386   4.165  -1.241  0.00  0.00    +0.046 C 
ATOM     27  C   UNL     1       0.104   5.683  -1.056  0.00  0.00    +0.168 C 
ATOM     28  S   UNL     1      -0.387   5.720   0.720  0.00  0.00    -0.029 S 
ATOM     29  O   UNL     1      -1.799   5.591   0.812  0.00  0.00    -0.174 OA
ATOM     30  O   UNL     1       0.257   6.815   1.356  0.00  0.00    -0.174 OA
ATOM     31  C   UNL     1       0.395   4.154   1.285  0.00  0.00    +0.188 C 
ENDBRANCH  22  25
BRANCH  22  33
ATOM     32  C   UNL     1       2.849   1.236  -1.461  0.00  0.00    +0.024 C 
ATOM     33  C   UNL     1       2.418   1.477  -0.013  0.00  0.00    +0.105 C 
ENDBRANCH  22  33
ENDBRANCH  21  23
ENDBRANCH  20  21
ENDBRANCH  18  20
ENDBRANCH   1  18
TORSDOF 10
