REMARK  Name = ZINC20450118
REMARK  12 active torsions:
REMARK  status: ('A' for Active; 'I' for Inactive)
REMARK    1  A    between atoms: C_1  and  C_2
REMARK    2  A    between atoms: C_2  and  N_3
REMARK    3  A    between atoms: N_3  and  C_4
REMARK    4  A    between atoms: N_3  and  C_6
REMARK    5  A    between atoms: C_4  and  C_5
REMARK    6  A    between atoms: C_9  and  C_12
REMARK    7  A    between atoms: C_12  and  N_13
REMARK    8  A    between atoms: C_19  and  C_23
REMARK    9  A    between atoms: C_23  and  C_25
REMARK   10  A    between atoms: C_23  and  N_26
REMARK   11  A    between atoms: C_27  and  C_29
REMARK   12  A    between atoms: C_34  and  C_35
REMARK                            x       y       z     vdW  Elec       q    Type
REMARK                         _______ _______ _______ _____ _____    ______ ____
ROOT
ATOM      1  N   UNL     1       4.412   1.057   8.695  0.00  0.00    -0.296 NA
ATOM      2  C   UNL     1       3.794  -0.139   9.271  0.00  0.00    +0.092 C 
ATOM      3  C   UNL     1       3.993  -1.329   8.327  0.00  0.00    +0.091 C 
ATOM      4  C   UNL     1       2.855  -1.363   7.340  0.00  0.00    +0.135 A 
ATOM      5  N   UNL     1       2.150  -2.393   6.973  0.00  0.00    -0.134 NA
ATOM      6  N   UNL     1       1.283  -2.030   6.092  0.00  0.00    -0.132 NA
ATOM      7  C   UNL     1       1.397  -0.748   5.864  0.00  0.00    +0.154 A 
ATOM      8  N   UNL     1       2.391  -0.289   6.654  0.00  0.00    -0.312 N 
ATOM      9  C   UNL     1       2.863   1.089   6.792  0.00  0.00    +0.140 C 
ATOM     10  C   UNL     1       4.331   1.074   7.230  0.00  0.00    +0.106 C 
ENDROOT
BRANCH   7  11
ATOM     11  C   UNL     1       0.578   0.065   4.894  0.00  0.00    +0.138 C 
ATOM     12  C   UNL     1      -0.818   0.296   5.476  0.00  0.00    +0.036 C 
BRANCH  11  13
ATOM     13  N   UNL     1       0.465  -0.657   3.625  0.00  0.00    -0.302 N 
ATOM     14  C   UNL     1       0.242   0.021   2.481  0.00  0.00    +0.245 C 
ATOM     15  O   UNL     1       0.135   1.231   2.503  0.00  0.00    -0.270 OA
ATOM     16  H   UNL     1       0.562  -1.753   3.605  0.00  0.00    +0.150 HD
BRANCH  14  17
ATOM     17  C   UNL     1       0.128  -0.708   1.200  0.00  0.00    +0.040 A 
ATOM     18  C   UNL     1       0.378  -2.081   1.150  0.00  0.00    +0.013 A 
ATOM     19  C   UNL     1       0.269  -2.755  -0.049  0.00  0.00    +0.001 A 
ATOM     20  C   UNL     1      -0.086  -2.074  -1.199  0.00  0.00    +0.000 A 
ATOM     21  C   UNL     1      -0.340  -0.715  -1.155  0.00  0.00    +0.004 A 
ATOM     22  C   UNL     1      -0.230  -0.027   0.036  0.00  0.00    -0.038 A 
ATOM     23  C   UNL     1      -0.502   1.454   0.081  0.00  0.00    +0.044 C 
ENDBRANCH  14  17
ENDBRANCH  11  13
ENDBRANCH   7  11
BRANCH   1  24
ATOM     24  C   UNL     1       3.832   2.278   9.268  0.00  0.00    +0.119 C 
BRANCH  24  28
ATOM     25  C   UNL     1       4.829   2.517  13.418  0.00  0.00    +0.030 A 
ATOM     26  C   UNL     1       5.668   3.083  12.466  0.00  0.00    +0.023 A 
ATOM     27  C   UNL     1       5.343   3.004  11.127  0.00  0.00    +0.007 A 
ATOM     28  C   UNL     1       4.183   2.362  10.731  0.00  0.00    -0.033 A 
ATOM     29  C   UNL     1       3.343   1.802  11.676  0.00  0.00    +0.007 A 
ATOM     30  C   UNL     1       3.665   1.873  13.017  0.00  0.00    +0.023 A 
BRANCH  25  31
ATOM     31  N   UNL     1       5.154   2.595  14.774  0.00  0.00    -0.330 N 
BRANCH  31  33
ATOM     32  C   UNL     1       4.684   0.545  16.022  0.00  0.00    +0.024 C 
ATOM     33  C   UNL     1       4.268   1.997  15.775  0.00  0.00    +0.102 C 
ENDBRANCH  31  33
BRANCH  31  34
ATOM     34  C   UNL     1       6.382   3.275  15.194  0.00  0.00    +0.102 C 
ATOM     35  C   UNL     1       6.085   4.755  15.443  0.00  0.00    +0.024 C 
ENDBRANCH  31  34
ENDBRANCH  25  31
ENDBRANCH  24  28
ENDBRANCH   1  24
TORSDOF 8
