REMARK  Name = ZINC40038539
REMARK  6 active torsions:
REMARK  status: ('A' for Active; 'I' for Inactive)
REMARK    1  A    between atoms: C_1  and  C_2
REMARK    2  A    between atoms: C_6  and  C_22
REMARK    3  A    between atoms: C_7  and  C_12
REMARK    4  A    between atoms: C_10  and  C_11
REMARK    5  A    between atoms: C_18  and  S_20
REMARK    6  A    between atoms: S_20  and  C_21
REMARK                            x       y       z     vdW  Elec       q    Type
REMARK                         _______ _______ _______ _____ _____    ______ ____
ROOT
ATOM      1  C   UNL     1      -0.018   1.503   0.010  0.00  0.00    +0.044 C 
ATOM      2  C   UNL     1       0.002  -0.004   0.002  0.00  0.00    -0.044 A 
ATOM      3  C   UNL     1       0.006  -0.684  -1.209  0.00  0.00    +0.004 A 
ATOM      4  C   UNL     1       0.025  -2.050  -1.236  0.00  0.00    +0.012 A 
ATOM      5  C   UNL     1       0.040  -2.766  -0.036  0.00  0.00    +0.024 A 
ATOM      6  C   UNL     1       0.062  -4.188   0.301  0.00  0.00    +0.008 A 
ATOM      7  C   UNL     1       0.070  -4.253   1.658  0.00  0.00    +0.194 A 
ATOM      8  O   UNL     1       0.055  -3.006   2.174  0.00  0.00    -0.450 OA
ATOM      9  C   UNL     1       0.037  -2.082   1.194  0.00  0.00    +0.139 A 
ATOM     10  C   UNL     1       0.023  -0.692   1.196  0.00  0.00    -0.005 A 
ATOM     11  C   UNL     1       0.024   0.062   2.501  0.00  0.00    +0.048 C 
ATOM     12  C   UNL     1       0.074  -5.348  -0.661  0.00  0.00    +0.048 C 
ENDROOT
BRANCH   7  13
ATOM     13  C   UNL     1       0.091  -5.493   2.446  0.00  0.00    +0.285 C 
ATOM     14  O   UNL     1       0.103  -6.572   1.882  0.00  0.00    -0.266 OA
ATOM     15  N   UNL     1       0.097  -5.437   3.792  0.00  0.00    -0.257 N 
ATOM     16  C   UNL     1       0.117  -6.611   4.538  0.00  0.00    +0.189 A 
ATOM     17  N   UNL     1       0.139  -7.872   4.138  0.00  0.00    -0.125 NA
ATOM     18  N   UNL     1       0.156  -8.833   4.955  0.00  0.00    -0.133 NA
ATOM     19  C   UNL     1       0.153  -8.637   6.266  0.00  0.00    +0.160 A 
ATOM     20  S   UNL     1       0.129  -6.848   6.313  0.00  0.00    -0.024 S 
ATOM     21  H   UNL     1       0.087  -4.577   4.242  0.00  0.00    +0.157 HD
BRANCH  19  22
ATOM     22  S   UNL     1       0.173  -9.805   7.585  0.00  0.00    -0.100 S 
ATOM     23  C   UNL     1       0.200 -11.414   6.747  0.00  0.00    +0.092 C 
ENDBRANCH  19  22
ENDBRANCH   7  13
TORSDOF 2
