REMARK  Name = ZINC48521135
REMARK  8 active torsions:
REMARK  status: ('A' for Active; 'I' for Inactive)
REMARK    1  A    between atoms: C_1  and  C_2
REMARK    2  A    between atoms: C_3  and  C_8
REMARK    3  A    between atoms: N_6  and  C_7
REMARK    4  A    between atoms: C_8  and  C_10
REMARK    5  A    between atoms: C_8  and  N_11
REMARK    6  A    between atoms: N_14  and  C_15
REMARK    7  A    between atoms: C_18  and  S_21
REMARK    8  A    between atoms: S_21  and  C_22
REMARK                            x       y       z     vdW  Elec       q    Type
REMARK                         _______ _______ _______ _____ _____    ______ ____
ROOT
ATOM      1  N   UNL     1       0.483  -1.401  -3.395  0.00  0.00    -0.292 N 
ATOM      2  C   UNL     1       1.026  -1.105  -4.593  0.00  0.00    +0.304 C 
ATOM      3  O   UNL     1       1.113   0.054  -4.951  0.00  0.00    -0.252 OA
ATOM      4  N   UNL     1       1.473  -2.093  -5.393  0.00  0.00    -0.269 N 
ATOM      5  H   UNL     1       0.413  -2.325  -3.110  0.00  0.00    +0.151 HD
ATOM      6  H   UNL     1       1.465  -3.011  -5.080  0.00  0.00    +0.156 HD
ENDROOT
BRANCH   4   7
ATOM      7  C   UNL     1       1.948  -1.794  -6.678  0.00  0.00    +0.035 A 
ATOM      8  C   UNL     1       1.725  -2.679  -7.724  0.00  0.00    +0.024 A 
ATOM      9  C   UNL     1       2.193  -2.385  -8.989  0.00  0.00    +0.017 A 
ATOM     10  C   UNL     1       2.887  -1.203  -9.215  0.00  0.00    +0.016 A 
ATOM     11  C   UNL     1       3.110  -0.318  -8.168  0.00  0.00    +0.017 A 
ATOM     12  C   UNL     1       2.638  -0.610  -6.904  0.00  0.00    +0.024 A 
BRANCH  10  13
ATOM     13  S   UNL     1       3.485  -0.827 -10.829  0.00  0.00    -0.016 S 
BRANCH  13  14
ATOM     14  C   UNL     1       4.305   0.779 -10.631  0.00  0.00    +0.448 C 
ATOM     15  F   UNL     1       5.342   0.661  -9.699  0.00  0.00    -0.160 F 
ATOM     16  F   UNL     1       4.828   1.190 -11.861  0.00  0.00    -0.160 F 
ATOM     17  F   UNL     1       3.377   1.723 -10.179  0.00  0.00    -0.160 F 
ENDBRANCH  13  14
ENDBRANCH  10  13
ENDBRANCH   4   7
BRANCH   1  18
ATOM     18  C   UNL     1      -0.002  -0.327  -2.526  0.00  0.00    +0.105 C 
ATOM     19  C   UNL     1      -1.434   0.041  -2.920  0.00  0.00    +0.033 C 
BRANCH  18  22
ATOM     20  C   UNL     1      -0.013   1.510   0.007  0.00  0.00    +0.065 C 
ATOM     21  C   UNL     1       0.015   0.003   0.003  0.00  0.00    +0.041 A 
ATOM     22  C   UNL     1       0.020  -0.792  -1.092  0.00  0.00    +0.013 A 
ATOM     23  C   UNL     1       0.050  -2.122  -0.659  0.00  0.00    +0.140 A 
ATOM     24  N   UNL     1       0.062  -2.125   0.649  0.00  0.00    -0.179 NA
ATOM     25  N   UNL     1       0.046  -0.795   1.091  0.00  0.00    -0.271 N 
ATOM     26  C   UNL     1       0.057  -0.350   2.486  0.00  0.00    +0.172 C 
ENDBRANCH  18  22
ENDBRANCH   1  18
TORSDOF 5
