REMARK  Name = ZINC13064734
REMARK  12 active torsions:
REMARK  status: ('A' for Active; 'I' for Inactive)
REMARK    1  A    between atoms: C_1  and  C_2
REMARK    2  A    between atoms: C_2  and  C_3
REMARK    3  A    between atoms: C_3  and  C_5
REMARK    4  A    between atoms: C_3  and  N_75
REMARK    5  A    between atoms: N_9  and  C_10
REMARK    6  A    between atoms: C_10  and  C_11
REMARK    7  A    between atoms: C_11  and  C_12
REMARK    8  A    between atoms: C_18  and  C_19
REMARK    9  A    between atoms: C_18  and  N_75
REMARK   10  A    between atoms: C_23  and  C_32
REMARK   11  A    between atoms: C_24  and  C_31
REMARK   12  A    between atoms: C_33  and  N_75
REMARK                            x       y       z     vdW  Elec       q    Type
REMARK                         _______ _______ _______ _____ _____    ______ ____
ROOT
ATOM      1  N   UNL     1      -5.467   4.226  -1.124  0.00  0.00    +0.391 N 
ATOM      2  H   UNL     1      -4.664   4.729  -1.520  0.00  0.00    -0.080 HD
ENDROOT
BRANCH   1   3
ATOM      3  C   UNL     1      -5.476   2.845  -1.650  0.00  0.00    -0.067 C 
ATOM      4  C   UNL     1      -5.404   2.897  -3.177  0.00  0.00    -0.015 C 
ATOM      5  C   UNL     1      -5.390   1.473  -3.736  0.00  0.00    -0.002 C 
ATOM      6  C   UNL     1      -6.666   0.745  -3.310  0.00  0.00    -0.000 C 
ATOM      7  C   UNL     1      -6.738   0.692  -1.783  0.00  0.00    -0.002 C 
ATOM      8  C   UNL     1      -6.752   2.116  -1.223  0.00  0.00    -0.015 C 
ENDBRANCH   1   3
BRANCH   1   9
ATOM      9  C   UNL     1      -6.710   4.923  -1.515  0.00  0.00    +0.003 C 
BRANCH   9  10
ATOM     10  C   UNL     1      -7.858   4.484  -0.642  0.00  0.00    +0.138 A 
ATOM     11  N   UNL     1      -7.803   4.194   0.635  0.00  0.00    -0.115 NA
ATOM     12  N   UNL     1      -8.988   3.864   1.020  0.00  0.00    -0.023 NA
ATOM     13  N   UNL     1      -9.797   3.936   0.021  0.00  0.00    -0.044 NA
ATOM     14  N   UNL     1      -9.139   4.320  -1.021  0.00  0.00    -0.231 N 
BRANCH  14  15
ATOM     15  C   UNL     1      -9.683   4.534  -2.364  0.00  0.00    +0.152 C 
BRANCH  15  16
ATOM     16  C   UNL     1      -9.732   3.200  -3.112  0.00  0.00    +0.058 C 
BRANCH  16  17
ATOM     17  C   UNL     1     -10.198   3.435  -4.526  0.00  0.00    -0.046 A 
ATOM     18  C   UNL     1     -11.547   3.382  -4.827  0.00  0.00    +0.004 A 
ATOM     19  C   UNL     1     -11.975   3.603  -6.123  0.00  0.00    +0.000 A 
ATOM     20  C   UNL     1     -11.054   3.865  -7.120  0.00  0.00    +0.000 A 
ATOM     21  C   UNL     1      -9.705   3.912  -6.820  0.00  0.00    +0.000 A 
ATOM     22  C   UNL     1      -9.277   3.697  -5.523  0.00  0.00    +0.004 A 
ENDBRANCH  16  17
ENDBRANCH  15  16
ENDBRANCH  14  15
ENDBRANCH   9  10
BRANCH   9  24
ATOM     23  C   UNL     1      -5.420   6.897  -2.339  0.00  0.00    +0.002 C 
ATOM     24  C   UNL     1      -6.498   6.430  -1.359  0.00  0.00    -0.011 C 
ENDBRANCH   9  24
ENDBRANCH   1   9
BRANCH   1  25
ATOM     25  C   UNL     1      -5.341   4.205   0.349  0.00  0.00    -0.036 C 
BRANCH  25  26
ATOM     26  C   UNL     1      -3.900   3.948   0.706  0.00  0.00    +0.001 A 
ATOM     27  C   UNL     1      -3.064   4.991   0.934  0.00  0.00    +0.017 A 
ATOM     28  C   UNL     1      -1.670   4.708   1.279  0.00  0.00    -0.001 A 
ATOM     29  C   UNL     1      -0.761   5.742   1.524  0.00  0.00    +0.013 A 
ATOM     30  C   UNL     1       0.534   5.444   1.845  0.00  0.00    -0.047 A 
ATOM     31  C   UNL     1       0.955   4.124   1.929  0.00  0.00    -0.046 A 
ATOM     32  C   UNL     1       0.076   3.089   1.691  0.00  0.00    +0.030 A 
ATOM     33  C   UNL     1      -1.245   3.368   1.358  0.00  0.00    +0.049 A 
ATOM     34  N   UNL     1      -2.147   2.353   1.121  0.00  0.00    -0.322 N 
ATOM     35  H   UNL     1      -1.854   1.430   1.180  0.00  0.00    +0.169 HD
ATOM     36  C   UNL     1      -3.425   2.623   0.804  0.00  0.00    +0.251 A 
ATOM     37  O   UNL     1      -4.194   1.700   0.595  0.00  0.00    -0.268 OA
ATOM     38  C   UNL     1       2.387   3.819   2.284  0.00  0.00    +0.044 C 
ATOM     39  C   UNL     1       1.513   6.559   2.108  0.00  0.00    +0.044 C 
ENDBRANCH  25  26
ENDBRANCH   1  25
TORSDOF 9
