REMARK  Name = ZINC20564823
REMARK  6 active torsions:
REMARK  status: ('A' for Active; 'I' for Inactive)
REMARK    1  A    between atoms: C_1  and  C_2
REMARK    2  A    between atoms: C_7  and  N_8
REMARK    3  A    between atoms: C_9  and  C_11
REMARK    4  A    between atoms: C_21  and  C_24
REMARK    5  A    between atoms: C_25  and  C_34
REMARK    6  A    between atoms: N_26  and  C_28
REMARK                            x       y       z     vdW  Elec       q    Type
REMARK                         _______ _______ _______ _____ _____    ______ ____
ROOT
ATOM      1  C   UNL     1      -1.238   3.205   7.101  0.00  0.00    +0.093 C 
ATOM      2  C   UNL     1      -2.401   2.853   8.033  0.00  0.00    +0.016 C 
ATOM      3  C   UNL     1      -3.719   3.255   7.366  0.00  0.00    +0.020 C 
ATOM      4  C   UNL     1      -3.842   2.542   6.018  0.00  0.00    +0.106 C 
ATOM      5  N   UNL     1      -2.707   2.912   5.162  0.00  0.00    -0.311 N 
ATOM      6  C   UNL     1      -1.433   2.493   5.760  0.00  0.00    +0.119 C 
ATOM      7  C   UNL     1      -2.854   2.388   3.888  0.00  0.00    +0.172 A 
ATOM      8  C   UNL     1      -4.046   2.673   3.090  0.00  0.00    +0.137 A 
ATOM      9  C   UNL     1      -4.096   2.067   1.745  0.00  0.00    +0.049 A 
ATOM     10  C   UNL     1      -2.998   1.266   1.363  0.00  0.00    +0.072 A 
ATOM     11  N   UNL     1      -1.999   1.103   2.192  0.00  0.00    -0.152 NA
ATOM     12  N   UNL     1      -1.923   1.617   3.359  0.00  0.00    -0.132 NA
ATOM     13  C   UNL     1      -2.974   0.607   0.008  0.00  0.00    +0.068 C 
ATOM     14  C   UNL     1      -5.286   2.471   1.181  0.00  0.00    +0.051 A 
ATOM     15  N   UNL     1      -5.920   3.253   2.073  0.00  0.00    -0.236 N 
ATOM     16  N   UNL     1      -5.154   3.362   3.241  0.00  0.00    -0.163 NA
ATOM     17  C   UNL     1      -5.788   2.101  -0.191  0.00  0.00    +0.066 C 
ENDROOT
BRANCH  15  18
ATOM     18  C   UNL     1      -7.166   3.860   1.868  0.00  0.00    +0.066 A 
ATOM     19  C   UNL     1      -7.387   5.160   2.304  0.00  0.00    +0.028 A 
ATOM     20  C   UNL     1      -8.615   5.757   2.096  0.00  0.00    +0.002 A 
ATOM     21  C   UNL     1      -9.627   5.058   1.465  0.00  0.00    +0.000 A 
ATOM     22  C   UNL     1      -9.412   3.761   1.034  0.00  0.00    +0.002 A 
ATOM     23  C   UNL     1      -8.184   3.161   1.234  0.00  0.00    +0.028 A 
ENDBRANCH  15  18
BRANCH   1  25
ATOM     24  N   UNL     1       0.439   3.255   8.918  0.00  0.00    -0.285 N 
ATOM     25  C   UNL     1       0.059   2.759   7.724  0.00  0.00    +0.222 C 
ATOM     26  O   UNL     1       0.762   1.954   7.151  0.00  0.00    -0.275 OA
ATOM     27  H   UNL     1      -0.155   4.046   9.399  0.00  0.00    +0.155 HD
BRANCH  24  34
ATOM     28  C   UNL     1       1.664   4.860  10.924  0.00  0.00    +0.045 C 
ATOM     29  C   UNL     1       2.218   3.514  10.531  0.00  0.00    -0.029 A 
ATOM     30  C   UNL     1       3.353   3.027  11.149  0.00  0.00    +0.005 A 
ATOM     31  C   UNL     1       3.862   1.793  10.789  0.00  0.00    +0.000 A 
ATOM     32  C   UNL     1       3.237   1.042   9.810  0.00  0.00    +0.002 A 
ATOM     33  C   UNL     1       2.099   1.522   9.192  0.00  0.00    +0.023 A 
ATOM     34  C   UNL     1       1.588   2.764   9.547  0.00  0.00    +0.036 A 
ENDBRANCH  24  34
ENDBRANCH   1  25
TORSDOF 3
