REMARK  Name = ZINC43093023
REMARK  8 active torsions:
REMARK  status: ('A' for Active; 'I' for Inactive)
REMARK    1  A    between atoms: C_1  and  C_2
REMARK    2  A    between atoms: C_2  and  C_4
REMARK    3  A    between atoms: C_2  and  N_22
REMARK    4  A    between atoms: C_4  and  C_6
REMARK    5  A    between atoms: C_4  and  N_13
REMARK    6  A    between atoms: N_13  and  C_14
REMARK    7  A    between atoms: N_13  and  C_15
REMARK    8  A    between atoms: C_15  and  C_16
REMARK                            x       y       z     vdW  Elec       q    Type
REMARK                         _______ _______ _______ _____ _____    ______ ____
ROOT
ATOM      1  C   UNL     1       0.875  -0.582   0.860  0.00  0.00    +0.073 C 
ENDROOT
BRANCH   1   2
ATOM      2  C   UNL     1      -0.166  -0.211   1.885  0.00  0.00    -0.018 A 
ATOM      3  C   UNL     1      -1.462  -0.673   1.752  0.00  0.00    +0.006 A 
ATOM      4  C   UNL     1      -2.417  -0.333   2.692  0.00  0.00    +0.000 A 
ATOM      5  C   UNL     1      -2.076   0.470   3.764  0.00  0.00    +0.001 A 
ATOM      6  C   UNL     1      -0.781   0.933   3.897  0.00  0.00    +0.015 A 
ATOM      7  C   UNL     1       0.176   0.588   2.960  0.00  0.00    +0.022 A 
ATOM      8 BR   UNL     1       1.951   1.215   3.146  0.00  0.00    -0.050 Br
ENDBRANCH   1   2
BRANCH   1  10
ATOM      9  C   UNL     1      -0.352   0.557  -0.994  0.00  0.00    -0.012 C 
ATOM     10  C   UNL     1       0.204  -0.780  -0.500  0.00  0.00    -0.056 C 
BRANCH  10  11
ATOM     11  N   UNL     1       1.190  -1.286  -1.464  0.00  0.00    +0.381 N 
ATOM     12  H   UNL     1       1.984  -0.664  -1.491  0.00  0.00    -0.090 HD
ATOM     13  H   UNL     1       1.494  -2.207  -1.182  0.00  0.00    -0.090 HD
ATOM     14  H   UNL     1       0.771  -1.337  -2.380  0.00  0.00    -0.090 HD
ENDBRANCH  10  11
ENDBRANCH   1  10
BRANCH   1  15
ATOM     15  N   UNL     1       1.537  -1.829   1.266  0.00  0.00    -0.296 NA
ATOM     16  C   UNL     1       2.404  -1.611   2.431  0.00  0.00    +0.105 C 
BRANCH  15  17
ATOM     17  C   UNL     1       0.552  -2.886   1.533  0.00  0.00    +0.120 C 
BRANCH  17  18
ATOM     18  C   UNL     1       1.235  -4.229   1.503  0.00  0.00    -0.025 A 
ATOM     19  C   UNL     1       1.335  -4.939   0.321  0.00  0.00    +0.028 A 
ATOM     20  C   UNL     1       1.956  -6.145   0.329  0.00  0.00    +0.055 A 
ATOM     21  S   UNL     1       2.424  -6.307   2.045  0.00  0.00    -0.090 S 
ATOM     22  C   UNL     1       1.766  -4.756   2.633  0.00  0.00    +0.051 A 
ATOM     23 BR   UNL     1       2.249  -7.343  -1.104  0.00  0.00    -0.043 Br
ENDBRANCH  17  18
ENDBRANCH  15  17
ENDBRANCH   1  15
TORSDOF 6
