REMARK  Name = ZINC13618000
REMARK  15 active torsions:
REMARK  status: ('A' for Active; 'I' for Inactive)
REMARK    1  A    between atoms: C_1  and  C_2
REMARK    2  A    between atoms: C_2  and  C_3
REMARK    3  A    between atoms: C_3  and  C_4
REMARK    4  A    between atoms: C_4  and  O_5
REMARK    5  A    between atoms: O_5  and  C_6
REMARK    6  A    between atoms: C_9  and  C_13
REMARK    7  A    between atoms: C_11  and  C_12
REMARK    8  A    between atoms: C_14  and  C_24
REMARK    9  A    between atoms: N_16  and  C_18
REMARK   10  A    between atoms: C_26  and  C_33
REMARK   11  A    between atoms: C_27  and  C_32
REMARK   12  A    between atoms: C_33  and  O_35
REMARK   13  A    between atoms: O_35  and  C_36
REMARK   14  A    between atoms: C_36  and  C_37
REMARK   15  A    between atoms: C_36  and  C_38
REMARK                            x       y       z     vdW  Elec       q    Type
REMARK                         _______ _______ _______ _____ _____    ______ ____
ROOT
ATOM      1  C   UNL     1       2.046  -8.758   3.319  0.00  0.00    +0.098 A 
ATOM      2  C   UNL     1       0.887  -9.474   2.963  0.00  0.00    +0.023 A 
ATOM      3  C   UNL     1       1.080 -10.769   3.297  0.00  0.00    +0.121 A 
ATOM      4  N   UNL     1       2.318 -10.877   3.845  0.00  0.00    -0.239 N 
ATOM      5  N   UNL     1       2.906  -9.606   3.843  0.00  0.00    -0.166 NA
ENDROOT
BRANCH   2   6
ATOM      6  C   UNL     1      -0.351  -8.898   2.325  0.00  0.00    +0.147 C 
ATOM      7  C   UNL     1      -1.063 -10.018   1.593  0.00  0.00    +0.078 C 
ATOM      8  C   UNL     1      -2.338 -10.288   1.946  0.00  0.00    +0.021 C 
ATOM      9  N   UNL     1      -2.964  -9.575   2.929  0.00  0.00    -0.273 N 
ATOM     10  C   UNL     1      -2.382  -8.578   3.607  0.00  0.00    +0.304 C 
ATOM     11  O   UNL     1      -3.020  -8.001   4.466  0.00  0.00    -0.252 OA
ATOM     12  N   UNL     1      -1.114  -8.193   3.368  0.00  0.00    -0.288 N 
ATOM     13  C   UNL     1      -3.084 -11.393   1.243  0.00  0.00    +0.061 C 
ATOM     14  H   UNL     1      -3.880  -9.805   3.148  0.00  0.00    +0.156 HD
ATOM     15  H   UNL     1      -0.712  -7.468   3.872  0.00  0.00    +0.151 HD
BRANCH   7  16
ATOM     16  C   UNL     1      -0.414 -10.755   0.575  0.00  0.00    +0.339 C 
ATOM     17  O   UNL     1      -0.963 -11.721   0.079  0.00  0.00    -0.245 OA
BRANCH  16  18
ATOM     18  O   UNL     1       0.813 -10.386   0.152  0.00  0.00    -0.459 OA
BRANCH  18  19
ATOM     19  C   UNL     1       1.360 -11.103  -0.956  0.00  0.00    +0.171 C 
ATOM     20  C   UNL     1       2.365 -10.214  -1.692  0.00  0.00    +0.052 C 
ATOM     21  C   UNL     1       2.068 -12.361  -0.449  0.00  0.00    +0.052 C 
ENDBRANCH  18  19
ENDBRANCH  16  18
ENDBRANCH   7  16
ENDBRANCH   2   6
BRANCH   1  25
ATOM     22  C   UNL     1       2.669  -4.585   2.775  0.00  0.00    +0.123 A 
ATOM     23  C   UNL     1       2.165  -5.352   1.733  0.00  0.00    +0.046 A 
ATOM     24  C   UNL     1       1.962  -6.705   1.906  0.00  0.00    +0.013 A 
ATOM     25  C   UNL     1       2.264  -7.302   3.129  0.00  0.00    +0.003 A 
ATOM     26  C   UNL     1       2.769  -6.530   4.173  0.00  0.00    +0.017 A 
ATOM     27  C   UNL     1       2.975  -5.178   3.992  0.00  0.00    -0.008 A 
ATOM     28  C   UNL     1       3.527  -4.343   5.119  0.00  0.00    +0.047 C 
BRANCH  22  29
ATOM     29  O   UNL     1       2.867  -3.252   2.602  0.00  0.00    -0.492 OA
BRANCH  29  30
ATOM     30  C   UNL     1       2.531  -2.707   1.325  0.00  0.00    +0.229 C 
BRANCH  30  31
ATOM     31  C   UNL     1       2.820  -1.204   1.319  0.00  0.00    +0.041 C 
BRANCH  31  33
ATOM     32  C   UNL     1       2.749   0.882  -0.054  0.00  0.00    +0.004 C 
ATOM     33  C   UNL     1       2.460  -0.621  -0.049  0.00  0.00    -0.000 C 
ENDBRANCH  31  33
ENDBRANCH  30  31
ENDBRANCH  29  30
ENDBRANCH  22  29
ENDBRANCH   1  25
BRANCH   4  34
ATOM     34  C   UNL     1       2.906 -12.055   4.325  0.00  0.00    +0.065 A 
ATOM     35  C   UNL     1       2.213 -13.257   4.257  0.00  0.00    +0.028 A 
ATOM     36  C   UNL     1       2.795 -14.416   4.731  0.00  0.00    +0.002 A 
ATOM     37  C   UNL     1       4.066 -14.382   5.272  0.00  0.00    +0.000 A 
ATOM     38  C   UNL     1       4.759 -13.187   5.342  0.00  0.00    +0.002 A 
ATOM     39  C   UNL     1       4.185 -12.025   4.864  0.00  0.00    +0.028 A 
ENDBRANCH   4  34
TORSDOF 10
