REMARK  Name = ZINC19221526
REMARK  4 active torsions:
REMARK  status: ('A' for Active; 'I' for Inactive)
REMARK    1  A    between atoms: C_1  and  C_2
REMARK    2  A    between atoms: C_10  and  C_12
REMARK    3  A    between atoms: C_18  and  C_20
REMARK    4  A    between atoms: C_22  and  C_25
REMARK                            x       y       z     vdW  Elec       q    Type
REMARK                         _______ _______ _______ _____ _____    ______ ____
ROOT
ATOM      1  C   UNL     1       0.090  -5.594   2.249  0.00  0.00    +0.142 C 
ATOM      2  C   UNL     1      -1.094  -6.460   1.770  0.00  0.00    +0.032 C 
ATOM      3  C   UNL     1      -1.549  -7.176   3.069  0.00  0.00    +0.021 C 
ATOM      4  C   UNL     1      -1.305  -6.076   4.133  0.00  0.00    +0.109 C 
ATOM      5  N   UNL     1      -0.066  -5.397   3.698  0.00  0.00    -0.286 N 
ATOM      6  C   UNL     1       0.779  -4.713   4.494  0.00  0.00    +0.269 C 
ATOM      7  O   UNL     1       1.772  -4.194   4.023  0.00  0.00    -0.268 OA
ENDROOT
BRANCH   1  17
ATOM      8  C   UNL     1      -0.018   1.503   0.010  0.00  0.00    +0.044 C 
ATOM      9  C   UNL     1       0.002  -0.004   0.002  0.00  0.00    -0.048 A 
ATOM     10  C   UNL     1       0.006  -0.687  -1.206  0.00  0.00    +0.005 A 
ATOM     11  C   UNL     1       0.024  -2.052  -1.235  0.00  0.00    +0.030 A 
ATOM     12  C   UNL     1       0.040  -2.774  -0.039  0.00  0.00    +0.089 A 
ATOM     13  C   UNL     1       0.037  -2.083   1.185  0.00  0.00    +0.067 A 
ATOM     14  C   UNL     1       0.023  -0.695   1.195  0.00  0.00    +0.031 A 
ATOM     15  N   UNL     1       0.055  -3.051   2.169  0.00  0.00    -0.340 N 
ATOM     16  H   UNL     1       0.057  -2.898   3.127  0.00  0.00    +0.167 HD
ATOM     17  C   UNL     1       0.068  -4.261   1.546  0.00  0.00    +0.129 A 
ATOM     18  N   UNL     1       0.059  -4.099   0.255  0.00  0.00    -0.231 NA
ENDBRANCH   1  17
BRANCH   6  19
ATOM     19  C   UNL     1       0.498  -4.593   5.946  0.00  0.00    +0.168 A 
ATOM     20  C   UNL     1       1.289  -3.906   6.888  0.00  0.00    +0.089 A 
ATOM     21  C   UNL     1       0.691  -4.031   8.108  0.00  0.00    +0.203 A 
ATOM     22  O   UNL     1      -0.428  -4.763   7.946  0.00  0.00    -0.351 OA
ATOM     23  N   UNL     1      -0.534  -5.104   6.576  0.00  0.00    -0.073 NA
BRANCH  21  24
ATOM     24  C   UNL     1       1.181  -3.466   9.374  0.00  0.00    +0.172 A 
ATOM     25  C   UNL     1       0.584  -3.597  10.593  0.00  0.00    +0.053 A 
ATOM     26  C   UNL     1       1.389  -2.904  11.514  0.00  0.00    +0.042 A 
ATOM     27  C   UNL     1       2.427  -2.388  10.824  0.00  0.00    +0.196 A 
ATOM     28  O   UNL     1       2.301  -2.734   9.534  0.00  0.00    -0.460 OA
ENDBRANCH  21  24
ENDBRANCH   6  19
TORSDOF 3
