REMARK  Name = ZINC40725468
REMARK  5 active torsions:
REMARK  status: ('A' for Active; 'I' for Inactive)
REMARK    1  A    between atoms: C_1  and  C_2
REMARK    2  A    between atoms: N_6  and  S_8
REMARK    3  A    between atoms: S_8  and  C_11
REMARK    4  A    between atoms: C_14  and  N_17
REMARK    5  A    between atoms: N_17  and  N_18
REMARK                            x       y       z     vdW  Elec       q    Type
REMARK                         _______ _______ _______ _____ _____    ______ ____
ROOT
ATOM      1  C   UNL     1       1.805  -4.048   1.118  0.00  0.00    +0.106 A 
ATOM      2  C   UNL     1       1.253  -5.096   0.404  0.00  0.00    +0.030 A 
ATOM      3  C   UNL     1       2.022  -5.796  -0.504  0.00  0.00    +0.026 A 
ATOM      4  C   UNL     1       3.352  -5.447  -0.700  0.00  0.00    +0.041 A 
ATOM      5  C   UNL     1       3.904  -4.393   0.018  0.00  0.00    +0.026 A 
ATOM      6  C   UNL     1       3.127  -3.694   0.921  0.00  0.00    +0.030 A 
ENDROOT
BRANCH   1   7
ATOM      7  S   UNL     1       0.820  -3.157   2.275  0.00  0.00    +0.061 S 
ATOM      8  O   UNL     1       1.718  -2.570   3.207  0.00  0.00    -0.153 OA
ATOM      9  O   UNL     1      -0.228  -4.030   2.674  0.00  0.00    -0.153 OA
BRANCH   7  14
ATOM     10  C   UNL     1      -0.019   1.526   0.010  0.00  0.00    +0.009 C 
ATOM     11  C   UNL     1       0.002  -0.004   0.002  0.00  0.00    +0.003 C 
ATOM     12  C   UNL     1      -1.433  -0.580   0.128  0.00  0.00    +0.021 C 
ATOM     13  C   UNL     1      -1.195  -1.962   0.773  0.00  0.00    +0.110 C 
ATOM     14  N   UNL     1       0.107  -1.908   1.453  0.00  0.00    -0.176 NA
ATOM     15  C   UNL     1       0.674  -0.557   1.283  0.00  0.00    +0.112 C 
ENDBRANCH   7  14
ENDBRANCH   1   7
BRANCH   4  16
ATOM     16  N   UNL     1       4.133  -6.153  -1.618  0.00  0.00    -0.283 N 
ATOM     17  H   UNL     1       3.747  -6.888  -2.119  0.00  0.00    +0.166 HD
BRANCH  16  18
ATOM     18  N   UNL     1       5.441  -5.808  -1.809  0.00  0.00    -0.257 NA
ATOM     19  H   UNL     1       5.875  -6.404  -2.498  0.00  0.00    +0.140 HD
ATOM     20  H   UNL     1       5.525  -4.837  -2.068  0.00  0.00    +0.140 HD
ENDBRANCH  16  18
ENDBRANCH   4  16
TORSDOF 4
