REMARK  Name = ZINC12461804
REMARK  8 active torsions:
REMARK  status: ('A' for Active; 'I' for Inactive)
REMARK    1  A    between atoms: C_1  and  C_2
REMARK    2  A    between atoms: C_5  and  S_8
REMARK    3  A    between atoms: S_8  and  N_11
REMARK    4  A    between atoms: C_14  and  C_15
REMARK    5  A    between atoms: C_18  and  O_21
REMARK    6  A    between atoms: O_21  and  C_22
REMARK    7  A    between atoms: C_26  and  N_32
REMARK    8  A    between atoms: C_28  and  N_29
REMARK                            x       y       z     vdW  Elec       q    Type
REMARK                         _______ _______ _______ _____ _____    ______ ____
ROOT
ATOM      1  N   UNL     1      -0.135   1.413  -0.412  0.00  0.00    -0.198 N 
ATOM      2  C   UNL     1      -0.139  -0.032  -0.168  0.00  0.00    +0.167 C 
ATOM      3  C   UNL     1       1.309  -0.414   0.048  0.00  0.00    -0.017 C 
ATOM      4  C   UNL     1       1.798  -1.638   0.306  0.00  0.00    +0.014 C 
ATOM      5  C   UNL     1       2.070   0.844  -0.085  0.00  0.00    +0.033 A 
ATOM      6  C   UNL     1       1.174   1.887  -0.355  0.00  0.00    +0.063 A 
ATOM      7  C   UNL     1       1.667   3.178  -0.522  0.00  0.00    +0.058 A 
ATOM      8  C   UNL     1       3.022   3.424  -0.423  0.00  0.00    +0.130 A 
ATOM      9  C   UNL     1       3.906   2.393  -0.157  0.00  0.00    +0.066 A 
ATOM     10  C   UNL     1       3.438   1.107   0.014  0.00  0.00    +0.138 A 
ENDROOT
BRANCH   4  11
ATOM     11  C   UNL     1       0.879  -2.758   0.573  0.00  0.00    -0.024 A 
ATOM     12  C   UNL     1      -0.304  -2.539   1.285  0.00  0.00    +0.011 A 
ATOM     13  C   UNL     1      -1.163  -3.589   1.528  0.00  0.00    +0.046 A 
ATOM     14  C   UNL     1      -0.850  -4.864   1.077  0.00  0.00    +0.120 A 
ATOM     15  C   UNL     1       0.326  -5.087   0.373  0.00  0.00    +0.046 A 
ATOM     16  C   UNL     1       1.189  -4.043   0.120  0.00  0.00    +0.011 A 
BRANCH  14  17
ATOM     17  O   UNL     1      -1.698  -5.897   1.323  0.00  0.00    -0.495 OA
ATOM     18  C   UNL     1      -2.890  -5.598   2.052  0.00  0.00    +0.277 C 
ENDBRANCH  14  17
ENDBRANCH   4  11
BRANCH   1  19
ATOM     19  S   UNL     1      -1.476   2.337  -0.714  0.00  0.00    +0.075 S 
ATOM     20  O   UNL     1      -1.026   3.485  -1.422  0.00  0.00    -0.150 OA
ATOM     21  O   UNL     1      -2.465   1.460  -1.235  0.00  0.00    -0.150 OA
BRANCH  19  26
ATOM     22  C   UNL     1      -3.537   4.291   4.609  0.00  0.00    +0.044 C 
ATOM     23  C   UNL     1      -3.022   3.803   3.280  0.00  0.00    -0.050 A 
ATOM     24  C   UNL     1      -2.094   4.552   2.581  0.00  0.00    +0.005 A 
ATOM     25  C   UNL     1      -1.622   4.104   1.361  0.00  0.00    +0.029 A 
ATOM     26  C   UNL     1      -2.077   2.908   0.841  0.00  0.00    +0.109 A 
ATOM     27  C   UNL     1      -3.009   2.161   1.537  0.00  0.00    +0.029 A 
ATOM     28  C   UNL     1      -3.477   2.606   2.760  0.00  0.00    +0.005 A 
ENDBRANCH  19  26
ENDBRANCH   1  19
BRANCH  10  29
ATOM     29  N   UNL     1       4.386   0.005   0.300  0.00  0.00    +0.057 N 
ATOM     30  O   UNL     1       4.163  -0.768   1.214  0.00  0.00    -0.126 OA
ATOM     31  O   UNL     1       5.388  -0.128  -0.379  0.00  0.00    -0.126 OA
ENDBRANCH  10  29
BRANCH   8  32
ATOM     32  N   UNL     1       3.533   4.802  -0.604  0.00  0.00    +0.057 N 
ATOM     33  O   UNL     1       2.759   5.713  -0.838  0.00  0.00    -0.126 OA
ATOM     34  O   UNL     1       4.727   5.024  -0.517  0.00  0.00    -0.126 OA
ENDBRANCH   8  32
TORSDOF 6
