REMARK  Name = ZINC39757541
REMARK  11 active torsions:
REMARK  status: ('A' for Active; 'I' for Inactive)
REMARK    1  A    between atoms: C_2  and  C_3
REMARK    2  A    between atoms: C_3  and  N_4
REMARK    3  A    between atoms: C_5  and  C_23
REMARK    4  A    between atoms: C_8  and  S_9
REMARK    5  A    between atoms: S_9  and  C_10
REMARK    6  A    between atoms: C_10  and  C_11
REMARK    7  A    between atoms: C_11  and  C_13
REMARK    8  A    between atoms: C_17  and  N_19
REMARK    9  A    between atoms: C_23  and  C_24
REMARK   10  A    between atoms: C_24  and  N_25
REMARK   11  A    between atoms: C_26  and  C_28
REMARK                            x       y       z     vdW  Elec       q    Type
REMARK                         _______ _______ _______ _____ _____    ______ ____
ROOT
ATOM      1  N   UNL     1       1.367  -1.676   1.111  0.00  0.00    -0.302 N 
ATOM      2  C   UNL     1       1.833  -1.425   2.373  0.00  0.00    +0.136 A 
ATOM      3  N   UNL     1       1.697  -2.523   3.061  0.00  0.00    -0.133 NA
ATOM      4  N   UNL     1       1.181  -3.444   2.327  0.00  0.00    -0.122 NA
ATOM      5  C   UNL     1       0.954  -2.977   1.121  0.00  0.00    +0.192 A 
ENDROOT
BRANCH   1   6
ATOM      6  C   UNL     1       1.317  -0.740  -0.015  0.00  0.00    +0.152 C 
BRANCH   6   8
ATOM      7  C   UNL     1      -0.016   1.306   0.009  0.00  0.00    +0.005 C 
ATOM      8  C   UNL     1       0.002  -0.004   0.002  0.00  0.00    -0.013 C 
ENDBRANCH   6   8
ENDBRANCH   1   6
BRANCH   5   9
ATOM      9  S   UNL     1       0.251  -3.863  -0.230  0.00  0.00    -0.078 S 
BRANCH   9  10
ATOM     10  C   UNL     1      -0.067  -5.515   0.447  0.00  0.00    +0.157 C 
BRANCH  10  11
ATOM     11  C   UNL     1      -0.677  -6.386  -0.621  0.00  0.00    +0.173 C 
ATOM     12  O   UNL     1      -0.877  -5.937  -1.729  0.00  0.00    -0.291 OA
BRANCH  11  13
ATOM     13  C   UNL     1      -1.030  -7.782  -0.319  0.00  0.00    +0.020 A 
ATOM     14  C   UNL     1      -0.806  -8.303   0.961  0.00  0.00    +0.013 A 
ATOM     15  C   UNL     1      -1.139  -9.611   1.236  0.00  0.00    +0.023 A 
ATOM     16  C   UNL     1      -1.694 -10.411   0.250  0.00  0.00    +0.071 A 
ATOM     17  C   UNL     1      -1.919  -9.902  -1.019  0.00  0.00    +0.145 A 
ATOM     18  C   UNL     1      -1.596  -8.594  -1.307  0.00  0.00    +0.045 A 
ATOM     19 CL   UNL     1      -2.111 -12.058   0.607  0.00  0.00    -0.081 Cl
BRANCH  17  20
ATOM     20  N   UNL     1      -2.511 -10.765  -2.065  0.00  0.00    +0.058 N 
ATOM     21  O   UNL     1      -2.708 -10.323  -3.173  0.00  0.00    -0.126 OA
ATOM     22  O   UNL     1      -2.799 -11.912  -1.812  0.00  0.00    -0.126 OA
ENDBRANCH  17  20
ENDBRANCH  11  13
ENDBRANCH  10  11
ENDBRANCH   9  10
ENDBRANCH   5   9
BRANCH   2  23
ATOM     23  C   UNL     1       2.398  -0.122   2.874  0.00  0.00    +0.095 C 
BRANCH  23  24
ATOM     24  C   UNL     1       1.269   0.737   3.448  0.00  0.00    +0.112 C 
BRANCH  24  25
ATOM     25  N   UNL     1       1.819   2.005   3.935  0.00  0.00    -0.311 N 
ATOM     26  C   UNL     1       1.003   2.925   4.486  0.00  0.00    +0.247 C 
ATOM     27  O   UNL     1      -0.189   2.704   4.579  0.00  0.00    -0.270 OA
ATOM     28  H   UNL     1       2.769   2.181   3.861  0.00  0.00    +0.149 HD
BRANCH  26  29
ATOM     29  C   UNL     1       1.557   4.203   4.977  0.00  0.00    +0.072 A 
ATOM     30  C   UNL     1       2.925   4.463   4.867  0.00  0.00    +0.016 A 
ATOM     31  C   UNL     1       3.436   5.659   5.327  0.00  0.00    +0.001 A 
ATOM     32  C   UNL     1       2.597   6.601   5.898  0.00  0.00    +0.003 A 
ATOM     33  C   UNL     1       1.242   6.352   6.012  0.00  0.00    +0.039 A 
ATOM     34  C   UNL     1       0.714   5.161   5.550  0.00  0.00    +0.135 A 
ATOM     35  F   UNL     1      -0.611   4.920   5.656  0.00  0.00    -0.205 F 
ENDBRANCH  26  29
ENDBRANCH  24  25
ENDBRANCH  23  24
ENDBRANCH   2  23
TORSDOF 11
