REMARK  Name = ZINC36737096
REMARK  3 active torsions:
REMARK  status: ('A' for Active; 'I' for Inactive)
REMARK    1  A    between atoms: C_4  and  C_8
REMARK    2  A    between atoms: N_10  and  C_11
REMARK    3  A    between atoms: C_16  and  N_17
REMARK                            x       y       z     vdW  Elec       q    Type
REMARK                         _______ _______ _______ _____ _____    ______ ____
ROOT
ATOM      1  C   UNL     1       3.625  -0.826   0.547  0.00  0.00    +0.251 C 
ATOM      2  O   UNL     1       4.602  -0.333   1.077  0.00  0.00    -0.270 OA
ATOM      3  N   UNL     1       3.717  -2.033  -0.046  0.00  0.00    -0.280 N 
ATOM      4  H   UNL     1       2.922  -2.463  -0.398  0.00  0.00    +0.155 HD
ENDROOT
BRANCH   3   5
ATOM      5  C   UNL     1       4.963  -2.667  -0.155  0.00  0.00    +0.058 A 
ATOM      6  C   UNL     1       6.128  -1.914  -0.149  0.00  0.00    +0.074 A 
ATOM      7  C   UNL     1       7.359  -2.540  -0.257  0.00  0.00    +0.168 A 
ATOM      8  C   UNL     1       7.428  -3.926  -0.370  0.00  0.00    +0.168 A 
ATOM      9  C   UNL     1       6.266  -4.680  -0.375  0.00  0.00    +0.074 A 
ATOM     10  C   UNL     1       5.032  -4.055  -0.263  0.00  0.00    +0.050 A 
ATOM     11  O   UNL     1       8.742  -4.292  -0.461  0.00  0.00    -0.453 OA
ATOM     12  C   UNL     1       9.452  -3.090  -0.814  0.00  0.00    +0.466 C 
ATOM     13  O   UNL     1       8.630  -2.037  -0.277  0.00  0.00    -0.453 OA
BRANCH  10  14
ATOM     14  N   UNL     1       3.857  -4.818  -0.263  0.00  0.00    -0.356 N 
ATOM     15  H   UNL     1       2.995  -4.380  -0.189  0.00  0.00    +0.142 HD
ATOM     16  H   UNL     1       3.906  -5.784  -0.339  0.00  0.00    +0.142 HD
ENDBRANCH  10  14
ENDBRANCH   3   5
BRANCH   1  20
ATOM     17  C   UNL     1      -0.080   1.256   0.567  0.00  0.00    +0.041 A 
ATOM     18  C   UNL     1       1.029   1.820   1.171  0.00  0.00    +0.042 A 
ATOM     19  C   UNL     1       2.237   1.149   1.169  0.00  0.00    +0.136 A 
ATOM     20  C   UNL     1       2.337  -0.103   0.554  0.00  0.00    +0.075 A 
ATOM     21  C   UNL     1       1.213  -0.667  -0.053  0.00  0.00    +0.054 A 
ATOM     22  C   UNL     1       0.012   0.015  -0.044  0.00  0.00    +0.124 A 
ATOM     23  F   UNL     1      -1.076  -0.529  -0.631  0.00  0.00    -0.205 F 
ATOM     24  F   UNL     1       3.320   1.702   1.758  0.00  0.00    -0.205 F 
ENDBRANCH   1  20
TORSDOF 3
