REMARK  Name = ZINC12873875
REMARK  6 active torsions:
REMARK  status: ('A' for Active; 'I' for Inactive)
REMARK    1  A    between atoms: C_1  and  C_2
REMARK    2  A    between atoms: C_5  and  N_8
REMARK    3  A    between atoms: C_13  and  C_31
REMARK    4  A    between atoms: C_24  and  C_29
REMARK    5  A    between atoms: C_31  and  C_32
REMARK    6  A    between atoms: C_32  and  C_33
REMARK                            x       y       z     vdW  Elec       q    Type
REMARK                         _______ _______ _______ _____ _____    ______ ____
ROOT
ATOM      1  N   UNL     1       2.100   1.632   3.043  0.00  0.00    -0.210 N 
ATOM      2  C   UNL     1       1.408   0.622   2.469  0.00  0.00    +0.228 C 
ATOM      3  O   UNL     1       1.884  -0.332   1.892  0.00  0.00    -0.275 OA
ATOM      4  C   UNL     1      -0.069   0.879   2.661  0.00  0.00    +0.073 C 
ATOM      5  C   UNL     1      -0.714   1.198   1.296  0.00  0.00    -0.057 C 
ATOM      6  C   UNL     1      -0.773   3.211   2.481  0.00  0.00    +0.050 C 
ATOM      7  C   UNL     1      -0.117   2.218   3.448  0.00  0.00    +0.088 C 
ATOM      8  C   UNL     1       1.343   2.571   3.623  0.00  0.00    +0.229 C 
ATOM      9  O   UNL     1       1.762   3.552   4.199  0.00  0.00    -0.275 OA
ATOM     10  C   UNL     1      -2.237   3.379   2.772  0.00  0.00    -0.027 A 
ATOM     11  C   UNL     1      -3.304   2.509   2.802  0.00  0.00    +0.006 A 
ATOM     12  C   UNL     1      -4.569   2.974   3.114  0.00  0.00    +0.020 A 
ATOM     13  C   UNL     1      -4.760   4.316   3.395  0.00  0.00    +0.046 A 
ATOM     14  C   UNL     1      -3.693   5.191   3.366  0.00  0.00    -0.011 A 
ATOM     15  C   UNL     1      -2.417   4.731   3.052  0.00  0.00    +0.040 A 
ATOM     16  N   UNL     1      -1.199   5.409   2.958  0.00  0.00    -0.286 N 
ATOM     17  C   UNL     1      -0.185   4.588   2.624  0.00  0.00    +0.211 C 
ATOM     18  O   UNL     1       0.977   4.898   2.469  0.00  0.00    -0.277 OA
ATOM     19  C   UNL     1      -3.910   6.651   3.674  0.00  0.00    +0.047 C 
ATOM     20 CL   UNL     1      -6.347   4.900   3.786  0.00  0.00    -0.083 Cl
ATOM     21  H   UNL     1      -1.096   6.360   3.115  0.00  0.00    +0.155 HD
ATOM     22  N   UNL     1      -0.557   2.648   1.160  0.00  0.00    +0.394 N 
ATOM     23  H   UNL     1      -1.249   3.019   0.498  0.00  0.00    -0.083 HD
ATOM     24  H   UNL     1       0.389   2.873   0.828  0.00  0.00    -0.083 HD
ENDROOT
BRANCH   1  29
ATOM     25  C   UNL     1       7.772   1.848   3.014  0.00  0.00    +0.044 C 
ATOM     26  C   UNL     1       6.266   1.791   3.022  0.00  0.00    -0.050 A 
ATOM     27  C   UNL     1       5.589   1.598   4.212  0.00  0.00    +0.005 A 
ATOM     28  C   UNL     1       4.209   1.545   4.222  0.00  0.00    +0.024 A 
ATOM     29  C   UNL     1       3.501   1.686   3.036  0.00  0.00    +0.044 A 
ATOM     30  C   UNL     1       4.184   1.875   1.842  0.00  0.00    +0.024 A 
ATOM     31  C   UNL     1       5.564   1.933   1.839  0.00  0.00    +0.005 A 
ENDBRANCH   1  29
BRANCH   5  32
ATOM     32  C   UNL     1       0.013   0.450   0.176  0.00  0.00    -0.006 C 
BRANCH  32  33
ATOM     33  C   UNL     1      -0.717   0.681  -1.148  0.00  0.00    +0.094 C 
BRANCH  33  34
ATOM     34  C   UNL     1      -0.002  -0.056  -2.251  0.00  0.00    +0.210 C 
ATOM     35  O   UNL     1       0.994  -0.702  -2.002  0.00  0.00    -0.276 OA
ATOM     36  N   UNL     1      -0.468   0.004  -3.514  0.00  0.00    -0.329 N 
ATOM     37  H   UNL     1      -1.265   0.520  -3.713  0.00  0.00    +0.145 HD
ATOM     38  H   UNL     1      -0.008  -0.471  -4.224  0.00  0.00    +0.145 HD
ENDBRANCH  33  34
ENDBRANCH  32  33
ENDBRANCH   5  32
TORSDOF 4
