REMARK  Name = ZINC12706206
REMARK  10 active torsions:
REMARK  status: ('A' for Active; 'I' for Inactive)
REMARK    1  A    between atoms: C_1  and  C_2
REMARK    2  A    between atoms: C_5  and  C_8
REMARK    3  A    between atoms: C_8  and  C_10
REMARK    4  A    between atoms: C_8  and  N_20
REMARK    5  A    between atoms: N_12  and  C_13
REMARK    6  A    between atoms: C_13  and  C_14
REMARK    7  A    between atoms: N_20  and  C_21
REMARK    8  A    between atoms: C_28  and  C_30
REMARK    9  A    between atoms: C_31  and  N_38
REMARK   10  A    between atoms: C_32  and  C_35
REMARK                            x       y       z     vdW  Elec       q    Type
REMARK                         _______ _______ _______ _____ _____    ______ ____
ROOT
ATOM      1  N   UNL     1      -5.330   0.571   3.696  0.00  0.00    -0.251 N 
ATOM      2  C   UNL     1      -4.732  -0.017   4.751  0.00  0.00    +0.262 C 
ATOM      3  O   UNL     1      -3.523  -0.155   4.766  0.00  0.00    -0.269 OA
ENDROOT
BRANCH   1   4
ATOM      4  C   UNL     1      -6.710   0.805   3.714  0.00  0.00    +0.038 A 
ATOM      5  C   UNL     1      -7.240   1.772   4.558  0.00  0.00    +0.026 A 
ATOM      6  C   UNL     1      -8.601   2.005   4.571  0.00  0.00    +0.040 A 
ATOM      7  C   UNL     1      -9.438   1.268   3.751  0.00  0.00    +0.124 A 
ATOM      8  C   UNL     1      -8.912   0.299   2.912  0.00  0.00    +0.040 A 
ATOM      9  C   UNL     1      -7.551   0.067   2.892  0.00  0.00    +0.026 A 
ATOM     10  F   UNL     1     -10.770   1.494   3.768  0.00  0.00    -0.205 F 
ENDBRANCH   1   4
BRANCH   2  11
ATOM     11  C   UNL     1      -5.537  -0.490   5.878  0.00  0.00    +0.116 A 
ATOM     12  C   UNL     1      -5.122  -1.020   7.102  0.00  0.00    +0.076 A 
ATOM     13  C   UNL     1      -6.194  -1.361   7.927  0.00  0.00    +0.155 A 
ATOM     14  N   UNL     1      -7.422  -1.162   7.502  0.00  0.00    -0.203 NA
ATOM     15  S   UNL     1      -7.308  -0.537   6.060  0.00  0.00    +0.019 S 
BRANCH  13  16
ATOM     16  C   UNL     1      -5.952  -1.936   9.263  0.00  0.00    +0.262 C 
ATOM     17  O   UNL     1      -4.813  -2.116   9.650  0.00  0.00    -0.269 OA
ATOM     18  N   UNL     1      -6.992  -2.262  10.055  0.00  0.00    -0.324 N 
ATOM     19  H   UNL     1      -7.901  -2.118   9.746  0.00  0.00    +0.145 HD
ATOM     20  H   UNL     1      -6.833  -2.640  10.934  0.00  0.00    +0.145 HD
ENDBRANCH  13  16
BRANCH  12  21
ATOM     21  N   UNL     1      -3.791  -1.189   7.457  0.00  0.00    -0.355 N 
ATOM     22  H   UNL     1      -3.088  -0.933   6.840  0.00  0.00    +0.142 HD
ATOM     23  H   UNL     1      -3.564  -1.563   8.323  0.00  0.00    +0.142 HD
ENDBRANCH  12  21
ENDBRANCH   2  11
BRANCH   1  24
ATOM     24  C   UNL     1      -4.535   0.965   2.530  0.00  0.00    +0.197 C 
BRANCH  24  29
ATOM     25  C   UNL     1      -8.059   2.750  -1.688  0.00  0.00    +0.044 C 
ATOM     26  C   UNL     1      -7.141   2.284  -0.588  0.00  0.00    -0.050 A 
ATOM     27  C   UNL     1      -6.197   1.307  -0.843  0.00  0.00    +0.004 A 
ATOM     28  C   UNL     1      -5.354   0.880   0.166  0.00  0.00    +0.006 A 
ATOM     29  C   UNL     1      -5.454   1.430   1.430  0.00  0.00    -0.018 A 
ATOM     30  C   UNL     1      -6.402   2.404   1.686  0.00  0.00    +0.006 A 
ATOM     31  C   UNL     1      -7.241   2.835   0.676  0.00  0.00    +0.004 A 
ENDBRANCH  24  29
BRANCH  24  32
ATOM     32  C   UNL     1      -3.603   2.085   2.913  0.00  0.00    +0.239 C 
ATOM     33  O   UNL     1      -3.601   2.511   4.048  0.00  0.00    -0.273 OA
ATOM     34  N   UNL     1      -2.769   2.612   1.994  0.00  0.00    -0.311 N 
ATOM     35  H   UNL     1      -2.770   2.270   1.086  0.00  0.00    +0.149 HD
BRANCH  34  36
ATOM     36  C   UNL     1      -1.863   3.700   2.366  0.00  0.00    +0.135 C 
BRANCH  36  37
ATOM     37  C   UNL     1      -1.033   4.112   1.148  0.00  0.00    +0.135 C 
ATOM     38  C   UNL     1      -0.008   5.200   1.538  0.00  0.00    +0.035 C 
ATOM     39  C   UNL     1       0.032   6.136   0.309  0.00  0.00    +0.031 C 
ATOM     40  C   UNL     1      -0.973   5.502  -0.678  0.00  0.00    +0.160 C 
ATOM     41  O   UNL     1      -1.872   4.736   0.152  0.00  0.00    -0.375 OA
ENDBRANCH  36  37
ENDBRANCH  34  36
ENDBRANCH  24  32
ENDBRANCH   1  24
TORSDOF 9
