REMARK  Name = ZINC35450288
REMARK  11 active torsions:
REMARK  status: ('A' for Active; 'I' for Inactive)
REMARK    1  A    between atoms: C_1  and  C_2
REMARK    2  A    between atoms: C_2  and  C_3
REMARK    3  A    between atoms: C_3  and  C_5
REMARK    4  A    between atoms: C_3  and  S_6
REMARK    5  A    between atoms: S_6  and  C_7
REMARK    6  A    between atoms: C_14  and  C_26
REMARK    7  A    between atoms: C_20  and  C_24
REMARK    8  A    between atoms: C_20  and  C_25
REMARK    9  A    between atoms: C_29  and  O_34
REMARK   10  A    between atoms: C_30  and  O_32
REMARK   11  A    between atoms: O_32  and  C_33
REMARK                            x       y       z     vdW  Elec       q    Type
REMARK                         _______ _______ _______ _____ _____    ______ ____
ROOT
ATOM      1  C   UNL     1       3.102  -0.498  -2.760  0.00  0.00    +0.171 A 
ATOM      2  N   UNL     1       2.304  -1.089  -3.626  0.00  0.00    -0.208 NA
ATOM      3  C   UNL     1       2.754  -1.486  -4.820  0.00  0.00    +0.135 A 
ATOM      4  C   UNL     1       4.080  -1.280  -5.160  0.00  0.00    +0.069 A 
ATOM      5  C   UNL     1       4.924  -0.651  -4.237  0.00  0.00    +0.258 A 
ATOM      6  O   UNL     1       6.098  -0.451  -4.503  0.00  0.00    -0.267 OA
ATOM      7  N   UNL     1       4.413  -0.265  -3.049  0.00  0.00    -0.302 N 
ATOM      8  C   UNL     1       4.610  -1.726  -6.490  0.00  0.00    +0.093 C 
ATOM      9  C   UNL     1       3.491  -1.975  -7.470  0.00  0.00    +0.024 C 
ATOM     10  C   UNL     1       2.221  -2.154  -7.051  0.00  0.00    +0.017 C 
ATOM     11  N   UNL     1       1.905  -2.099  -5.721  0.00  0.00    -0.302 N 
ATOM     12  C   UNL     1       1.110  -2.426  -8.035  0.00  0.00    +0.058 C 
ATOM     13  C   UNL     1       1.416  -1.728  -9.362  0.00  0.00    -0.023 C 
ATOM     14  C   UNL     1       2.759  -2.247  -9.884  0.00  0.00    +0.086 C 
ATOM     15  C   UNL     1       3.814  -2.014  -8.838  0.00  0.00    +0.162 C 
ATOM     16  O   UNL     1       4.969  -1.855  -9.182  0.00  0.00    -0.292 OA
ATOM     17  C   UNL     1       1.498  -0.216  -9.142  0.00  0.00    +0.011 C 
ATOM     18  C   UNL     1       0.313  -2.042 -10.376  0.00  0.00    +0.011 C 
ATOM     19  H   UNL     1       1.077  -2.493  -5.407  0.00  0.00    +0.153 HD
ATOM     20  H   UNL     1       4.981   0.176  -2.398  0.00  0.00    +0.171 HD
ENDROOT
BRANCH   8  21
ATOM     21  C   UNL     1       5.397  -2.998  -6.307  0.00  0.00    -0.032 A 
ATOM     22  C   UNL     1       4.777  -4.124  -5.798  0.00  0.00    +0.008 A 
ATOM     23  C   UNL     1       5.495  -5.294  -5.628  0.00  0.00    +0.049 A 
ATOM     24  C   UNL     1       6.837  -5.339  -5.969  0.00  0.00    +0.158 A 
ATOM     25  C   UNL     1       7.460  -4.205  -6.482  0.00  0.00    +0.162 A 
ATOM     26  C   UNL     1       6.734  -3.037  -6.654  0.00  0.00    +0.054 A 
BRANCH  25  27
ATOM     27  O   UNL     1       8.777  -4.244  -6.817  0.00  0.00    -0.491 OA
ATOM     28  C   UNL     1       9.351  -3.043  -7.338  0.00  0.00    +0.277 C 
ENDBRANCH  25  27
BRANCH  24  29
ATOM     29  O   UNL     1       7.544  -6.489  -5.802  0.00  0.00    -0.503 OA
ATOM     30  H   UNL     1       7.533  -7.073  -6.573  0.00  0.00    +0.292 HD
ENDBRANCH  24  29
ENDBRANCH   8  21
BRANCH   1  31
ATOM     31  S   UNL     1       2.460   0.006  -1.198  0.00  0.00    -0.085 S 
BRANCH  31  32
ATOM     32  C   UNL     1       0.718  -0.497  -1.257  0.00  0.00    +0.051 C 
ATOM     33  C   UNL     1       0.630  -2.023  -1.329  0.00  0.00    +0.019 C 
BRANCH  32  35
ATOM     34  C   UNL     1      -0.019   1.526   0.010  0.00  0.00    +0.005 C 
ATOM     35  C   UNL     1       0.002  -0.004   0.002  0.00  0.00    +0.011 C 
ENDBRANCH  32  35
ENDBRANCH  31  32
ENDBRANCH   1  31
TORSDOF 6
