REMARK  Name = ZINC38508185
REMARK  10 active torsions:
REMARK  status: ('A' for Active; 'I' for Inactive)
REMARK    1  A    between atoms: C_1  and  C_2
REMARK    2  A    between atoms: C_4  and  C_10
REMARK    3  A    between atoms: N_6  and  C_7
REMARK    4  A    between atoms: C_7  and  C_8
REMARK    5  A    between atoms: C_7  and  C_9
REMARK    6  A    between atoms: C_10  and  N_12
REMARK    7  A    between atoms: N_14  and  C_26
REMARK    8  A    between atoms: C_18  and  S_22
REMARK    9  A    between atoms: S_22  and  N_25
REMARK   10  A    between atoms: C_26  and  C_27
REMARK                            x       y       z     vdW  Elec       q    Type
REMARK                         _______ _______ _______ _____ _____    ______ ____
ROOT
ATOM      1  N   UNL     1       0.062  -4.558  -0.791  0.00  0.00    -0.151 NA
ATOM      2  C   UNL     1       0.074  -5.673  -1.513  0.00  0.00    +0.167 A 
ATOM      3  N   UNL     1       0.088  -6.956  -1.065  0.00  0.00    -0.317 N 
ATOM      4  C   UNL     1       0.098  -8.000  -1.970  0.00  0.00    +0.058 A 
ATOM      5  C   UNL     1       0.113  -9.380  -1.730  0.00  0.00    +0.029 A 
ATOM      6  C   UNL     1       0.122 -10.274  -2.776  0.00  0.00    +0.030 A 
ATOM      7  C   UNL     1       0.117  -9.838  -4.090  0.00  0.00    +0.106 A 
ATOM      8  C   UNL     1       0.102  -8.480  -4.355  0.00  0.00    +0.045 A 
ATOM      9  C   UNL     1       0.093  -7.587  -3.311  0.00  0.00    +0.041 A 
ATOM     10  S   UNL     1       0.067  -5.817  -3.187  0.00  0.00    -0.052 S 
ENDROOT
BRANCH   7  11
ATOM     11  S   UNL     1       0.129 -11.003  -5.413  0.00  0.00    +0.056 S 
ATOM     12  O   UNL     1       0.672 -10.330  -6.541  0.00  0.00    -0.153 OA
ATOM     13  O   UNL     1       0.694 -12.200  -4.895  0.00  0.00    -0.153 OA
BRANCH  11  14
ATOM     14  N   UNL     1      -1.449 -11.344  -5.780  0.00  0.00    -0.204 NA
ATOM     15  H   UNL     1      -2.166 -10.916  -5.285  0.00  0.00    +0.144 HD
ATOM     16  H   UNL     1      -1.657 -11.971  -6.490  0.00  0.00    +0.144 HD
ENDBRANCH  11  14
ENDBRANCH   7  11
BRANCH   1  17
ATOM     17  C   UNL     1       0.042  -3.368  -1.400  0.00  0.00    +0.290 C 
ATOM     18  O   UNL     1       0.036  -3.306  -2.617  0.00  0.00    -0.266 OA
BRANCH  17  22
ATOM     19  C   UNL     1      -0.018   1.503   0.010  0.00  0.00    +0.065 C 
ATOM     20  C   UNL     1       0.002  -0.004   0.002  0.00  0.00    +0.037 A 
ATOM     21  C   UNL     1       0.009  -0.801  -1.092  0.00  0.00    +0.057 A 
ATOM     22  C   UNL     1       0.029  -2.125  -0.595  0.00  0.00    +0.149 A 
ATOM     23  N   UNL     1       0.033  -2.043   0.719  0.00  0.00    -0.166 NA
ATOM     24  N   UNL     1       0.023  -0.811   1.084  0.00  0.00    -0.265 N 
BRANCH  24  25
ATOM     25  C   UNL     1       0.030  -0.349   2.474  0.00  0.00    +0.101 C 
ATOM     26  C   UNL     1      -1.206  -0.889   3.197  0.00  0.00    +0.032 C 
ATOM     27  C   UNL     1       1.293  -0.855   3.174  0.00  0.00    +0.032 C 
ENDBRANCH  24  25
ENDBRANCH  17  22
ENDBRANCH   1  17
BRANCH   3  28
ATOM     28  C   UNL     1       0.092  -7.231   0.374  0.00  0.00    +0.151 C 
BRANCH  28  29
ATOM     29  C   UNL     1      -1.327  -7.341   0.869  0.00  0.00    -0.013 C 
ATOM     30  C   UNL     1      -1.715  -8.415   1.512  0.00  0.00    +0.005 C 
ENDBRANCH  28  29
ENDBRANCH   3  28
TORSDOF 7
