REMARK  Name = ZINC21973469
REMARK  13 active torsions:
REMARK  status: ('A' for Active; 'I' for Inactive)
REMARK    1  A    between atoms: C_1  and  C_2
REMARK    2  A    between atoms: C_7  and  C_9
REMARK    3  A    between atoms: C_7  and  C_10
REMARK    4  A    between atoms: N_13  and  C_17
REMARK    5  A    between atoms: C_17  and  C_18
REMARK    6  A    between atoms: C_18  and  O_20
REMARK    7  A    between atoms: O_20  and  C_21
REMARK    8  A    between atoms: C_21  and  C_22
REMARK    9  A    between atoms: N_24  and  C_25
REMARK   10  A    between atoms: C_28  and  C_31
REMARK   11  A    between atoms: C_31  and  C_32
REMARK   12  A    between atoms: C_31  and  C_33
REMARK   13  A    between atoms: C_31  and  C_34
REMARK                            x       y       z     vdW  Elec       q    Type
REMARK                         _______ _______ _______ _____ _____    ______ ____
ROOT
ATOM      1  C   UNL     1       0.596  -4.800  -4.523  0.00  0.00    +0.326 C 
ATOM      2  O   UNL     1       0.726  -5.333  -3.446  0.00  0.00    -0.249 OA
ENDROOT
BRANCH   1   3
ATOM      3  C   UNL     1       0.331  -3.319  -4.604  0.00  0.00    +0.238 C 
BRANCH   3  15
ATOM      4  C   UNL     1       0.709   1.641   0.446  0.00  0.00    +0.007 C 
ATOM      5  C   UNL     1       0.464   0.142   0.265  0.00  0.00    -0.011 C 
ATOM      6  C   UNL     1       1.040  -0.311  -1.079  0.00  0.00    +0.038 C 
ATOM      7  C   UNL     1       0.815  -1.810  -1.251  0.00  0.00    +0.113 C 
ATOM      8  C   UNL     1       1.474  -2.588  -0.117  0.00  0.00    +0.041 C 
ATOM      9  C   UNL     1       0.896  -2.126   1.224  0.00  0.00    -0.032 C 
ATOM     10  C   UNL     1       1.148  -0.627   1.397  0.00  0.00    +0.009 C 
ATOM     11  C   UNL     1       1.574  -2.893   2.362  0.00  0.00    +0.011 C 
ATOM     12  C   UNL     1      -0.609  -2.397   1.251  0.00  0.00    +0.011 C 
ATOM     13  C   UNL     1       1.346  -2.274  -2.587  0.00  0.00    +0.247 C 
ATOM     14  O   UNL     1       2.491  -2.222  -2.980  0.00  0.00    -0.273 OA
ATOM     15  N   UNL     1       0.276  -2.758  -3.251  0.00  0.00    -0.213 N 
ATOM     16  C   UNL     1      -0.842  -2.663  -2.521  0.00  0.00    +0.310 C 
ATOM     17  O   UNL     1      -1.934  -3.034  -2.905  0.00  0.00    -0.252 OA
ATOM     18  N   UNL     1      -0.621  -2.110  -1.313  0.00  0.00    -0.285 N 
ATOM     19  H   UNL     1      -1.280  -1.943  -0.621  0.00  0.00    +0.151 HD
ENDBRANCH   3  15
ENDBRANCH   1   3
BRANCH   1  20
ATOM     20  O   UNL     1       0.688  -5.528  -5.647  0.00  0.00    -0.454 OA
BRANCH  20  21
ATOM     21  C   UNL     1       0.941  -6.926  -5.496  0.00  0.00    +0.328 C 
BRANCH  21  22
ATOM     22  C   UNL     1       1.011  -7.574  -6.855  0.00  0.00    +0.255 C 
ATOM     23  O   UNL     1       0.859  -6.904  -7.855  0.00  0.00    -0.272 OA
ATOM     24  N   UNL     1       1.242  -8.897  -6.960  0.00  0.00    -0.283 N 
ATOM     25  H   UNL     1       1.287  -9.447  -6.161  0.00  0.00    +0.155 HD
BRANCH  24  26
ATOM     26  C   UNL     1       1.417  -9.480  -8.220  0.00  0.00    +0.034 A 
ATOM     27  C   UNL     1       0.977 -10.776  -8.455  0.00  0.00    +0.023 A 
ATOM     28  C   UNL     1       1.151 -11.348  -9.700  0.00  0.00    +0.006 A 
ATOM     29  C   UNL     1       1.762 -10.631 -10.712  0.00  0.00    -0.042 A 
ATOM     30  C   UNL     1       2.201  -9.340 -10.482  0.00  0.00    +0.006 A 
ATOM     31  C   UNL     1       2.025  -8.760  -9.241  0.00  0.00    +0.023 A 
BRANCH  29  32
ATOM     32  C   UNL     1       1.951 -11.258 -12.070  0.00  0.00    -0.013 C 
ATOM     33  C   UNL     1       0.586 -11.633 -12.652  0.00  0.00    +0.015 C 
ATOM     34  C   UNL     1       2.646 -10.262 -12.999  0.00  0.00    +0.015 C 
ATOM     35  C   UNL     1       2.811 -12.516 -11.935  0.00  0.00    +0.015 C 
ENDBRANCH  29  32
ENDBRANCH  24  26
ENDBRANCH  21  22
ENDBRANCH  20  21
ENDBRANCH   1  20
TORSDOF 7
