REMARK  Name = ZINC59023322
REMARK  9 active torsions:
REMARK  status: ('A' for Active; 'I' for Inactive)
REMARK    1  A    between atoms: C_1  and  C_2
REMARK    2  A    between atoms: C_2  and  C_25
REMARK    3  A    between atoms: N_3  and  N_4
REMARK    4  A    between atoms: C_7  and  S_10
REMARK    5  A    between atoms: S_10  and  C_11
REMARK    6  A    between atoms: C_11  and  C_12
REMARK    7  A    between atoms: N_14  and  C_15
REMARK    8  A    between atoms: C_16  and  C_23
REMARK    9  A    between atoms: C_26  and  C_27
REMARK                            x       y       z     vdW  Elec       q    Type
REMARK                         _______ _______ _______ _____ _____    ______ ____
ROOT
ATOM      1  N   UNL     1      -0.050  -2.012   1.266  0.00  0.00    -0.205 N 
ATOM      2  C   UNL     1      -0.121  -2.628   2.502  0.00  0.00    +0.232 A 
ATOM      3  N   UNL     1      -0.128  -2.020   3.670  0.00  0.00    -0.186 NA
ATOM      4  C   UNL     1      -0.206  -2.927   4.649  0.00  0.00    +0.211 A 
ATOM      5  N   UNL     1      -0.250  -4.126   4.117  0.00  0.00    -0.144 NA
ATOM      6  N   UNL     1      -0.202  -3.957   2.724  0.00  0.00    -0.245 N 
ATOM      7  H   UNL     1      -0.056  -2.547   0.457  0.00  0.00    +0.177 HD
ATOM      8  H   UNL     1      -0.221  -4.657   2.053  0.00  0.00    +0.192 HD
ENDROOT
BRANCH   1  11
ATOM      9  C   UNL     1      -0.032   1.474  -0.067  0.00  0.00    +0.067 C 
ATOM     10  C   UNL     1      -0.003  -0.031   0.019  0.00  0.00    +0.056 C 
ATOM     11  N   UNL     1       0.030  -0.616   1.182  0.00  0.00    -0.185 NA
BRANCH  10  12
ATOM     12  C   UNL     1      -0.010  -0.808  -1.166  0.00  0.00    +0.025 C 
ATOM     13  C   UNL     1       0.066  -0.204  -2.370  0.00  0.00    +0.010 C 
BRANCH  13  14
ATOM     14  C   UNL     1       0.170  -1.014  -3.595  0.00  0.00    -0.025 A 
ATOM     15  C   UNL     1       0.183  -2.410  -3.515  0.00  0.00    +0.008 A 
ATOM     16  C   UNL     1       0.281  -3.162  -4.667  0.00  0.00    +0.001 A 
ATOM     17  C   UNL     1       0.364  -2.539  -5.899  0.00  0.00    +0.000 A 
ATOM     18  C   UNL     1       0.351  -1.158  -5.987  0.00  0.00    +0.001 A 
ATOM     19  C   UNL     1       0.249  -0.392  -4.845  0.00  0.00    +0.008 A 
ENDBRANCH  13  14
ENDBRANCH  10  12
ENDBRANCH   1  11
BRANCH   4  20
ATOM     20  S   UNL     1      -0.243  -2.571   6.374  0.00  0.00    -0.075 S 
BRANCH  20  21
ATOM     21  C   UNL     1      -0.351  -4.204   7.157  0.00  0.00    +0.173 C 
BRANCH  21  22
ATOM     22  C   UNL     1      -0.391  -4.042   8.655  0.00  0.00    +0.228 C 
ATOM     23  O   UNL     1      -0.350  -2.933   9.146  0.00  0.00    -0.275 OA
ATOM     24  N   UNL     1      -0.472  -5.128   9.448  0.00  0.00    -0.278 N 
ATOM     25  H   UNL     1      -0.504  -6.014   9.056  0.00  0.00    +0.155 HD
BRANCH  24  26
ATOM     26  C   UNL     1      -0.508  -4.978  10.828  0.00  0.00    +0.090 A 
ATOM     27  C   UNL     1      -0.584  -5.969  11.788  0.00  0.00    +0.084 A 
ATOM     28  C   UNL     1      -0.609  -5.546  13.187  0.00  0.00    -0.018 A 
ATOM     29  C   UNL     1      -0.554  -4.212  13.358  0.00  0.00    -0.004 A 
ATOM     30  S   UNL     1      -0.463  -3.554  11.712  0.00  0.00    -0.077 S 
ATOM     31  C   UNL     1      -0.587  -3.832  14.813  0.00  0.00    +0.043 C 
ATOM     32  C   UNL     1      -1.102  -5.096  15.536  0.00  0.00    +0.010 C 
ATOM     33  C   UNL     1      -0.678  -6.212  14.559  0.00  0.00    +0.037 C 
BRANCH  27  34
ATOM     34  C   UNL     1      -0.637  -7.353  11.428  0.00  0.00    +0.102 C 
ATOM     35  N   UNL     1      -0.678  -8.452  11.141  0.00  0.00    -0.191 NA
ENDBRANCH  27  34
ENDBRANCH  24  26
ENDBRANCH  21  22
ENDBRANCH  20  21
ENDBRANCH   4  20
TORSDOF 8
