REMARK  Name = ZINC64292329
REMARK  4 active torsions:
REMARK  status: ('A' for Active; 'I' for Inactive)
REMARK    1  A    between atoms: C_1  and  C_2
REMARK    2  A    between atoms: C_2  and  C_3
REMARK    3  A    between atoms: C_2  and  C_4
REMARK    4  A    between atoms: C_14  and  C_16
REMARK                            x       y       z     vdW  Elec       q    Type
REMARK                         _______ _______ _______ _____ _____    ______ ____
ROOT
ATOM      1  C   UNL     1       0.724  -0.778   1.139  0.00  0.00    -0.044 A 
ATOM      2  C   UNL     1       1.934  -0.202   1.480  0.00  0.00    +0.006 A 
ATOM      3  C   UNL     1       2.622  -0.651   2.589  0.00  0.00    +0.024 A 
ATOM      4  C   UNL     1       2.099  -1.682   3.362  0.00  0.00    +0.039 A 
ATOM      5  C   UNL     1       0.885  -2.257   3.021  0.00  0.00    -0.026 A 
ATOM      6  C   UNL     1       0.200  -1.798   1.909  0.00  0.00    +0.009 A 
ATOM      7  C   UNL     1       0.284  -3.368   3.841  0.00  0.00    +0.038 C 
ATOM      8  C   UNL     1       1.359  -4.058   4.680  0.00  0.00    +0.024 C 
ATOM      9  C   UNL     1       2.141  -2.992   5.458  0.00  0.00    +0.114 C 
ATOM     10  N   UNL     1       2.816  -2.127   4.481  0.00  0.00    -0.271 N 
ATOM     11  C   UNL     1       4.103  -1.768   4.657  0.00  0.00    +0.223 C 
ATOM     12  O   UNL     1       4.677  -1.128   3.802  0.00  0.00    -0.275 OA
ENDROOT
BRANCH  11  13
ATOM     13  C   UNL     1       4.829  -2.162   5.918  0.00  0.00    +0.078 C 
ATOM     14  C   UNL     1       4.241  -1.397   7.106  0.00  0.00    +0.032 C 
ATOM     15  C   UNL     1       4.958  -1.826   8.390  0.00  0.00    +0.110 C 
ATOM     16  N   UNL     1       6.404  -1.640   8.208  0.00  0.00    -0.286 N 
ATOM     17  C   UNL     1       7.056  -2.258   7.046  0.00  0.00    +0.110 C 
ATOM     18  C   UNL     1       6.315  -1.824   5.777  0.00  0.00    +0.032 C 
ATOM     19  C   UNL     1       7.119  -0.915   9.092  0.00  0.00    +0.300 C 
ATOM     20  O   UNL     1       6.587  -0.485  10.097  0.00  0.00    -0.253 OA
ATOM     21  N   UNL     1       8.423  -0.667   8.861  0.00  0.00    -0.313 N 
ATOM     22  H   UNL     1       8.866  -1.070   8.098  0.00  0.00    +0.146 HD
ATOM     23  H   UNL     1       8.919  -0.085   9.458  0.00  0.00    +0.146 HD
ENDBRANCH  11  13
BRANCH   1  25
ATOM     24  C   UNL     1      -0.353   1.196   0.095  0.00  0.00    +0.012 C 
ATOM     25  C   UNL     1      -0.027  -0.289  -0.073  0.00  0.00    +0.013 C 
ATOM     26  C   UNL     1       0.836  -0.484  -1.321  0.00  0.00    +0.012 C 
ENDBRANCH   1  25
TORSDOF 2
