REMARK  Name = ZINC45194476
REMARK  12 active torsions:
REMARK  status: ('A' for Active; 'I' for Inactive)
REMARK    1  A    between atoms: C_1  and  C_2
REMARK    2  A    between atoms: C_2  and  C_3
REMARK    3  A    between atoms: C_3  and  N_4
REMARK    4  A    between atoms: N_4  and  C_5
REMARK    5  A    between atoms: C_5  and  C_6
REMARK    6  A    between atoms: C_9  and  C_12
REMARK    7  A    between atoms: C_15  and  C_18
REMARK    8  A    between atoms: C_18  and  N_19
REMARK    9  A    between atoms: N_19  and  C_20
REMARK   10  A    between atoms: C_23  and  C_25
REMARK   11  A    between atoms: C_26  and  C_36
REMARK   12  A    between atoms: N_28  and  C_30
REMARK                            x       y       z     vdW  Elec       q    Type
REMARK                         _______ _______ _______ _____ _____    ______ ____
ROOT
ATOM      1  C   UNL     1      -2.413  -8.100   0.231  0.00  0.00    +0.000 A 
ATOM      2  C   UNL     1      -2.417  -8.810  -0.969  0.00  0.00    +0.010 A 
ATOM      3  C   UNL     1      -2.469 -10.189  -0.951  0.00  0.00    +0.006 A 
ATOM      4  C   UNL     1      -2.519 -10.867   0.254  0.00  0.00    -0.030 A 
ATOM      5  C   UNL     1      -2.516 -10.168   1.447  0.00  0.00    +0.006 A 
ATOM      6  C   UNL     1      -2.458  -8.789   1.442  0.00  0.00    +0.010 A 
ENDROOT
BRANCH   1  10
ATOM      7  C   UNL     1      -2.253  -3.897   0.230  0.00  0.00    -0.046 A 
ATOM      8  C   UNL     1      -2.260  -4.555  -0.992  0.00  0.00    +0.005 A 
ATOM      9  C   UNL     1      -2.312  -5.938  -0.997  0.00  0.00    +0.028 A 
ATOM     10  C   UNL     1      -2.356  -6.618   0.219  0.00  0.00    +0.071 A 
ATOM     11  N   UNL     1      -2.348  -5.951   1.365  0.00  0.00    -0.255 NA
ATOM     12  C   UNL     1      -2.293  -4.635   1.398  0.00  0.00    +0.113 A 
BRANCH   7  13
ATOM     13  C   UNL     1      -2.197  -2.392   0.282  0.00  0.00    -0.045 C 
BRANCH  13  14
ATOM     14  N   UNL     1      -0.795  -1.955   0.313  0.00  0.00    +0.382 N 
ATOM     15  H   UNL     1      -0.323  -2.280  -0.517  0.00  0.00    -0.085 HD
ATOM     16  H   UNL     1      -0.342  -2.337   1.130  0.00  0.00    -0.085 HD
BRANCH  14  17
ATOM     17  C   UNL     1      -0.740  -0.488   0.364  0.00  0.00    -0.082 C 
BRANCH  17  19
ATOM     18  C   UNL     1       0.777   1.495   0.450  0.00  0.00    +0.002 C 
ATOM     19  C   UNL     1       0.721  -0.033   0.397  0.00  0.00    -0.022 C 
ENDBRANCH  17  19
ENDBRANCH  14  17
ENDBRANCH  13  14
ENDBRANCH   7  13
ENDBRANCH   1  10
BRANCH   4  20
ATOM     20  C   UNL     1      -2.577 -12.373   0.266  0.00  0.00    +0.143 C 
BRANCH  20  21
ATOM     21  N   UNL     1      -1.220 -12.915   0.164  0.00  0.00    -0.289 N 
ATOM     22  C   UNL     1      -0.698 -13.200  -1.045  0.00  0.00    +0.269 C 
ATOM     23  O   UNL     1       0.453 -13.583  -1.135  0.00  0.00    -0.268 OA
BRANCH  22  24
ATOM     24  C   UNL     1      -1.523 -13.049  -2.261  0.00  0.00    +0.170 A 
ATOM     25  C   UNL     1      -1.127 -13.360  -3.574  0.00  0.00    +0.093 A 
ATOM     26  N   UNL     1      -2.148 -13.081  -4.350  0.00  0.00    -0.152 NA
ATOM     27  N   UNL     1      -3.174 -12.598  -3.527  0.00  0.00    -0.149 N 
ATOM     28  N   UNL     1      -2.765 -12.601  -2.307  0.00  0.00    -0.142 NA
ATOM     29  C   UNL     1       0.209 -13.907  -4.006  0.00  0.00    +0.070 C 
BRANCH  27  30
ATOM     30  C   UNL     1      -4.441 -12.185  -3.961  0.00  0.00    +0.086 A 
ATOM     31  C   UNL     1      -5.336 -11.623  -3.060  0.00  0.00    +0.029 A 
ATOM     32  C   UNL     1      -6.584 -11.216  -3.490  0.00  0.00    +0.002 A 
ATOM     33  C   UNL     1      -6.943 -11.370  -4.817  0.00  0.00    +0.000 A 
ATOM     34  C   UNL     1      -6.055 -11.931  -5.716  0.00  0.00    +0.002 A 
ATOM     35  C   UNL     1      -4.803 -12.333  -5.293  0.00  0.00    +0.029 A 
ENDBRANCH  27  30
ENDBRANCH  22  24
BRANCH  21  36
ATOM     36  C   UNL     1      -0.430 -13.146   1.376  0.00  0.00    +0.077 C 
ATOM     37  C   UNL     1       1.080 -13.328   1.212  0.00  0.00    +0.024 C 
ATOM     38  C   UNL     1       0.198 -14.529   1.557  0.00  0.00    +0.024 C 
ENDBRANCH  21  36
ENDBRANCH  20  21
ENDBRANCH   4  20
TORSDOF 10
