REMARK  Name = ZINC09065101
REMARK  12 active torsions:
REMARK  status: ('A' for Active; 'I' for Inactive)
REMARK    1  A    between atoms: C_1  and  C_2
REMARK    2  A    between atoms: C_2  and  N_63
REMARK    3  A    between atoms: C_3  and  C_4
REMARK    4  A    between atoms: C_3  and  N_63
REMARK    5  A    between atoms: C_5  and  C_6
REMARK    6  A    between atoms: C_5  and  N_63
REMARK    7  A    between atoms: C_6  and  C_7
REMARK    8  A    between atoms: C_7  and  N_8
REMARK    9  A    between atoms: C_9  and  C_28
REMARK   10  A    between atoms: C_12  and  C_13
REMARK   11  A    between atoms: C_12  and  O_23
REMARK   12  A    between atoms: C_14  and  C_22
REMARK                            x       y       z     vdW  Elec       q    Type
REMARK                         _______ _______ _______ _____ _____    ______ ____
ROOT
ATOM      1  N   UNL     1      -0.619   0.721   0.418  0.00  0.00    -0.284 N 
ATOM      2  C   UNL     1      -0.012   2.040   0.217  0.00  0.00    +0.145 C 
ATOM      3  C   UNL     1       1.474   1.866   0.428  0.00  0.00    +0.073 C 
ATOM      4  C   UNL     1       2.452   2.853   0.335  0.00  0.00    +0.151 C 
ATOM      5  C   UNL     1       1.670   0.520   0.735  0.00  0.00    +0.249 C 
ATOM      6  O   UNL     1       2.743  -0.009   0.972  0.00  0.00    -0.282 OA
ATOM      7  C   UNL     1       0.350  -0.159   0.723  0.00  0.00    +0.288 C 
ATOM      8  O   UNL     1       0.172  -1.339   0.950  0.00  0.00    -0.266 OA
ENDROOT
BRANCH   4   9
ATOM      9  C   UNL     1       3.804   2.528   0.561  0.00  0.00    +0.111 A 
ATOM     10  C   UNL     1       4.388   2.187   1.778  0.00  0.00    +0.068 A 
ATOM     11  N   UNL     1       5.671   1.954   1.568  0.00  0.00    -0.232 NA
ATOM     12  C   UNL     1       5.959   2.124   0.277  0.00  0.00    +0.138 A 
ATOM     13  N   UNL     1       4.816   2.478  -0.383  0.00  0.00    -0.297 N 
ATOM     14  C   UNL     1       4.831   2.707  -1.723  0.00  0.00    +0.093 A 
ATOM     15  C   UNL     1       5.978   2.587  -2.430  0.00  0.00    +0.018 A 
ATOM     16  C   UNL     1       7.167   2.224  -1.784  0.00  0.00    +0.005 A 
ATOM     17  C   UNL     1       7.161   1.998  -0.439  0.00  0.00    +0.047 A 
ATOM     18  C   UNL     1       3.680   2.100   3.105  0.00  0.00    +0.068 C 
ENDBRANCH   4   9
BRANCH   2  19
ATOM     19  C   UNL     1      -0.564   3.026   1.215  0.00  0.00    -0.022 A 
ATOM     20  C   UNL     1      -0.814   2.627   2.514  0.00  0.00    +0.008 A 
ATOM     21  C   UNL     1      -1.315   3.531   3.431  0.00  0.00    +0.038 A 
ATOM     22  C   UNL     1      -1.576   4.835   3.045  0.00  0.00    +0.123 A 
ATOM     23  C   UNL     1      -1.331   5.232   1.742  0.00  0.00    +0.038 A 
ATOM     24  C   UNL     1      -0.824   4.327   0.828  0.00  0.00    +0.008 A 
ATOM     25  F   UNL     1      -2.071   5.719   3.939  0.00  0.00    -0.205 F 
ENDBRANCH   2  19
BRANCH   4  26
ATOM     26  O   UNL     1       2.104   4.123   0.026  0.00  0.00    -0.504 OA
ATOM     27  H   UNL     1       2.923   4.696   0.001  0.00  0.00    +0.292 HD
ENDBRANCH   4  26
BRANCH   1  28
ATOM     28  C   UNL     1      -2.047   0.413   0.308  0.00  0.00    +0.107 C 
BRANCH  28  29
ATOM     29  C   UNL     1      -2.716   0.602   1.671  0.00  0.00    +0.000 C 
BRANCH  29  30
ATOM     30  C   UNL     1      -4.208   0.280   1.556  0.00  0.00    -0.077 C 
BRANCH  30  31
ATOM     31  N   UNL     1      -4.835   0.447   2.883  0.00  0.00    +0.379 N 
ATOM     32  H   UNL     1      -4.299  -0.090   3.575  0.00  0.00    -0.082 HD
BRANCH  31  34
ATOM     33  C   UNL     1      -5.596   2.711   2.248  0.00  0.00    -0.017 C 
ATOM     34  C   UNL     1      -4.827   1.873   3.271  0.00  0.00    -0.082 C 
ENDBRANCH  31  34
BRANCH  31  35
ATOM     35  C   UNL     1      -6.223  -0.061   2.853  0.00  0.00    -0.082 C 
ATOM     36  C   UNL     1      -6.720  -0.219   4.292  0.00  0.00    -0.017 C 
ENDBRANCH  31  35
ENDBRANCH  30  31
ENDBRANCH  29  30
ENDBRANCH  28  29
ENDBRANCH   1  28
TORSDOF 9
