REMARK  Name = ZINC55244959
REMARK  11 active torsions:
REMARK  status: ('A' for Active; 'I' for Inactive)
REMARK    1  A    between atoms: C_1  and  C_2
REMARK    2  A    between atoms: C_4  and  C_7
REMARK    3  A    between atoms: C_7  and  N_8
REMARK    4  A    between atoms: N_8  and  C_9
REMARK    5  A    between atoms: N_8  and  C_10
REMARK    6  A    between atoms: C_10  and  C_11
REMARK    7  A    between atoms: C_15  and  N_24
REMARK    8  A    between atoms: C_16  and  C_20
REMARK    9  A    between atoms: C_20  and  O_22
REMARK   10  A    between atoms: O_22  and  C_23
REMARK   11  A    between atoms: C_25  and  C_27
REMARK                            x       y       z     vdW  Elec       q    Type
REMARK                         _______ _______ _______ _____ _____    ______ ____
ROOT
ATOM      1  C   UNL     1      -4.364  -6.129   2.702  0.00  0.00    +0.057 A 
ATOM      2  C   UNL     1      -5.500  -5.670   3.353  0.00  0.00    +0.025 A 
ATOM      3  C   UNL     1      -5.524  -5.571   4.723  0.00  0.00    +0.014 A 
ATOM      4  C   UNL     1      -4.371  -5.943   5.460  0.00  0.00    +0.030 A 
ATOM      5  C   UNL     1      -4.167  -5.923   6.899  0.00  0.00    +0.064 A 
ATOM      6  C   UNL     1      -2.949  -6.336   7.393  0.00  0.00    +0.120 A 
ATOM      7  S   UNL     1      -2.034  -6.768   5.926  0.00  0.00    -0.060 S 
ATOM      8  C   UNL     1      -3.267  -6.397   4.703  0.00  0.00    +0.111 A 
ATOM      9  N   UNL     1      -3.295  -6.479   3.390  0.00  0.00    -0.243 NA
ENDROOT
BRANCH   5  10
ATOM     10  N   UNL     1      -5.176  -5.496   7.756  0.00  0.00    -0.284 N 
ATOM     11  C   UNL     1      -5.850  -4.359   7.491  0.00  0.00    +0.220 C 
ATOM     12  O   UNL     1      -5.646  -3.761   6.456  0.00  0.00    -0.275 OA
ATOM     13  H   UNL     1      -5.395  -6.017   8.545  0.00  0.00    +0.155 HD
BRANCH  11  14
ATOM     14  C   UNL     1      -6.856  -3.831   8.481  0.00  0.00    +0.075 C 
ATOM     15  C   UNL     1      -7.957  -4.872   8.693  0.00  0.00    +0.013 C 
ATOM     16  C   UNL     1      -8.979  -4.336   9.698  0.00  0.00    +0.001 C 
ATOM     17  C   UNL     1      -9.595  -3.044   9.158  0.00  0.00    +0.000 C 
ATOM     18  C   UNL     1      -8.494  -2.003   8.946  0.00  0.00    +0.001 C 
ATOM     19  C   UNL     1      -7.473  -2.539   7.941  0.00  0.00    +0.013 C 
ENDBRANCH  11  14
ENDBRANCH   5  10
BRANCH   6  20
ATOM     20  C   UNL     1      -2.526  -6.402   8.744  0.00  0.00    +0.348 C 
ATOM     21  O   UNL     1      -3.312  -6.162   9.641  0.00  0.00    -0.244 OA
BRANCH  20  22
ATOM     22  O   UNL     1      -1.249  -6.730   9.036  0.00  0.00    -0.464 OA
ATOM     23  C   UNL     1      -0.892  -6.777  10.419  0.00  0.00    +0.280 C 
ENDBRANCH  20  22
ENDBRANCH   6  20
BRANCH   1  24
ATOM     24  C   UNL     1      -4.353  -6.232   1.198  0.00  0.00    +0.140 C 
BRANCH  24  25
ATOM     25  N   UNL     1      -3.758  -5.017   0.628  0.00  0.00    -0.294 NA
ATOM     26  C   UNL     1      -4.602  -3.844   0.891  0.00  0.00    +0.105 C 
BRANCH  25  27
ATOM     27  C   UNL     1      -3.513  -5.176  -0.812  0.00  0.00    +0.140 C 
BRANCH  27  31
ATOM     28  C   UNL     1      -2.982  -0.516  -2.556  0.00  0.00    +0.073 C 
ATOM     29  C   UNL     1      -2.519  -1.878  -2.106  0.00  0.00    +0.076 A 
ATOM     30  N   UNL     1      -3.241  -2.881  -1.672  0.00  0.00    -0.248 NA
ATOM     31  C   UNL     1      -2.685  -4.020  -1.312  0.00  0.00    +0.063 A 
ATOM     32  C   UNL     1      -1.334  -4.105  -1.411  0.00  0.00    +0.071 A 
ATOM     33  S   UNL     1      -0.949  -2.481  -2.046  0.00  0.00    -0.080 S 
ENDBRANCH  27  31
ENDBRANCH  25  27
ENDBRANCH  24  25
ENDBRANCH   1  24
TORSDOF 8
