REMARK  Name = ZINC01341878
REMARK  9 active torsions:
REMARK  status: ('A' for Active; 'I' for Inactive)
REMARK    1  A    between atoms: C_1  and  C_2
REMARK    2  A    between atoms: C_7  and  C_8
REMARK    3  A    between atoms: C_8  and  C_10
REMARK    4  A    between atoms: C_8  and  N_20
REMARK    5  A    between atoms: N_12  and  C_13
REMARK    6  A    between atoms: C_13  and  C_14
REMARK    7  A    between atoms: N_20  and  C_21
REMARK    8  A    between atoms: C_30  and  C_32
REMARK    9  A    between atoms: C_32  and  N_33
REMARK                            x       y       z     vdW  Elec       q    Type
REMARK                         _______ _______ _______ _____ _____    ______ ____
ROOT
ATOM      1  N   UNL     1      -0.082  -4.447  -1.647  0.00  0.00    -0.254 N 
ATOM      2  C   UNL     1       1.029  -3.703  -1.821  0.00  0.00    +0.242 C 
ATOM      3  O   UNL     1       1.251  -3.187  -2.897  0.00  0.00    -0.273 OA
ENDROOT
BRANCH   1   4
ATOM      4  C   UNL     1      -0.395  -4.952  -0.378  0.00  0.00    +0.041 A 
ATOM      5  C   UNL     1      -0.954  -4.120   0.582  0.00  0.00    +0.027 A 
ATOM      6  C   UNL     1      -1.266  -4.618   1.832  0.00  0.00    +0.051 A 
ATOM      7  C   UNL     1      -1.015  -5.946   2.134  0.00  0.00    +0.166 A 
ATOM      8  C   UNL     1      -0.449  -6.782   1.175  0.00  0.00    +0.168 A 
ATOM      9  C   UNL     1      -0.140  -6.283  -0.080  0.00  0.00    +0.073 A 
ATOM     10  O   UNL     1      -0.304  -8.028   1.713  0.00  0.00    -0.453 OA
ATOM     11  C   UNL     1      -0.406  -7.847   3.138  0.00  0.00    +0.466 C 
ATOM     12  O   UNL     1      -1.223  -6.670   3.274  0.00  0.00    -0.453 OA
ENDBRANCH   1   4
BRANCH   1  13
ATOM     13  C   UNL     1      -0.962  -4.726  -2.784  0.00  0.00    +0.197 C 
BRANCH  13  20
ATOM     14  C   UNL     1       1.176  -6.347  -3.857  0.00  0.00    +0.044 C 
ATOM     15  C   UNL     1      -0.121  -6.991  -3.438  0.00  0.00    -0.045 A 
ATOM     16  C   UNL     1      -0.287  -8.358  -3.566  0.00  0.00    +0.004 A 
ATOM     17  C   UNL     1      -1.476  -8.948  -3.182  0.00  0.00    +0.000 A 
ATOM     18  C   UNL     1      -2.499  -8.173  -2.669  0.00  0.00    +0.000 A 
ATOM     19  C   UNL     1      -2.331  -6.807  -2.535  0.00  0.00    +0.006 A 
ATOM     20  C   UNL     1      -1.143  -6.216  -2.925  0.00  0.00    -0.015 A 
ENDBRANCH  13  20
BRANCH  13  21
ATOM     21  C   UNL     1      -2.302  -4.076  -2.554  0.00  0.00    +0.239 C 
ATOM     22  O   UNL     1      -2.574  -3.615  -1.466  0.00  0.00    -0.273 OA
ATOM     23  N   UNL     1      -3.199  -4.008  -3.558  0.00  0.00    -0.311 N 
ATOM     24  H   UNL     1      -3.006  -4.428  -4.410  0.00  0.00    +0.149 HD
BRANCH  23  25
ATOM     25  C   UNL     1      -4.465  -3.298  -3.361  0.00  0.00    +0.135 C 
BRANCH  25  26
ATOM     26  C   UNL     1      -5.295  -3.369  -4.645  0.00  0.00    +0.135 C 
ATOM     27  C   UNL     1      -6.630  -2.625  -4.448  0.00  0.00    +0.035 C 
ATOM     28  C   UNL     1      -6.622  -1.534  -5.546  0.00  0.00    +0.031 C 
ATOM     29  C   UNL     1      -5.593  -2.100  -6.558  0.00  0.00    +0.160 C 
ATOM     30  O   UNL     1      -4.595  -2.715  -5.716  0.00  0.00    -0.375 OA
ENDBRANCH  25  26
ENDBRANCH  23  25
ENDBRANCH  13  21
ENDBRANCH   1  13
BRANCH   2  31
ATOM     31  C   UNL     1       1.994  -3.513  -0.680  0.00  0.00    +0.242 C 
BRANCH  31  32
ATOM     32  N   UNL     1       3.172  -2.781  -1.155  0.00  0.00    -0.235 N 
ATOM     33  C   UNL     1       3.344  -1.418  -1.166  0.00  0.00    +0.090 A 
ATOM     34  C   UNL     1       2.555  -0.341  -0.776  0.00  0.00    +0.029 A 
ATOM     35  C   UNL     1       3.026   0.934  -0.920  0.00  0.00    +0.002 A 
ATOM     36  C   UNL     1       4.288   1.165  -1.454  0.00  0.00    +0.002 A 
ATOM     37  C   UNL     1       5.081   0.126  -1.844  0.00  0.00    +0.032 A 
ATOM     38  C   UNL     1       4.622  -1.191  -1.706  0.00  0.00    +0.113 A 
ATOM     39  N   UNL     1       5.163  -2.391  -1.995  0.00  0.00    -0.129 NA
ATOM     40  N   UNL     1       4.346  -3.335  -1.686  0.00  0.00    -0.064 NA
ENDBRANCH  31  32
ENDBRANCH   2  31
TORSDOF 8
