REMARK  Name = ZINC21852964
REMARK  13 active torsions:
REMARK  status: ('A' for Active; 'I' for Inactive)
REMARK    1  A    between atoms: C_1  and  C_2
REMARK    2  A    between atoms: C_2  and  C_3
REMARK    3  A    between atoms: C_6  and  C_9
REMARK    4  A    between atoms: C_15  and  C_26
REMARK    5  A    between atoms: C_15  and  C_27
REMARK    6  A    between atoms: N_16  and  C_19
REMARK    7  A    between atoms: C_19  and  C_20
REMARK    8  A    between atoms: C_20  and  N_21
REMARK    9  A    between atoms: N_21  and  C_22
REMARK   10  A    between atoms: N_21  and  C_24
REMARK   11  A    between atoms: C_22  and  C_23
REMARK   12  A    between atoms: C_24  and  C_25
REMARK   13  A    between atoms: N_29  and  C_30
REMARK                            x       y       z     vdW  Elec       q    Type
REMARK                         _______ _______ _______ _____ _____    ______ ____
ROOT
ATOM      1  C   UNL     1       1.751   3.838   1.203  0.00  0.00    +0.093 A 
ATOM      2  C   UNL     1       2.359   2.649   1.661  0.00  0.00    +0.062 A 
ATOM      3  C   UNL     1       1.360   1.721   1.665  0.00  0.00    +0.124 A 
ATOM      4  N   UNL     1       0.208   2.359   1.256  0.00  0.00    -0.256 N 
ATOM      5  N   UNL     1       0.475   3.576   0.984  0.00  0.00    -0.170 NA
ATOM      6  C   UNL     1      -1.073   1.644   1.191  0.00  0.00    +0.179 C 
ATOM      7  C   UNL     1      -0.811   0.170   0.883  0.00  0.00    +0.130 C 
ATOM      8  N   UNL     1       0.234  -0.401   1.725  0.00  0.00    -0.282 N 
ATOM      9  C   UNL     1       1.355   0.295   2.032  0.00  0.00    +0.265 C 
ATOM     10  O   UNL     1       2.306  -0.229   2.580  0.00  0.00    -0.268 OA
ATOM     11  C   UNL     1      -2.106  -0.617   1.099  0.00  0.00    +0.044 C 
ENDROOT
BRANCH   1  15
ATOM     12  C   UNL     1       3.678   7.586   0.634  0.00  0.00    -0.048 A 
ATOM     13  C   UNL     1       2.328   7.457   0.362  0.00  0.00    +0.004 A 
ATOM     14  C   UNL     1       1.697   6.243   0.545  0.00  0.00    +0.010 A 
ATOM     15  C   UNL     1       2.423   5.146   1.004  0.00  0.00    +0.002 A 
ATOM     16  C   UNL     1       3.781   5.283   1.282  0.00  0.00    +0.010 A 
ATOM     17  C   UNL     1       4.403   6.501   1.091  0.00  0.00    +0.004 A 
BRANCH  12  19
ATOM     18  C   UNL     1       4.282   9.729   1.725  0.00  0.00    +0.009 C 
ATOM     19  C   UNL     1       4.360   8.914   0.432  0.00  0.00    +0.032 C 
ENDBRANCH  12  19
ENDBRANCH   1  15
BRANCH   7  20
ATOM     20  C   UNL     1      -0.400   0.039  -0.561  0.00  0.00    +0.238 C 
ATOM     21  O   UNL     1      -1.229  -0.224  -1.406  0.00  0.00    -0.273 OA
ATOM     22  N   UNL     1       0.889   0.215  -0.912  0.00  0.00    -0.311 N 
ATOM     23  H   UNL     1       1.641   0.454  -0.146  0.00  0.00    +0.149 HD
BRANCH  22  24
ATOM     24  C   UNL     1       1.289   0.088  -2.316  0.00  0.00    +0.073 C 
ATOM     25  C   UNL     1       1.554  -1.384  -2.640  0.00  0.00    +0.022 C 
ATOM     26  C   UNL     1       1.972  -1.516  -4.106  0.00  0.00    +0.002 C 
ATOM     27  C   UNL     1       3.245  -0.704  -4.348  0.00  0.00    +0.000 C 
ATOM     28  C   UNL     1       2.980   0.768  -4.025  0.00  0.00    +0.002 C 
ATOM     29  C   UNL     1       2.562   0.901  -2.559  0.00  0.00    +0.022 C 
ENDBRANCH  22  24
ENDBRANCH   7  20
BRANCH   8  30
ATOM     30  C   UNL     1       0.068  -1.758   2.251  0.00  0.00    +0.091 C 
BRANCH  30  31
ATOM     31  C   UNL     1       0.662  -2.764   1.263  0.00  0.00    -0.060 C 
BRANCH  31  32
ATOM     32  N   UNL     1       0.496  -4.125   1.790  0.00  0.00    +0.380 N 
ATOM     33  H   UNL     1      -0.564  -4.258   2.055  0.00  0.00    -0.082 HD
BRANCH  32  34
ATOM     34  C   UNL     1       0.836  -5.129   0.773  0.00  0.00    -0.082 C 
ATOM     35  C   UNL     1      -0.300  -5.225  -0.248  0.00  0.00    -0.017 C 
ENDBRANCH  32  34
BRANCH  32  36
ATOM     36  C   UNL     1       1.294  -4.319   3.009  0.00  0.00    -0.082 C 
ATOM     37  C   UNL     1       0.806  -5.569   3.744  0.00  0.00    -0.017 C 
ENDBRANCH  32  36
ENDBRANCH  31  32
ENDBRANCH  30  31
ENDBRANCH   8  30
TORSDOF 9
