REMARK  Name = ZINC39696071
REMARK  8 active torsions:
REMARK  status: ('A' for Active; 'I' for Inactive)
REMARK    1  A    between atoms: C_1  and  C_2
REMARK    2  A    between atoms: C_2  and  C_3
REMARK    3  A    between atoms: C_6  and  C_9
REMARK    4  A    between atoms: C_9  and  C_11
REMARK    5  A    between atoms: C_9  and  N_12
REMARK    6  A    between atoms: C_13  and  C_15
REMARK    7  A    between atoms: C_26  and  C_28
REMARK    8  A    between atoms: C_28  and  C_34
REMARK                            x       y       z     vdW  Elec       q    Type
REMARK                         _______ _______ _______ _____ _____    ______ ____
ROOT
ATOM      1  C   UNL     1       2.457  -0.476   8.231  0.00  0.00    +0.100 C 
ATOM      2  C   UNL     1       2.236   1.028   7.955  0.00  0.00    +0.121 C 
ATOM      3  N   UNL     1       2.614   1.700   9.220  0.00  0.00    -0.300 N 
ATOM      4  C   UNL     1       3.803   0.952   9.694  0.00  0.00    +0.115 C 
ATOM      5  C   UNL     1       3.486  -0.522   9.372  0.00  0.00    -0.004 C 
ATOM      6  C   UNL     1       4.750  -1.245   8.916  0.00  0.00    -0.010 C 
ATOM      7  C   UNL     1       5.735  -1.329  10.085  0.00  0.00    -0.082 C 
ATOM      8  N   UNL     1       5.112  -2.049  11.202  0.00  0.00    +0.379 N 
ATOM      9  C   UNL     1       3.951  -1.298  11.695  0.00  0.00    -0.082 C 
ATOM     10  C   UNL     1       2.890  -1.213  10.595  0.00  0.00    -0.010 C 
ATOM     11  C   UNL     1       2.012   2.753   9.808  0.00  0.00    +0.222 C 
ATOM     12  O   UNL     1       2.492   3.245  10.807  0.00  0.00    -0.275 OA
ATOM     13  H   UNL     1       4.812  -2.960  10.888  0.00  0.00    -0.086 HD
ATOM     14  H   UNL     1       5.783  -2.157  11.948  0.00  0.00    -0.086 HD
ENDROOT
BRANCH  11  15
ATOM     15  C   UNL     1       0.744   3.318   9.224  0.00  0.00    +0.044 C 
ATOM     16  C   UNL     1       0.977   3.687   7.758  0.00  0.00    +0.016 C 
ATOM     17  C   UNL     1       2.091   4.732   7.666  0.00  0.00    +0.001 C 
ATOM     18  C   UNL     1       1.682   5.983   8.448  0.00  0.00    +0.000 C 
ATOM     19  C   UNL     1       1.449   5.614   9.914  0.00  0.00    +0.001 C 
ATOM     20  C   UNL     1       0.335   4.569  10.006  0.00  0.00    +0.016 C 
ATOM     21  C   UNL     1      -0.370   2.273   9.316  0.00  0.00    +0.021 C 
ENDBRANCH  11  15
BRANCH   1  23
ATOM     22  N   UNL     1       2.883  -2.496   6.867  0.00  0.00    -0.308 N 
ATOM     23  C   UNL     1       3.003  -1.160   7.004  0.00  0.00    +0.219 C 
ATOM     24  O   UNL     1       3.550  -0.509   6.139  0.00  0.00    -0.275 OA
ATOM     25  H   UNL     1       2.446  -3.017   7.559  0.00  0.00    +0.149 HD
BRANCH  22  26
ATOM     26  C   UNL     1       3.414  -3.160   5.675  0.00  0.00    +0.100 C 
ATOM     27  C   UNL     1       4.900  -3.462   5.878  0.00  0.00    +0.033 C 
BRANCH  26  31
ATOM     28  C   UNL     1       1.300  -6.814   5.020  0.00  0.00    -0.048 A 
ATOM     29  C   UNL     1       1.643  -6.012   3.947  0.00  0.00    +0.004 A 
ATOM     30  C   UNL     1       2.327  -4.830   4.159  0.00  0.00    +0.006 A 
ATOM     31  C   UNL     1       2.667  -4.449   5.444  0.00  0.00    -0.027 A 
ATOM     32  C   UNL     1       2.324  -5.250   6.516  0.00  0.00    +0.006 A 
ATOM     33  C   UNL     1       1.636  -6.431   6.305  0.00  0.00    +0.004 A 
BRANCH  28  35
ATOM     34  C   UNL     1      -0.952  -7.835   4.828  0.00  0.00    +0.009 C 
ATOM     35  C   UNL     1       0.554  -8.103   4.788  0.00  0.00    +0.032 C 
ENDBRANCH  28  35
ENDBRANCH  26  31
ENDBRANCH  22  26
ENDBRANCH   1  23
TORSDOF 5
