REMARK  Name = ZINC01777817
REMARK  6 active torsions:
REMARK  status: ('A' for Active; 'I' for Inactive)
REMARK    1  A    between atoms: C_2  and  C_3
REMARK    2  A    between atoms: C_2  and  N_17
REMARK    3  A    between atoms: N_4  and  N_5
REMARK    4  A    between atoms: C_6  and  C_8
REMARK    5  A    between atoms: N_17  and  N_18
REMARK    6  A    between atoms: C_19  and  C_21
REMARK                            x       y       z     vdW  Elec       q    Type
REMARK                         _______ _______ _______ _____ _____    ______ ____
ROOT
ATOM      1  C   UNL     1       9.364   6.486  -0.054  0.00  0.00    +0.036 C 
ATOM      2  C   UNL     1       8.781   5.281  -0.056  0.00  0.00    +0.057 C 
ENDROOT
BRANCH   2   3
ATOM      3  C   UNL     1       7.314   5.174  -0.041  0.00  0.00    +0.154 C 
ATOM      4  N   UNL     1       6.748   4.005  -0.042  0.00  0.00    -0.186 NA
BRANCH   4   5
ATOM      5  N   UNL     1       5.350   3.903  -0.029  0.00  0.00    -0.200 N 
ATOM      6  C   UNL     1       4.763   2.690  -0.030  0.00  0.00    +0.299 C 
ATOM      7  O   UNL     1       5.447   1.683  -0.042  0.00  0.00    -0.265 OA
ATOM      8  H   UNL     1       4.806   4.705  -0.019  0.00  0.00    +0.178 HD
BRANCH   6   9
ATOM      9  C   UNL     1       3.298   2.583  -0.016  0.00  0.00    +0.192 A 
ATOM     10  C   UNL     1       2.599   1.418  -0.015  0.00  0.00    +0.063 A 
ATOM     11  C   UNL     1       1.186   1.794   0.000  0.00  0.00    +0.021 A 
ATOM     12  C   UNL     1      -0.013   1.076   0.008  0.00  0.00    +0.011 A 
ATOM     13  C   UNL     1      -1.203   1.746   0.017  0.00  0.00    +0.001 A 
ATOM     14  C   UNL     1      -1.229   3.134   0.030  0.00  0.00    +0.004 A 
ATOM     15  C   UNL     1      -0.058   3.861   0.023  0.00  0.00    +0.047 A 
ATOM     16  C   UNL     1       1.165   3.201   0.008  0.00  0.00    +0.136 A 
ATOM     17  O   UNL     1       2.443   3.627  -0.002  0.00  0.00    -0.450 OA
ENDBRANCH   6   9
ENDBRANCH   4   5
ENDBRANCH   2   3
BRANCH   2  18
ATOM     18  N   UNL     1       9.565   4.125  -0.070  0.00  0.00    -0.263 N 
ATOM     19  H   UNL     1       9.143   3.252  -0.071  0.00  0.00    +0.170 HD
BRANCH  18  20
ATOM     20  N   UNL     1      10.962   4.227  -0.084  0.00  0.00    -0.230 N 
ATOM     21  C   UNL     1      11.719   3.112  -0.098  0.00  0.00    +0.295 C 
ATOM     22  O   UNL     1      11.189   2.017  -0.099  0.00  0.00    -0.265 OA
ATOM     23  H   UNL     1      11.385   5.100  -0.083  0.00  0.00    +0.173 HD
BRANCH  21  24
ATOM     24  C   UNL     1      13.185   3.219  -0.112  0.00  0.00    +0.192 A 
ATOM     25  C   UNL     1      14.045   2.168  -0.127  0.00  0.00    +0.063 A 
ATOM     26  C   UNL     1      15.389   2.745  -0.137  0.00  0.00    +0.021 A 
ATOM     27  C   UNL     1      16.679   2.208  -0.154  0.00  0.00    +0.011 A 
ATOM     28  C   UNL     1      17.760   3.044  -0.160  0.00  0.00    +0.001 A 
ATOM     29  C   UNL     1      17.585   4.421  -0.151  0.00  0.00    +0.004 A 
ATOM     30  C   UNL     1      16.321   4.970  -0.135  0.00  0.00    +0.047 A 
ATOM     31  C   UNL     1      15.206   4.140  -0.128  0.00  0.00    +0.136 A 
ATOM     32  O   UNL     1      13.879   4.376  -0.118  0.00  0.00    -0.450 OA
ENDBRANCH  21  24
ENDBRANCH  18  20
ENDBRANCH   2  18
TORSDOF 6
