REMARK  Name = ZINC13065054
REMARK  12 active torsions:
REMARK  status: ('A' for Active; 'I' for Inactive)
REMARK    1  A    between atoms: C_1  and  C_2
REMARK    2  A    between atoms: C_2  and  C_3
REMARK    3  A    between atoms: C_3  and  C_5
REMARK    4  A    between atoms: C_3  and  N_75
REMARK    5  A    between atoms: N_9  and  C_10
REMARK    6  A    between atoms: C_16  and  C_17
REMARK    7  A    between atoms: C_16  and  N_75
REMARK    8  A    between atoms: C_17  and  C_18
REMARK    9  A    between atoms: C_24  and  C_25
REMARK   10  A    between atoms: C_24  and  N_75
REMARK   11  A    between atoms: C_30  and  C_38
REMARK   12  A    between atoms: C_31  and  C_37
REMARK                            x       y       z     vdW  Elec       q    Type
REMARK                         _______ _______ _______ _____ _____    ______ ____
ROOT
ATOM      1  N   UNL     1       2.601  -5.556  -1.906  0.00  0.00    +0.389 N 
ATOM      2  H   UNL     1       3.261  -5.382  -2.673  0.00  0.00    -0.080 HD
ENDROOT
BRANCH   1   3
ATOM      3  C   UNL     1       3.060  -6.731  -1.135  0.00  0.00    +0.003 C 
BRANCH   3   4
ATOM      4  C   UNL     1       4.567  -6.726  -1.104  0.00  0.00    +0.138 A 
ATOM      5  N   UNL     1       5.343  -5.686  -0.919  0.00  0.00    -0.115 NA
ATOM      6  N   UNL     1       6.566  -6.089  -0.960  0.00  0.00    -0.023 NA
ATOM      7  N   UNL     1       6.590  -7.360  -1.166  0.00  0.00    -0.044 NA
ATOM      8  N   UNL     1       5.377  -7.790  -1.255  0.00  0.00    -0.228 N 
BRANCH   8   9
ATOM      9  C   UNL     1       4.960  -9.176  -1.481  0.00  0.00    +0.111 C 
ATOM     10  C   UNL     1       5.481 -10.058  -0.345  0.00  0.00    +0.027 C 
ATOM     11  C   UNL     1       5.045 -11.505  -0.581  0.00  0.00    +0.002 C 
ATOM     12  C   UNL     1       5.616 -11.999  -1.912  0.00  0.00    +0.000 C 
ATOM     13  C   UNL     1       5.095 -11.117  -3.049  0.00  0.00    +0.002 C 
ATOM     14  C   UNL     1       5.531  -9.670  -2.812  0.00  0.00    +0.027 C 
ENDBRANCH   8   9
ENDBRANCH   3   4
BRANCH   3  16
ATOM     15  C   UNL     1       0.992  -6.737   0.267  0.00  0.00    +0.002 C 
ATOM     16  C   UNL     1       2.521  -6.675   0.295  0.00  0.00    -0.011 C 
ENDBRANCH   3  16
ENDBRANCH   1   3
BRANCH   1  17
ATOM     17  C   UNL     1       1.262  -5.818  -2.476  0.00  0.00    -0.073 C 
BRANCH  17  18
ATOM     18  C   UNL     1       1.405  -6.813  -3.629  0.00  0.00    +0.016 C 
BRANCH  18  19
ATOM     19  C   UNL     1       0.076  -6.974  -4.321  0.00  0.00    -0.049 A 
ATOM     20  C   UNL     1      -0.809  -7.950  -3.901  0.00  0.00    +0.003 A 
ATOM     21  C   UNL     1      -2.030  -8.094  -4.533  0.00  0.00    +0.000 A 
ATOM     22  C   UNL     1      -2.362  -7.269  -5.591  0.00  0.00    +0.000 A 
ATOM     23  C   UNL     1      -1.475  -6.297  -6.015  0.00  0.00    +0.000 A 
ATOM     24  C   UNL     1      -0.257  -6.149  -5.380  0.00  0.00    +0.003 A 
ENDBRANCH  18  19
ENDBRANCH  17  18
ENDBRANCH   1  17
BRANCH   1  25
ATOM     25  C   UNL     1       2.554  -4.365  -1.032  0.00  0.00    -0.037 C 
BRANCH  25  26
ATOM     26  C   UNL     1       2.433  -3.136  -1.896  0.00  0.00    +0.001 A 
ATOM     27  C   UNL     1       1.212  -2.597  -2.138  0.00  0.00    +0.017 A 
ATOM     28  C   UNL     1       1.129  -1.403  -2.980  0.00  0.00    -0.001 A 
ATOM     29  C   UNL     1      -0.102  -0.802  -3.264  0.00  0.00    +0.010 A 
ATOM     30  C   UNL     1      -0.145   0.312  -4.053  0.00  0.00    +0.004 A 
ATOM     31  C   UNL     1       1.022   0.854  -4.575  0.00  0.00    -0.046 A 
ATOM     32  C   UNL     1       2.245   0.279  -4.309  0.00  0.00    -0.024 A 
ATOM     33  C   UNL     1       2.314  -0.856  -3.507  0.00  0.00    +0.052 A 
ATOM     34  N   UNL     1       3.525  -1.452  -3.223  0.00  0.00    -0.322 N 
ATOM     35  H   UNL     1       4.341  -1.073  -3.587  0.00  0.00    +0.169 HD
ATOM     36  C   UNL     1       3.591  -2.549  -2.449  0.00  0.00    +0.251 A 
ATOM     37  O   UNL     1       4.678  -3.049  -2.219  0.00  0.00    -0.268 OA
ATOM     38  C   UNL     1       3.504   0.877  -4.883  0.00  0.00    +0.046 C 
ATOM     39  C   UNL     1       0.950   2.084  -5.444  0.00  0.00    +0.044 C 
ENDBRANCH  25  26
ENDBRANCH   1  25
TORSDOF 9
