REMARK  Name = ZINC39668471
REMARK  9 active torsions:
REMARK  status: ('A' for Active; 'I' for Inactive)
REMARK    1  A    between atoms: C_1  and  C_2
REMARK    2  A    between atoms: C_2  and  C_4
REMARK    3  A    between atoms: C_2  and  O_29
REMARK    4  A    between atoms: C_4  and  N_5
REMARK    5  A    between atoms: C_6  and  C_8
REMARK    6  A    between atoms: C_19  and  C_21
REMARK    7  A    between atoms: C_26  and  O_27
REMARK    8  A    between atoms: O_27  and  C_28
REMARK    9  A    between atoms: O_29  and  C_30
REMARK                            x       y       z     vdW  Elec       q    Type
REMARK                         _______ _______ _______ _____ _____    ______ ____
ROOT
ATOM      1  C   UNL     1       1.376  -2.847  -1.774  0.00  0.00    +0.100 C 
ATOM      2  C   UNL     1      -0.053  -3.406  -1.955  0.00  0.00    +0.121 C 
ATOM      3  N   UNL     1      -0.126  -3.793  -3.384  0.00  0.00    -0.296 N 
ATOM      4  C   UNL     1       1.204  -4.382  -3.675  0.00  0.00    +0.115 C 
ATOM      5  C   UNL     1       2.199  -3.493  -2.902  0.00  0.00    -0.004 C 
ATOM      6  C   UNL     1       3.323  -4.342  -2.317  0.00  0.00    -0.010 C 
ATOM      7  C   UNL     1       4.162  -4.926  -3.458  0.00  0.00    -0.082 C 
ATOM      8  N   UNL     1       4.717  -3.835  -4.267  0.00  0.00    +0.379 N 
ATOM      9  C   UNL     1       3.630  -3.079  -4.901  0.00  0.00    -0.082 C 
ATOM     10  C   UNL     1       2.768  -2.417  -3.822  0.00  0.00    -0.010 C 
ATOM     11  C   UNL     1      -1.165  -3.644  -4.228  0.00  0.00    +0.250 C 
ATOM     12  O   UNL     1      -2.167  -3.060  -3.862  0.00  0.00    -0.270 OA
ATOM     13  H   UNL     1       5.253  -3.218  -3.676  0.00  0.00    -0.086 HD
ATOM     14  H   UNL     1       5.318  -4.219  -4.981  0.00  0.00    -0.086 HD
ENDROOT
BRANCH  11  15
ATOM     15  C   UNL     1      -1.088  -4.188  -5.597  0.00  0.00    +0.078 A 
ATOM     16  C   UNL     1      -0.405  -5.383  -5.840  0.00  0.00    +0.017 A 
ATOM     17  C   UNL     1      -0.338  -5.886  -7.121  0.00  0.00    +0.001 A 
ATOM     18  C   UNL     1      -0.944  -5.214  -8.170  0.00  0.00    +0.004 A 
ATOM     19  C   UNL     1      -1.621  -4.033  -7.943  0.00  0.00    +0.046 A 
ATOM     20  C   UNL     1      -1.704  -3.514  -6.660  0.00  0.00    +0.132 A 
BRANCH  20  21
ATOM     21  O   UNL     1      -2.375  -2.356  -6.435  0.00  0.00    -0.494 OA
ATOM     22  C   UNL     1      -2.977  -1.725  -7.566  0.00  0.00    +0.277 C 
ENDBRANCH  20  21
ENDBRANCH  11  15
BRANCH   1  24
ATOM     23  N   UNL     1       2.337  -0.612  -1.325  0.00  0.00    -0.312 N 
ATOM     24  C   UNL     1       1.375  -1.347  -1.918  0.00  0.00    +0.218 C 
ATOM     25  O   UNL     1       0.508  -0.801  -2.567  0.00  0.00    -0.275 OA
ATOM     26  H   UNL     1       3.030  -1.049  -0.806  0.00  0.00    +0.149 HD
BRANCH  23  27
ATOM     27  C   UNL     1       2.335   0.846  -1.465  0.00  0.00    +0.148 C 
BRANCH  27  29
ATOM     28  C   UNL     1       3.522   2.956  -0.847  0.00  0.00    +0.053 C 
ATOM     29  C   UNL     1       3.524   1.433  -0.701  0.00  0.00    +0.187 C 
BRANCH  29  30
ATOM     30  O   UNL     1       3.420   1.087   0.681  0.00  0.00    -0.486 OA
BRANCH  30  31
ATOM     31  C   UNL     1       4.574   1.055   1.398  0.00  0.00    +0.139 A 
ATOM     32  C   UNL     1       5.773   1.467   0.824  0.00  0.00    +0.049 A 
ATOM     33  C   UNL     1       6.923   1.417   1.594  0.00  0.00    +0.023 A 
ATOM     34  C   UNL     1       6.843   0.964   2.898  0.00  0.00    +0.111 A 
ATOM     35  N   UNL     1       5.691   0.581   3.412  0.00  0.00    -0.260 NA
ATOM     36  C   UNL     1       4.573   0.619   2.715  0.00  0.00    +0.156 A 
ENDBRANCH  30  31
ENDBRANCH  29  30
ENDBRANCH  27  29
ENDBRANCH  23  27
ENDBRANCH   1  24
TORSDOF 7
