REMARK  Name = ZINC39095263
REMARK  2 active torsions:
REMARK  status: ('A' for Active; 'I' for Inactive)
REMARK    1  A    between atoms: C_1  and  C_2
REMARK    2  A    between atoms: C_2  and  C_3
REMARK                            x       y       z     vdW  Elec       q    Type
REMARK                         _______ _______ _______ _____ _____    ______ ____
ROOT
ATOM      1  C   UNL     1      -1.433  -0.534   0.013  0.00  0.00    +0.089 C 
ATOM      2  C   UNL     1      -1.441  -2.073   0.080  0.00  0.00    +0.125 C 
ATOM      3  N   UNL     1      -2.116  -2.477  -1.163  0.00  0.00    -0.325 N 
ATOM      4  C   UNL     1      -2.454  -1.381  -1.855  0.00  0.00    +0.131 C 
ATOM      5  S   UNL     1      -3.260  -1.443  -3.364  0.00  0.00    -0.019 S 
ATOM      6  N   UNL     1      -2.105  -0.230  -1.259  0.00  0.00    -0.322 N 
ATOM      7  H   UNL     1      -2.288  -3.391  -1.437  0.00  0.00    +0.148 HD
ATOM      8  H   UNL     1      -2.269   0.659  -1.611  0.00  0.00    +0.148 HD
ENDROOT
BRANCH   1  10
ATOM      9  C   UNL     1      -0.019   1.526   0.010  0.00  0.00    +0.006 C 
ATOM     10  C   UNL     1       0.002  -0.004   0.002  0.00  0.00    +0.020 C 
ENDBRANCH   1  10
TORSDOF 1
