REMARK  Name = ZINC52521492
REMARK  7 active torsions:
REMARK  status: ('A' for Active; 'I' for Inactive)
REMARK    1  A    between atoms: C_6  and  C_7
REMARK    2  A    between atoms: C_7  and  O_9
REMARK    3  A    between atoms: O_9  and  C_10
REMARK    4  A    between atoms: C_10  and  C_11
REMARK    5  A    between atoms: C_11  and  N_12
REMARK    6  A    between atoms: N_15  and  C_18
REMARK    7  A    between atoms: C_21  and  N_24
REMARK                            x       y       z     vdW  Elec       q    Type
REMARK                         _______ _______ _______ _____ _____    ______ ____
ROOT
ATOM      1  N   UNL     1      -1.612  -4.705   1.242  0.00  0.00    -0.296 NA
ATOM      2  C   UNL     1      -2.498  -4.488   2.393  0.00  0.00    +0.103 C 
ATOM      3  C   UNL     1      -1.720  -4.741   3.688  0.00  0.00    +0.120 C 
ATOM      4  N   UNL     1      -1.112  -6.078   3.615  0.00  0.00    -0.327 N 
ATOM      5  C   UNL     1      -0.320  -6.418   2.422  0.00  0.00    +0.120 C 
ATOM      6  C   UNL     1      -1.154  -6.099   1.177  0.00  0.00    +0.103 C 
ENDROOT
BRANCH   4   7
ATOM      7  C   UNL     1      -1.282  -7.001   4.649  0.00  0.00    +0.030 A 
ATOM      8  C   UNL     1      -0.797  -8.296   4.514  0.00  0.00    +0.025 A 
ATOM      9  C   UNL     1      -0.966  -9.205   5.539  0.00  0.00    +0.034 A 
ATOM     10  C   UNL     1      -1.617  -8.829   6.699  0.00  0.00    +0.126 A 
ATOM     11  C   UNL     1      -2.101  -7.541   6.837  0.00  0.00    +0.034 A 
ATOM     12  C   UNL     1      -1.931  -6.625   5.818  0.00  0.00    +0.025 A 
BRANCH  10  13
ATOM     13  N   UNL     1      -1.797  -9.806   7.796  0.00  0.00    +0.056 N 
ATOM     14  O   UNL     1      -1.375 -10.933   7.676  0.00  0.00    -0.126 OA
ATOM     15  O   UNL     1      -2.366  -9.479   8.811  0.00  0.00    -0.126 OA
ENDBRANCH  10  13
ENDBRANCH   4   7
BRANCH   1  16
ATOM     16  C   UNL     1      -2.269  -4.307  -0.010  0.00  0.00    +0.125 C 
BRANCH  16  17
ATOM     17  C   UNL     1      -2.507  -2.796  -0.004  0.00  0.00    +0.248 C 
BRANCH  17  18
ATOM     18  O   UNL     1      -1.250  -2.116  -0.004  0.00  0.00    -0.460 OA
BRANCH  18  19
ATOM     19  C   UNL     1      -1.283  -0.769   0.001  0.00  0.00    +0.339 C 
ATOM     20  O   UNL     1      -2.350  -0.188   0.005  0.00  0.00    -0.245 OA
BRANCH  19  26
ATOM     21  C   UNL     1      -0.056   1.397   0.007  0.00  0.00    +0.018 A 
ATOM     22  C   UNL     1       1.124   2.111   0.008  0.00  0.00    +0.039 A 
ATOM     23  C   UNL     1       2.340   1.445   0.004  0.00  0.00    +0.123 A 
ATOM     24  C   UNL     1       2.377   0.059  -0.002  0.00  0.00    +0.039 A 
ATOM     25  C   UNL     1       1.204  -0.665  -0.003  0.00  0.00    +0.018 A 
ATOM     26  C   UNL     1      -0.024   0.001   0.002  0.00  0.00    +0.059 A 
ATOM     27  F   UNL     1       3.493   2.149   0.004  0.00  0.00    -0.205 F 
ENDBRANCH  19  26
ENDBRANCH  18  19
ENDBRANCH  17  18
ENDBRANCH  16  17
ENDBRANCH   1  16
TORSDOF 7
