REMARK  Name = ZINC12635435
REMARK  12 active torsions:
REMARK  status: ('A' for Active; 'I' for Inactive)
REMARK    1  A    between atoms: C_1  and  C_2
REMARK    2  A    between atoms: C_2  and  N_67
REMARK    3  A    between atoms: C_6  and  C_8
REMARK    4  A    between atoms: C_8  and  N_9
REMARK    5  A    between atoms: N_9  and  C_10
REMARK    6  A    between atoms: N_9  and  C_24
REMARK    7  A    between atoms: C_10  and  C_11
REMARK    8  A    between atoms: C_16  and  C_23
REMARK    9  A    between atoms: C_24  and  N_26
REMARK   10  A    between atoms: N_26  and  C_27
REMARK   11  A    between atoms: C_30  and  C_34
REMARK   12  A    between atoms: C_32  and  C_33
REMARK                            x       y       z     vdW  Elec       q    Type
REMARK                         _______ _______ _______ _____ _____    ______ ____
ROOT
ATOM      1  N   UNL     1      -1.441  -0.687   1.686  0.00  0.00    -0.309 N 
ENDROOT
BRANCH   1   2
ATOM      2  C   UNL     1      -1.210  -1.756   2.473  0.00  0.00    +0.137 C 
ATOM      3  S   UNL     1       0.089  -2.814   2.121  0.00  0.00    -0.018 S 
BRANCH   2   4
ATOM      4  N   UNL     1      -2.003  -1.993   3.537  0.00  0.00    -0.297 N 
ATOM      5  H   UNL     1      -2.714  -1.373   3.760  0.00  0.00    +0.154 HD
BRANCH   4   6
ATOM      6  C   UNL     1      -1.800  -3.135   4.320  0.00  0.00    +0.036 A 
ATOM      7  C   UNL     1      -1.462  -4.340   3.718  0.00  0.00    +0.024 A 
ATOM      8  C   UNL     1      -1.258  -5.464   4.494  0.00  0.00    +0.005 A 
ATOM      9  C   UNL     1      -1.399  -5.392   5.868  0.00  0.00    -0.050 A 
ATOM     10  C   UNL     1      -1.739  -4.195   6.470  0.00  0.00    +0.008 A 
ATOM     11  C   UNL     1      -1.940  -3.066   5.700  0.00  0.00    -0.029 A 
ATOM     12  C   UNL     1      -2.311  -1.761   6.356  0.00  0.00    +0.045 C 
ATOM     13  C   UNL     1      -1.181  -6.622   6.712  0.00  0.00    +0.044 C 
ENDBRANCH   4   6
ENDBRANCH   2   4
ENDBRANCH   1   2
BRANCH   1  14
ATOM     14  C   UNL     1      -2.553   0.218   1.987  0.00  0.00    +0.092 C 
BRANCH  14  18
ATOM     15  C   UNL     1      -6.006   0.218   0.672  0.00  0.00    -0.078 C 
ATOM     16  C   UNL     1      -5.190   0.037  -0.626  0.00  0.00    -0.020 C 
ATOM     17  C   UNL     1      -3.768  -0.332  -0.157  0.00  0.00    -0.016 C 
ATOM     18  C   UNL     1      -3.844  -0.342   1.385  0.00  0.00    -0.051 C 
ATOM     19  N   UNL     1      -4.990   0.524   1.678  0.00  0.00    +0.382 N 
ATOM     20  H   UNL     1      -4.713   1.511   1.608  0.00  0.00    -0.081 HD
BRANCH  19  22
ATOM     21  C   UNL     1      -6.561   1.303   3.432  0.00  0.00    -0.017 C 
ATOM     22  C   UNL     1      -5.508   0.257   3.058  0.00  0.00    -0.082 C 
ENDBRANCH  19  22
ENDBRANCH  14  18
ENDBRANCH   1  14
BRANCH   1  23
ATOM     23  C   UNL     1      -0.580  -0.429   0.529  0.00  0.00    +0.147 C 
BRANCH  23  24
ATOM     24  C   UNL     1       0.575   0.444   0.947  0.00  0.00    +0.035 A 
ATOM     25  C   UNL     1       1.758  -0.121   1.295  0.00  0.00    +0.020 A 
ATOM     26  C   UNL     1       2.860   0.756   1.696  0.00  0.00    -0.001 A 
ATOM     27  C   UNL     1       4.103   0.232   2.065  0.00  0.00    +0.010 A 
ATOM     28  C   UNL     1       5.111   1.076   2.435  0.00  0.00    +0.004 A 
ATOM     29  C   UNL     1       4.913   2.450   2.447  0.00  0.00    -0.048 A 
ATOM     30  C   UNL     1       3.696   2.989   2.087  0.00  0.00    +0.029 A 
ATOM     31  C   UNL     1       2.655   2.148   1.707  0.00  0.00    +0.049 A 
ATOM     32  N   UNL     1       1.427   2.659   1.342  0.00  0.00    -0.322 N 
ATOM     33  H   UNL     1       1.288   3.619   1.351  0.00  0.00    +0.169 HD
ATOM     34  C   UNL     1       0.421   1.847   0.975  0.00  0.00    +0.254 A 
ATOM     35  O   UNL     1      -0.649   2.334   0.654  0.00  0.00    -0.268 OA
ATOM     36  C   UNL     1       6.040   3.363   2.857  0.00  0.00    +0.044 C 
ENDBRANCH  23  24
ENDBRANCH   1  23
TORSDOF 8
