REMARK  Name = ZINC04873187
REMARK  3 active torsions:
REMARK  status: ('A' for Active; 'I' for Inactive)
REMARK    1  A    between atoms: C_2  and  C_3
REMARK    2  A    between atoms: C_3  and  N_4
REMARK    3  A    between atoms: C_8  and  C_9
REMARK                            x       y       z     vdW  Elec       q    Type
REMARK                         _______ _______ _______ _____ _____    ______ ____
ROOT
ATOM      1  N   UNL     1      -1.117   1.966  -0.441  0.00  0.00    -0.217 N 
ATOM      2  C   UNL     1      -0.025   1.304  -0.099  0.00  0.00    +0.261 C 
ATOM      3  O   UNL     1      -0.075   0.167   0.333  0.00  0.00    -0.269 OA
ATOM      4  C   UNL     1       1.260   2.012  -0.272  0.00  0.00    +0.080 C 
ATOM      5  C   UNL     1       2.524   1.587  -0.014  0.00  0.00    +0.029 C 
ATOM      6  S   UNL     1       0.693   3.580  -0.916  0.00  0.00    -0.026 S 
ATOM      7  C   UNL     1      -1.057   3.228  -0.914  0.00  0.00    +0.287 C 
ATOM      8  O   UNL     1      -1.974   3.949  -1.260  0.00  0.00    -0.262 OA
ENDROOT
BRANCH   5   9
ATOM      9  C   UNL     1       3.646   2.525  -0.114  0.00  0.00    -0.016 A 
ATOM     10  C   UNL     1       3.428   3.900  -0.100  0.00  0.00    +0.008 A 
ATOM     11  C   UNL     1       4.493   4.784  -0.195  0.00  0.00    +0.001 A 
ATOM     12  C   UNL     1       5.780   4.350  -0.304  0.00  0.00    +0.008 A 
ATOM     13  C   UNL     1       6.075   2.976  -0.324  0.00  0.00    -0.017 A 
ATOM     14  C   UNL     1       5.021   2.035  -0.225  0.00  0.00    -0.011 A 
ATOM     15  C   UNL     1       5.311   0.667  -0.250  0.00  0.00    +0.009 A 
ATOM     16  C   UNL     1       6.606   0.254  -0.360  0.00  0.00    +0.001 A 
ATOM     17  C   UNL     1       7.645   1.176  -0.454  0.00  0.00    +0.001 A 
ATOM     18  C   UNL     1       7.398   2.515  -0.437  0.00  0.00    +0.008 A 
ENDBRANCH   5   9
BRANCH   1  19
ATOM     19  C   UNL     1      -2.422   1.317  -0.298  0.00  0.00    +0.206 C 
BRANCH  19  21
ATOM     20  C   UNL     1      -3.397   1.815   2.111  0.00  0.00    +0.005 C 
ATOM     21  C   UNL     1      -2.965   1.594   1.042  0.00  0.00    -0.086 C 
ENDBRANCH  19  21
ENDBRANCH   1  19
TORSDOF 3
