REMARK  Name = ZINC05444992
REMARK  3 active torsions:
REMARK  status: ('A' for Active; 'I' for Inactive)
REMARK    1  A    between atoms: C_6  and  C_7
REMARK    2  A    between atoms: N_16  and  C_17
REMARK    3  A    between atoms: C_20  and  C_22
REMARK                            x       y       z     vdW  Elec       q    Type
REMARK                         _______ _______ _______ _____ _____    ______ ____
ROOT
ATOM      1  C   UNL     1       4.689  -0.075   0.574  0.00  0.00    +0.013 C 
ATOM      2  C   UNL     1       4.620   1.198   1.000  0.00  0.00    -0.026 C 
ATOM      3  C   UNL     1       5.784   1.839   1.722  0.00  0.00    +0.037 C 
ATOM      4  C   UNL     1       5.196   2.660   2.880  0.00  0.00    +0.009 C 
ATOM      5  C   UNL     1       4.300   3.752   2.304  0.00  0.00    +0.035 C 
ATOM      6  C   UNL     1       3.243   3.179   1.393  0.00  0.00    -0.024 C 
ATOM      7  C   UNL     1       3.405   2.007   0.778  0.00  0.00    +0.038 C 
ATOM      8  N   UNL     1       2.428   1.495  -0.092  0.00  0.00    -0.286 N 
ATOM      9  C   UNL     1       1.204   2.123  -0.142  0.00  0.00    +0.196 C 
ATOM     10  N   UNL     1       0.076   1.464  -0.344  0.00  0.00    -0.142 NA
ATOM     11  N   UNL     1       1.243   3.493   0.029  0.00  0.00    -0.306 N 
ATOM     12  C   UNL     1       1.972   3.981   1.211  0.00  0.00    +0.131 C 
ATOM     13  H   UNL     1       2.612   0.719  -0.644  0.00  0.00    +0.155 HD
ATOM     14  H   UNL     1       0.812   4.098  -0.595  0.00  0.00    +0.150 HD
ENDROOT
BRANCH   1  20
ATOM     15  C   UNL     1       7.175  -0.134   0.487  0.00  0.00    +0.009 A 
ATOM     16  C   UNL     1       8.364  -0.827   0.567  0.00  0.00    +0.020 A 
ATOM     17  C   UNL     1       8.359  -2.192   0.799  0.00  0.00    +0.041 A 
ATOM     18  C   UNL     1       7.162  -2.870   0.958  0.00  0.00    +0.020 A 
ATOM     19  C   UNL     1       5.966  -2.188   0.886  0.00  0.00    +0.009 A 
ATOM     20  C   UNL     1       5.963  -0.810   0.652  0.00  0.00    -0.025 A 
ATOM     21 CL   UNL     1       9.861  -3.058   0.892  0.00  0.00    -0.084 Cl
ENDBRANCH   1  20
BRANCH  12  22
ATOM     22  C   UNL     1       1.106   3.832   2.436  0.00  0.00    -0.023 A 
ATOM     23  C   UNL     1       0.324   2.703   2.596  0.00  0.00    +0.007 A 
ATOM     24  C   UNL     1      -0.466   2.564   3.722  0.00  0.00    +0.020 A 
ATOM     25  C   UNL     1      -0.483   3.560   4.682  0.00  0.00    +0.041 A 
ATOM     26  C   UNL     1       0.295   4.692   4.518  0.00  0.00    +0.020 A 
ATOM     27  C   UNL     1       1.089   4.828   3.395  0.00  0.00    +0.007 A 
ATOM     28 CL   UNL     1      -1.481   3.389   6.092  0.00  0.00    -0.084 Cl
ENDBRANCH  12  22
BRANCH  10  29
ATOM     29  C   UNL     1       0.097   0.120  -0.512  0.00  0.00    +0.208 C 
ATOM     30  N   UNL     1       0.115  -1.007  -0.652  0.00  0.00    -0.169 NA
ENDBRANCH  10  29
TORSDOF 3
