REMARK  Name = ZINC08837528
REMARK  16 active torsions:
REMARK  status: ('A' for Active; 'I' for Inactive)
REMARK    1  A    between atoms: C_1  and  C_2
REMARK    2  A    between atoms: C_2  and  N_68
REMARK    3  A    between atoms: C_3  and  C_4
REMARK    4  A    between atoms: C_3  and  N_68
REMARK    5  A    between atoms: C_5  and  C_6
REMARK    6  A    between atoms: C_5  and  N_68
REMARK    7  A    between atoms: C_6  and  N_7
REMARK    8  A    between atoms: C_8  and  C_27
REMARK    9  A    between atoms: C_11  and  C_12
REMARK   10  A    between atoms: C_11  and  O_22
REMARK   11  A    between atoms: C_15  and  O_18
REMARK   12  A    between atoms: O_18  and  C_19
REMARK   13  A    between atoms: C_19  and  C_20
REMARK   14  A    between atoms: C_19  and  C_21
REMARK   15  A    between atoms: C_30  and  O_33
REMARK   16  A    between atoms: O_33  and  C_34
REMARK                            x       y       z     vdW  Elec       q    Type
REMARK                         _______ _______ _______ _____ _____    ______ ____
ROOT
ATOM      1  N   UNL     1      -4.524   2.432   4.601  0.00  0.00    -0.285 N 
ATOM      2  C   UNL     1      -4.947   1.199   5.272  0.00  0.00    +0.144 C 
ATOM      3  C   UNL     1      -5.297   1.579   6.692  0.00  0.00    +0.071 C 
ATOM      4  C   UNL     1      -5.745   0.735   7.690  0.00  0.00    +0.133 C 
ATOM      5  C   UNL     1      -5.075   2.960   6.793  0.00  0.00    +0.249 C 
ATOM      6  O   UNL     1      -5.245   3.639   7.790  0.00  0.00    -0.282 OA
ATOM      7  C   UNL     1      -4.591   3.450   5.475  0.00  0.00    +0.288 C 
ATOM      8  O   UNL     1      -4.302   4.602   5.224  0.00  0.00    -0.266 OA
ENDROOT
BRANCH   4   9
ATOM      9  C   UNL     1      -5.951   1.250   9.052  0.00  0.00    +0.017 A 
ATOM     10  C   UNL     1      -4.936   1.972   9.691  0.00  0.00    +0.015 A 
ATOM     11  C   UNL     1      -5.135   2.457  10.963  0.00  0.00    +0.046 A 
ATOM     12  C   UNL     1      -6.340   2.223  11.618  0.00  0.00    +0.121 A 
ATOM     13  C   UNL     1      -7.350   1.502  10.990  0.00  0.00    +0.046 A 
ATOM     14  C   UNL     1      -7.162   1.017   9.716  0.00  0.00    +0.015 A 
BRANCH  12  15
ATOM     15  O   UNL     1      -6.530   2.698  12.875  0.00  0.00    -0.489 OA
BRANCH  15  16
ATOM     16  C   UNL     1      -5.413   3.328  13.506  0.00  0.00    +0.167 C 
ATOM     17  C   UNL     1      -5.351   4.798  13.084  0.00  0.00    +0.051 C 
ATOM     18  C   UNL     1      -5.569   3.240  15.025  0.00  0.00    +0.051 C 
ENDBRANCH  15  16
ENDBRANCH  12  15
ENDBRANCH   4   9
BRANCH   2  19
ATOM     19  C   UNL     1      -3.821   0.197   5.268  0.00  0.00    -0.022 A 
ATOM     20  C   UNL     1      -2.522   0.618   5.484  0.00  0.00    +0.009 A 
ATOM     21  C   UNL     1      -1.489  -0.299   5.486  0.00  0.00    +0.046 A 
ATOM     22  C   UNL     1      -1.754  -1.642   5.260  0.00  0.00    +0.120 A 
ATOM     23  C   UNL     1      -3.058  -2.061   5.038  0.00  0.00    +0.046 A 
ATOM     24  C   UNL     1      -4.088  -1.140   5.042  0.00  0.00    +0.009 A 
BRANCH  22  25
ATOM     25  O   UNL     1      -0.739  -2.545   5.256  0.00  0.00    -0.495 OA
ATOM     26  C   UNL     1       0.577  -2.042   5.492  0.00  0.00    +0.277 C 
ENDBRANCH  22  25
ENDBRANCH   2  19
BRANCH   4  27
ATOM     27  O   UNL     1      -5.995  -0.564   7.415  0.00  0.00    -0.506 OA
ATOM     28  H   UNL     1      -6.309  -1.026   8.244  0.00  0.00    +0.292 HD
ENDBRANCH   4  27
BRANCH   1  29
ATOM     29  C   UNL     1      -4.093   2.536   3.204  0.00  0.00    +0.090 C 
BRANCH  29  30
ATOM     30  C   UNL     1      -5.306   2.820   2.316  0.00  0.00    -0.060 C 
BRANCH  30  31
ATOM     31  N   UNL     1      -4.857   2.900   0.909  0.00  0.00    +0.380 N 
ATOM     32  H   UNL     1      -4.307   2.063   0.686  0.00  0.00    -0.082 HD
BRANCH  31  34
ATOM     33  C   UNL     1      -4.780   5.364   1.095  0.00  0.00    -0.017 C 
ATOM     34  C   UNL     1      -4.011   4.097   0.717  0.00  0.00    -0.082 C 
ENDBRANCH  31  34
BRANCH  31  35
ATOM     35  C   UNL     1      -6.028   2.959   0.009  0.00  0.00    -0.082 C 
ATOM     36  C   UNL     1      -5.580   2.574  -1.403  0.00  0.00    -0.017 C 
ENDBRANCH  31  35
ENDBRANCH  30  31
ENDBRANCH  29  30
ENDBRANCH   1  29
TORSDOF 11
