REMARK  Name = ZINC10041806
REMARK  16 active torsions:
REMARK  status: ('A' for Active; 'I' for Inactive)
REMARK    1  A    between atoms: C_1  and  C_2
REMARK    2  A    between atoms: C_2  and  O_3
REMARK    3  A    between atoms: O_3  and  C_4
REMARK    4  A    between atoms: C_6  and  C_16
REMARK    5  A    between atoms: C_9  and  O_10
REMARK    6  A    between atoms: O_10  and  C_11
REMARK    7  A    between atoms: C_11  and  C_12
REMARK    8  A    between atoms: C_12  and  O_14
REMARK    9  A    between atoms: O_14  and  C_15
REMARK   10  A    between atoms: N_17  and  N_18
REMARK   11  A    between atoms: C_19  and  C_21
REMARK   12  A    between atoms: C_21  and  C_23
REMARK   13  A    between atoms: C_21  and  N_26
REMARK   14  A    between atoms: C_23  and  C_24
REMARK   15  A    between atoms: C_23  and  C_25
REMARK   16  A    between atoms: C_27  and  C_29
REMARK                            x       y       z     vdW  Elec       q    Type
REMARK                         _______ _______ _______ _____ _____    ______ ____
ROOT
ATOM      1  N   UNL     1       1.556  -6.150  -0.066  0.00  0.00    -0.205 N 
ATOM      2  C   UNL     1       2.618  -6.979  -0.039  0.00  0.00    +0.253 C 
ATOM      3  O   UNL     1       3.742  -6.527  -0.094  0.00  0.00    -0.272 OA
ATOM      4  H   UNL     1       0.657  -6.514  -0.096  0.00  0.00    +0.177 HD
ENDROOT
BRANCH   1   6
ATOM      5  C   UNL     1       0.727  -3.964  -0.078  0.00  0.00    +0.138 C 
ATOM      6  N   UNL     1       1.750  -4.763  -0.052  0.00  0.00    -0.188 NA
BRANCH   5   9
ATOM      7  C   UNL     1       0.028  -0.275  -0.077  0.00  0.00    +0.163 A 
ATOM      8  C   UNL     1      -0.169  -1.643  -0.091  0.00  0.00    +0.059 A 
ATOM      9  C   UNL     1       0.931  -2.504  -0.063  0.00  0.00    -0.002 A 
ATOM     10  C   UNL     1       2.225  -1.978  -0.021  0.00  0.00    +0.013 A 
ATOM     11  C   UNL     1       2.413  -0.612  -0.013  0.00  0.00    +0.050 A 
ATOM     12  C   UNL     1       1.321   0.242  -0.035  0.00  0.00    +0.163 A 
BRANCH   7  13
ATOM     13  O   UNL     1      -1.040   0.566  -0.104  0.00  0.00    -0.489 OA
BRANCH  13  15
ATOM     14  C   UNL     1      -3.405   1.062  -0.173  0.00  0.00    +0.048 C 
ATOM     15  C   UNL     1      -2.337  -0.033  -0.147  0.00  0.00    +0.226 C 
ENDBRANCH  13  15
ENDBRANCH   7  13
BRANCH  12  16
ATOM     16  O   UNL     1       1.512   1.588  -0.021  0.00  0.00    -0.477 OA
BRANCH  16  17
ATOM     17  C   UNL     1       2.864   2.051   0.022  0.00  0.00    +0.349 C 
BRANCH  17  18
ATOM     18  C   UNL     1       2.879   3.558   0.032  0.00  0.00    +0.345 C 
ATOM     19  O   UNL     1       1.839   4.172   0.004  0.00  0.00    -0.247 OA
BRANCH  18  20
ATOM     20  O   UNL     1       4.048   4.217   0.071  0.00  0.00    -0.466 OA
ATOM     21  C   UNL     1       3.986   5.668   0.077  0.00  0.00    +0.280 C 
ENDBRANCH  18  20
ENDBRANCH  17  18
ENDBRANCH  16  17
ENDBRANCH  12  16
ENDBRANCH   5   9
ENDBRANCH   1   6
BRANCH   2  22
ATOM     22  C   UNL     1       2.409  -8.468   0.060  0.00  0.00    +0.163 C 
BRANCH  22  23
ATOM     23  N   UNL     1       3.572  -9.083   0.706  0.00  0.00    -0.300 N 
ATOM     24  C   UNL     1       3.441 -10.258   1.352  0.00  0.00    +0.246 C 
ATOM     25  O   UNL     1       2.358 -10.808   1.399  0.00  0.00    -0.270 OA
ATOM     26  H   UNL     1       4.436  -8.644   0.668  0.00  0.00    +0.150 HD
BRANCH  24  27
ATOM     27  C   UNL     1       4.613 -10.878   2.003  0.00  0.00    +0.055 A 
ATOM     28  C   UNL     1       5.858 -10.248   1.951  0.00  0.00    +0.016 A 
ATOM     29  C   UNL     1       6.949 -10.831   2.561  0.00  0.00    +0.021 A 
ATOM     30  C   UNL     1       6.811 -12.040   3.224  0.00  0.00    +0.042 A 
ATOM     31  C   UNL     1       5.580 -12.670   3.280  0.00  0.00    +0.040 A 
ATOM     32  C   UNL     1       4.479 -12.093   2.679  0.00  0.00    +0.054 A 
ATOM     33 CL   UNL     1       2.934 -12.880   2.757  0.00  0.00    -0.083 Cl
ATOM     34 CL   UNL     1       8.190 -12.766   3.989  0.00  0.00    -0.083 Cl
ENDBRANCH  24  27
ENDBRANCH  22  23
BRANCH  22  35
ATOM     35  C   UNL     1       2.237  -9.053  -1.343  0.00  0.00    +0.012 C 
ATOM     36  C   UNL     1       0.951  -8.509  -1.969  0.00  0.00    +0.009 C 
ATOM     37  C   UNL     1       3.433  -8.657  -2.212  0.00  0.00    +0.009 C 
ENDBRANCH  22  35
ENDBRANCH   2  22
TORSDOF 12
