REMARK  Name = ZINC16747960
REMARK  6 active torsions:
REMARK  status: ('A' for Active; 'I' for Inactive)
REMARK    1  A    between atoms: C_6  and  S_7
REMARK    2  A    between atoms: S_7  and  N_10
REMARK    3  A    between atoms: C_14  and  C_16
REMARK    4  A    between atoms: C_16  and  O_17
REMARK    5  A    between atoms: O_17  and  C_18
REMARK    6  A    between atoms: C_18  and  C_20
REMARK                            x       y       z     vdW  Elec       q    Type
REMARK                         _______ _______ _______ _____ _____    ______ ____
ROOT
ATOM      1  C   UNL     1      -6.428  10.188   0.119  0.00  0.00    +0.030 A 
ATOM      2  C   UNL     1      -5.309   9.383   0.103  0.00  0.00    +0.026 A 
ATOM      3  C   UNL     1      -4.034   9.950   0.093  0.00  0.00    +0.040 A 
ATOM      4  C   UNL     1      -3.912  11.331   0.099  0.00  0.00    -0.023 A 
ATOM      5  C   UNL     1      -5.036  12.134   0.114  0.00  0.00    +0.034 A 
ATOM      6  C   UNL     1      -6.296  11.564   0.124  0.00  0.00    +0.105 A 
ATOM      7  C   UNL     1      -2.441  11.684   0.086  0.00  0.00    +0.056 C 
ATOM      8  C   UNL     1      -1.718  10.328   0.078  0.00  0.00    +0.118 C 
ATOM      9  N   UNL     1      -2.784   9.323   0.077  0.00  0.00    -0.268 N 
ATOM     10  C   UNL     1      -2.590   7.989   0.069  0.00  0.00    +0.258 C 
ATOM     11  O   UNL     1      -3.541   7.237   0.074  0.00  0.00    -0.272 OA
ENDROOT
BRANCH   6  12
ATOM     12  S   UNL     1      -7.728  12.590   0.144  0.00  0.00    +0.056 S 
ATOM     13  O   UNL     1      -7.339  13.841  -0.405  0.00  0.00    -0.153 OA
ATOM     14  O   UNL     1      -8.789  11.816  -0.401  0.00  0.00    -0.153 OA
BRANCH  12  15
ATOM     15  N   UNL     1      -8.111  12.867   1.731  0.00  0.00    -0.204 NA
ATOM     16  H   UNL     1      -7.568  12.479   2.435  0.00  0.00    +0.144 HD
ATOM     17  H   UNL     1      -8.878  13.416   1.956  0.00  0.00    +0.144 HD
ENDBRANCH  12  15
ENDBRANCH   6  12
BRANCH  10  18
ATOM     18  C   UNL     1      -1.190   7.432   0.052  0.00  0.00    +0.328 C 
BRANCH  18  19
ATOM     19  O   UNL     1      -1.246   5.981   0.046  0.00  0.00    -0.452 OA
BRANCH  19  20
ATOM     20  C   UNL     1      -0.070   5.324   0.031  0.00  0.00    +0.340 C 
ATOM     21  O   UNL     1       0.973   5.945   0.024  0.00  0.00    -0.245 OA
BRANCH  20  22
ATOM     22  C   UNL     1      -0.050   3.847   0.023  0.00  0.00    +0.062 A 
ATOM     23  C   UNL     1       1.167   3.162   0.008  0.00  0.00    +0.035 A 
ATOM     24  C   UNL     1       1.179   1.782   0.000  0.00  0.00    +0.043 A 
ATOM     25  C   UNL     1      -0.013   1.076   0.008  0.00  0.00    +0.040 A 
ATOM     26  C   UNL     1      -1.222   1.749   0.017  0.00  0.00    +0.043 A 
ATOM     27  C   UNL     1      -1.248   3.129   0.031  0.00  0.00    +0.035 A 
ATOM     28 CL   UNL     1      -2.711   0.855   0.019  0.00  0.00    -0.083 Cl
ATOM     29 CL   UNL     1       2.691   0.928  -0.019  0.00  0.00    -0.083 Cl
ENDBRANCH  20  22
ENDBRANCH  19  20
ENDBRANCH  18  19
ENDBRANCH  10  18
TORSDOF 6
