REMARK  Name = ZINC08758868
REMARK  6 active torsions:
REMARK  status: ('A' for Active; 'I' for Inactive)
REMARK    1  A    between atoms: C_1  and  C_2
REMARK    2  A    between atoms: C_13  and  C_14
REMARK    3  A    between atoms: C_13  and  C_20
REMARK    4  A    between atoms: C_13  and  N_73
REMARK    5  A    between atoms: C_27  and  C_32
REMARK    6  A    between atoms: C_33  and  C_34
REMARK                            x       y       z     vdW  Elec       q    Type
REMARK                         _______ _______ _______ _____ _____    ______ ____
ROOT
ATOM      1  C   UNL     1      10.248   1.786   4.638  0.00  0.00    +0.066 C 
ATOM      2  C   UNL     1       9.582   2.394   3.431  0.00  0.00    +0.054 A 
ATOM      3  C   UNL     1       9.905   3.692   3.014  0.00  0.00    +0.060 A 
ATOM      4  C   UNL     1       9.267   4.223   1.887  0.00  0.00    +0.058 A 
ATOM      5  N   UNL     1       8.375   3.477   1.258  0.00  0.00    -0.219 NA
ATOM      6  C   UNL     1       8.092   2.252   1.682  0.00  0.00    +0.218 A 
ATOM      7  N   UNL     1       8.676   1.718   2.748  0.00  0.00    -0.219 NA
ATOM      8  N   UNL     1       7.155   1.510   0.996  0.00  0.00    -0.303 N 
ATOM      9  C   UNL     1       6.977   0.187   1.611  0.00  0.00    +0.089 C 
ATOM     10  C   UNL     1       5.991  -0.632   0.775  0.00  0.00    -0.058 C 
ATOM     11  C   UNL     1       4.888   1.406   0.078  0.00  0.00    -0.058 C 
ATOM     12  C   UNL     1       5.874   2.226   0.913  0.00  0.00    +0.089 C 
ATOM     13  C   UNL     1       9.579   5.603   1.382  0.00  0.00    +0.064 C 
ATOM     14  C   UNL     1      10.173   6.473   2.488  0.00  0.00    +0.025 C 
ATOM     15  C   UNL     1      11.391   5.766   3.096  0.00  0.00    +0.087 C 
ATOM     16  C   UNL     1      10.898   4.489   3.748  0.00  0.00    +0.167 C 
ATOM     17  O   UNL     1      11.307   4.139   4.835  0.00  0.00    -0.292 OA
ATOM     18  N   UNL     1       4.701   0.088   0.719  0.00  0.00    +0.389 N 
ATOM     19  H   UNL     1       4.355   0.228   1.675  0.00  0.00    -0.080 HD
ENDROOT
BRANCH  14  20
ATOM     20  C   UNL     1      10.598   7.798   1.910  0.00  0.00    -0.022 C 
ATOM     21  C   UNL     1      10.063   8.922   2.365  0.00  0.00    +0.004 C 
BRANCH  21  22
ATOM     22  C   UNL     1      10.480  10.222   1.799  0.00  0.00    -0.025 A 
ATOM     23  C   UNL     1      11.441  10.270   0.788  0.00  0.00    +0.008 A 
ATOM     24  C   UNL     1      11.822  11.486   0.259  0.00  0.00    +0.001 A 
ATOM     25  C   UNL     1      11.261  12.657   0.737  0.00  0.00    +0.000 A 
ATOM     26  C   UNL     1      10.313  12.617   1.743  0.00  0.00    +0.001 A 
ATOM     27  C   UNL     1       9.919  11.407   2.276  0.00  0.00    +0.008 A 
ENDBRANCH  21  22
ENDBRANCH  14  20
BRANCH  18  28
ATOM     28  C   UNL     1       3.711  -0.707  -0.039  0.00  0.00    -0.007 C 
BRANCH  28  29
ATOM     29  C   UNL     1       3.514  -2.032   0.653  0.00  0.00    -0.057 A 
ATOM     30  C   UNL     1       3.463  -3.197  -0.089  0.00  0.00    +0.002 A 
ATOM     31  C   UNL     1       3.283  -4.412   0.546  0.00  0.00    +0.000 A 
ATOM     32  C   UNL     1       3.153  -4.462   1.921  0.00  0.00    +0.000 A 
ATOM     33  C   UNL     1       3.205  -3.296   2.662  0.00  0.00    +0.000 A 
ATOM     34  C   UNL     1       3.385  -2.081   2.028  0.00  0.00    +0.002 A 
ENDBRANCH  28  29
BRANCH  28  35
ATOM     35  C   UNL     1       2.404   0.042  -0.071  0.00  0.00    -0.057 A 
ATOM     36  C   UNL     1       1.923   0.643   1.076  0.00  0.00    +0.002 A 
ATOM     37  C   UNL     1       0.726   1.335   1.045  0.00  0.00    +0.000 A 
ATOM     38  C   UNL     1       0.005   1.415  -0.132  0.00  0.00    +0.000 A 
ATOM     39  C   UNL     1       0.483   0.808  -1.278  0.00  0.00    +0.000 A 
ATOM     40  C   UNL     1       1.682   0.122  -1.248  0.00  0.00    +0.002 A 
ENDBRANCH  28  35
ENDBRANCH  18  28
TORSDOF 5
