REMARK  Name = ZINC09553576
REMARK  8 active torsions:
REMARK  status: ('A' for Active; 'I' for Inactive)
REMARK    1  A    between atoms: C_1  and  O_2
REMARK    2  A    between atoms: O_2  and  C_3
REMARK    3  A    between atoms: C_6  and  C_20
REMARK    4  A    between atoms: C_8  and  C_9
REMARK    5  A    between atoms: C_9  and  O_10
REMARK    6  A    between atoms: O_10  and  C_11
REMARK    7  A    between atoms: N_21  and  N_22
REMARK    8  A    between atoms: C_23  and  C_24
REMARK                            x       y       z     vdW  Elec       q    Type
REMARK                         _______ _______ _______ _____ _____    ______ ____
ROOT
ATOM      1  C   UNL     1      -2.869   1.061  -3.506  0.00  0.00    +0.127 A 
ATOM      2  C   UNL     1      -3.914   1.527  -2.717  0.00  0.00    +0.046 A 
ATOM      3  C   UNL     1      -4.885   0.658  -2.272  0.00  0.00    +0.013 A 
ATOM      4  C   UNL     1      -4.817  -0.698  -2.615  0.00  0.00    -0.005 A 
ATOM      5  C   UNL     1      -3.763  -1.162  -3.409  0.00  0.00    +0.020 A 
ATOM      6  C   UNL     1      -2.800  -0.282  -3.854  0.00  0.00    +0.032 A 
ENDROOT
BRANCH   1   8
ATOM      7  C   UNL     1      -2.045   3.290  -3.548  0.00  0.00    +0.277 C 
ATOM      8  O   UNL     1      -1.914   1.923  -3.942  0.00  0.00    -0.495 OA
ENDBRANCH   1   8
BRANCH   4   9
ATOM      9  C   UNL     1      -5.850  -1.630  -2.142  0.00  0.00    +0.140 C 
ATOM     10  N   UNL     1      -6.834  -1.194  -1.399  0.00  0.00    -0.180 NA
BRANCH  10  11
ATOM     11  N   UNL     1      -7.741  -2.013  -0.984  0.00  0.00    -0.263 N 
ATOM     12  C   UNL     1      -8.730  -1.574  -0.237  0.00  0.00    +0.143 C 
ATOM     13  N   UNL     1      -8.799  -0.239   0.102  0.00  0.00    -0.342 N 
ATOM     14  H   UNL     1      -8.057   0.352  -0.101  0.00  0.00    +0.144 HD
ATOM     15  H   UNL     1      -9.589   0.109   0.544  0.00  0.00    +0.144 HD
ATOM     16  H   UNL     1      -7.692  -2.951  -1.223  0.00  0.00    +0.190 HD
BRANCH  12  17
ATOM     17  C   UNL     1      -9.768  -2.511   0.238  0.00  0.00    +0.187 A 
ATOM     18  C   UNL     1     -10.664  -2.296   1.382  0.00  0.00    +0.191 A 
ATOM     19  N   UNL     1     -11.441  -3.337   1.495  0.00  0.00    -0.033 NA
ATOM     20  O   UNL     1     -11.102  -4.250   0.466  0.00  0.00    -0.240 OA
ATOM     21  N   UNL     1     -10.052  -3.675  -0.291  0.00  0.00    -0.044 NA
ATOM     22  N   UNL     1     -10.679  -1.177   2.203  0.00  0.00    -0.339 N 
ATOM     23  H   UNL     1      -9.988  -0.502   2.116  0.00  0.00    +0.144 HD
ATOM     24  H   UNL     1     -11.382  -1.070   2.864  0.00  0.00    +0.144 HD
ENDBRANCH  12  17
ENDBRANCH  10  11
ENDBRANCH   4   9
BRANCH   6  25
ATOM     25  C   UNL     1      -1.667  -0.780  -4.714  0.00  0.00    +0.268 C 
BRANCH  25  26
ATOM     26  O   UNL     1      -1.816  -2.184  -4.932  0.00  0.00    -0.484 OA
BRANCH  26  27
ATOM     27  C   UNL     1      -0.869  -2.794  -5.695  0.00  0.00    +0.158 A 
ATOM     28  C   UNL     1      -1.034  -2.879  -7.070  0.00  0.00    +0.085 A 
ATOM     29  C   UNL     1      -0.070  -3.499  -7.843  0.00  0.00    +0.043 A 
ATOM     30  C   UNL     1       1.057  -4.035  -7.247  0.00  0.00    +0.044 A 
ATOM     31  C   UNL     1       1.223  -3.952  -5.876  0.00  0.00    +0.043 A 
ATOM     32  C   UNL     1       0.265  -3.327  -5.099  0.00  0.00    +0.085 A 
ATOM     33 CL   UNL     1       0.478  -3.216  -3.380  0.00  0.00    -0.080 Cl
ATOM     34 CL   UNL     1       2.265  -4.814  -8.220  0.00  0.00    -0.083 Cl
ATOM     35 CL   UNL     1      -2.448  -2.207  -7.819  0.00  0.00    -0.080 Cl
ENDBRANCH  26  27
ENDBRANCH  25  26
ENDBRANCH   6  25
TORSDOF 7
