REMARK  Name = ZINC63431697
REMARK  9 active torsions:
REMARK  status: ('A' for Active; 'I' for Inactive)
REMARK    1  A    between atoms: C_1  and  N_2
REMARK    2  A    between atoms: N_2  and  C_3
REMARK    3  A    between atoms: N_2  and  S_4
REMARK    4  A    between atoms: S_4  and  C_7
REMARK    5  A    between atoms: C_11  and  C_13
REMARK    6  A    between atoms: C_15  and  C_25
REMARK    7  A    between atoms: N_17  and  C_19
REMARK    8  A    between atoms: C_26  and  C_27
REMARK    9  A    between atoms: C_26  and  C_29
REMARK                            x       y       z     vdW  Elec       q    Type
REMARK                         _______ _______ _______ _____ _____    ______ ____
ROOT
ATOM      1  C   UNL     1       4.526  -3.536  -1.595  0.00  0.00    +0.134 C 
ATOM      2  C   UNL     1       4.434  -4.736  -2.515  0.00  0.00    -0.008 C 
ATOM      3  C   UNL     1       5.698  -5.175  -2.690  0.00  0.00    +0.099 C 
ATOM      4  N   UNL     1       6.590  -4.410  -2.000  0.00  0.00    -0.242 N 
ATOM      5  N   UNL     1       5.969  -3.404  -1.313  0.00  0.00    -0.224 NA
ATOM      6  H   UNL     1       6.313  -2.501  -1.604  0.00  0.00    +0.146 HD
ENDROOT
BRANCH   1  11
ATOM      7  C   UNL     1       2.356  -0.580  -2.495  0.00  0.00    +0.106 A 
ATOM      8  C   UNL     1       3.058  -0.035  -3.554  0.00  0.00    +0.028 A 
ATOM      9  C   UNL     1       4.234  -0.623  -3.979  0.00  0.00    +0.002 A 
ATOM     10  C   UNL     1       4.709  -1.756  -3.345  0.00  0.00    +0.005 A 
ATOM     11  C   UNL     1       4.008  -2.301  -2.286  0.00  0.00    -0.023 A 
ATOM     12  C   UNL     1       2.834  -1.710  -1.858  0.00  0.00    +0.034 A 
BRANCH   7  13
ATOM     13  S   UNL     1       0.857   0.170  -1.952  0.00  0.00    +0.060 S 
ATOM     14  O   UNL     1       0.111  -0.844  -1.292  0.00  0.00    -0.153 OA
ATOM     15  O   UNL     1       0.341   0.894  -3.060  0.00  0.00    -0.153 OA
BRANCH  13  17
ATOM     16  C   UNL     1       1.552   2.670  -1.191  0.00  0.00    +0.131 C 
ATOM     17  N   UNL     1       1.258   1.289  -0.800  0.00  0.00    -0.183 NA
ATOM     18  C   UNL     1       1.318   0.898   0.611  0.00  0.00    +0.131 C 
ENDBRANCH  13  17
ENDBRANCH   7  13
ENDBRANCH   1  11
BRANCH   4  19
ATOM     19  C   UNL     1       7.970  -4.628  -1.992  0.00  0.00    +0.049 A 
ATOM     20  C   UNL     1       8.802  -3.798  -1.252  0.00  0.00    +0.025 A 
ATOM     21  C   UNL     1      10.166  -4.016  -1.247  0.00  0.00    +0.002 A 
ATOM     22  C   UNL     1      10.703  -5.059  -1.978  0.00  0.00    +0.000 A 
ATOM     23  C   UNL     1       9.878  -5.888  -2.716  0.00  0.00    +0.002 A 
ATOM     24  C   UNL     1       8.513  -5.679  -2.721  0.00  0.00    +0.025 A 
ENDBRANCH   4  19
BRANCH   2  25
ATOM     25  C   UNL     1       3.263  -5.284  -3.075  0.00  0.00    +0.025 C 
ATOM     26  C   UNL     1       3.157  -5.429  -4.423  0.00  0.00    +0.072 C 
BRANCH  26  27
ATOM     27  C   UNL     1       1.894  -5.990  -5.024  0.00  0.00    +0.216 C 
ATOM     28  N   UNL     1       2.205  -7.176  -5.832  0.00  0.00    -0.359 N 
ATOM     29  C   UNL     1       1.834  -6.923  -7.054  0.00  0.00    +0.060 A 
ATOM     30  C   UNL     1       1.885  -7.707  -8.296  0.00  0.00    +0.027 A 
ATOM     31  C   UNL     1       1.416  -7.172  -9.440  0.00  0.00    +0.002 A 
ATOM     32  C   UNL     1       0.871  -5.877  -9.504  0.00  0.00    +0.002 A 
ATOM     33  C   UNL     1       0.777  -5.074  -8.425  0.00  0.00    +0.027 A 
ATOM     34  C   UNL     1       1.257  -5.553  -7.121  0.00  0.00    +0.060 A 
ATOM     35  N   UNL     1       1.293  -5.011  -5.938  0.00  0.00    -0.359 N 
ATOM     36  H   UNL     1       2.611  -7.997  -5.514  0.00  0.00    +0.162 HD
ATOM     37  H   UNL     1       0.979  -4.124  -5.703  0.00  0.00    +0.162 HD
ENDBRANCH  26  27
BRANCH  26  38
ATOM     38  C   UNL     1       4.246  -5.048  -5.271  0.00  0.00    +0.099 C 
ATOM     39  N   UNL     1       5.109  -4.745  -5.944  0.00  0.00    -0.191 NA
ENDBRANCH  26  38
ENDBRANCH   2  25
TORSDOF 7
