REMARK  Name = ZINC01785310
REMARK  8 active torsions:
REMARK  status: ('A' for Active; 'I' for Inactive)
REMARK    1  A    between atoms: C_1  and  C_2
REMARK    2  A    between atoms: C_2  and  C_4
REMARK    3  A    between atoms: C_2  and  O_14
REMARK    4  A    between atoms: N_6  and  C_7
REMARK    5  A    between atoms: O_14  and  C_15
REMARK    6  A    between atoms: C_18  and  C_21
REMARK    7  A    between atoms: N_23  and  C_24
REMARK    8  A    between atoms: C_25  and  C_33
REMARK                            x       y       z     vdW  Elec       q    Type
REMARK                         _______ _______ _______ _____ _____    ______ ____
ROOT
ATOM      1  C   UNL     1       2.355   1.245  -0.332  0.00  0.00    +0.122 A 
ATOM      2  C   UNL     1       1.142   1.817  -0.696  0.00  0.00    +0.046 A 
ATOM      3  C   UNL     1      -0.009   1.060  -0.686  0.00  0.00    +0.016 A 
ATOM      4  C   UNL     1       0.045  -0.285  -0.310  0.00  0.00    +0.037 A 
ATOM      5  C   UNL     1       1.268  -0.856   0.055  0.00  0.00    +0.016 A 
ATOM      6  C   UNL     1       2.413  -0.092   0.043  0.00  0.00    +0.046 A 
ENDROOT
BRANCH   4   7
ATOM      7  C   UNL     1      -1.185  -1.099  -0.298  0.00  0.00    +0.249 C 
ATOM      8  O   UNL     1      -2.247  -0.601  -0.616  0.00  0.00    -0.270 OA
ATOM      9  N   UNL     1      -1.131  -2.396   0.066  0.00  0.00    -0.275 N 
ATOM     10  H   UNL     1      -0.283  -2.794   0.319  0.00  0.00    +0.156 HD
BRANCH   9  11
ATOM     11  C   UNL     1      -2.286  -3.161   0.077  0.00  0.00    +0.085 A 
ATOM     12  C   UNL     1      -2.430  -4.500   0.412  0.00  0.00    +0.068 A 
ATOM     13  C   UNL     1      -3.765  -5.069   0.345  0.00  0.00    -0.023 A 
ATOM     14  C   UNL     1      -4.734  -4.217  -0.054  0.00  0.00    -0.004 A 
ATOM     15  S   UNL     1      -3.900  -2.680  -0.331  0.00  0.00    -0.077 S 
ATOM     16  C   UNL     1      -6.191  -4.520  -0.221  0.00  0.00    +0.043 C 
ATOM     17  C   UNL     1      -6.370  -6.045  -0.232  0.00  0.00    +0.005 C 
ATOM     18  C   UNL     1      -5.591  -6.641   0.944  0.00  0.00    +0.005 C 
ATOM     19  C   UNL     1      -4.088  -6.519   0.688  0.00  0.00    +0.037 C 
BRANCH  12  20
ATOM     20  C   UNL     1      -1.278  -5.310   0.822  0.00  0.00    +0.244 C 
ATOM     21  O   UNL     1      -0.969  -5.377   1.997  0.00  0.00    -0.270 OA
ATOM     22  N   UNL     1      -0.563  -5.980  -0.103  0.00  0.00    -0.325 N 
ATOM     23  H   UNL     1      -0.809  -5.927  -1.039  0.00  0.00    +0.145 HD
ATOM     24  H   UNL     1       0.199  -6.516   0.168  0.00  0.00    +0.145 HD
ENDBRANCH  12  20
ENDBRANCH   9  11
ENDBRANCH   4   7
BRANCH   1  25
ATOM     25  O   UNL     1       3.487   1.995  -0.343  0.00  0.00    -0.480 OA
BRANCH  25  27
ATOM     26  C   UNL     1       4.927   1.221   1.437  0.00  0.00    +0.062 C 
ATOM     27  C   UNL     1       4.716   1.317  -0.075  0.00  0.00    +0.256 C 
BRANCH  27  28
ATOM     28  C   UNL     1       5.857   2.084  -0.694  0.00  0.00    +0.258 C 
ATOM     29  O   UNL     1       5.651   3.155  -1.225  0.00  0.00    -0.271 OA
ATOM     30  N   UNL     1       7.106   1.579  -0.657  0.00  0.00    -0.282 N 
ATOM     31  H   UNL     1       7.260   0.690  -0.301  0.00  0.00    +0.155 HD
BRANCH  30  32
ATOM     32  C   UNL     1       8.182   2.339  -1.133  0.00  0.00    +0.034 A 
ATOM     33  C   UNL     1       9.265   1.710  -1.733  0.00  0.00    +0.026 A 
ATOM     34  C   UNL     1      10.322   2.462  -2.208  0.00  0.00    +0.040 A 
ATOM     35  C   UNL     1      10.308   3.840  -2.074  0.00  0.00    +0.124 A 
ATOM     36  C   UNL     1       9.232   4.468  -1.470  0.00  0.00    +0.040 A 
ATOM     37  C   UNL     1       8.170   3.721  -1.000  0.00  0.00    +0.026 A 
ATOM     38  F   UNL     1      11.346   4.572  -2.534  0.00  0.00    -0.205 F 
ENDBRANCH  30  32
ENDBRANCH  27  28
ENDBRANCH  25  27
ENDBRANCH   1  25
TORSDOF 7
