REMARK  Name = ZINC37033801
REMARK  8 active torsions:
REMARK  status: ('A' for Active; 'I' for Inactive)
REMARK    1  A    between atoms: C_5  and  N_8
REMARK    2  A    between atoms: C_9  and  C_11
REMARK    3  A    between atoms: C_11  and  C_12
REMARK    4  A    between atoms: C_12  and  C_13
REMARK    5  A    between atoms: C_13  and  C_14
REMARK    6  A    between atoms: C_14  and  C_15
REMARK    7  A    between atoms: C_15  and  C_16
REMARK    8  A    between atoms: C_16  and  N_17
REMARK                            x       y       z     vdW  Elec       q    Type
REMARK                         _______ _______ _______ _____ _____    ______ ____
ROOT
ATOM      1  N   UNL     1       1.158  -2.095  -0.021  0.00  0.00    -0.283 N 
ATOM      2  C   UNL     1       0.057  -2.759   0.384  0.00  0.00    +0.217 C 
ATOM      3  O   UNL     1      -0.950  -2.147   0.668  0.00  0.00    -0.275 OA
ATOM      4  H   UNL     1       1.940  -2.587  -0.316  0.00  0.00    +0.155 HD
ENDROOT
BRANCH   1   9
ATOM      5  C   UNL     1       0.800   1.383  -1.161  0.00  0.00    +0.044 A 
ATOM      6  C   UNL     1       1.174   2.114  -0.083  0.00  0.00    +0.071 A 
ATOM      7  C   UNL     1       1.577   1.466   1.118  0.00  0.00    +0.120 A 
ATOM      8  C   UNL     1       1.576   0.009   1.154  0.00  0.00    +0.124 A 
ATOM      9  C   UNL     1       1.172  -0.697  -0.018  0.00  0.00    +0.080 A 
ATOM     10  C   UNL     1       0.797  -0.010  -1.132  0.00  0.00    +0.066 A 
ATOM     11 CL   UNL     1       0.307  -0.888  -2.547  0.00  0.00    -0.082 Cl
ATOM     12  N   UNL     1       1.970  -0.488   2.326  0.00  0.00    -0.189 NA
ATOM     13  S   UNL     1       2.296   0.788   3.251  0.00  0.00    +0.117 S 
ATOM     14  N   UNL     1       1.972   2.018   2.266  0.00  0.00    -0.189 NA
ATOM     15 CL   UNL     1       1.162   3.848  -0.167  0.00  0.00    -0.081 Cl
ENDBRANCH   1   9
BRANCH   2  16
ATOM     16  C   UNL     1       0.078  -4.263   0.483  0.00  0.00    +0.096 C 
BRANCH  16  17
ATOM     17  C   UNL     1      -1.287  -4.761   0.962  0.00  0.00    +0.009 C 
BRANCH  17  18
ATOM     18  C   UNL     1      -1.266  -6.288   1.063  0.00  0.00    +0.000 C 
BRANCH  18  19
ATOM     19  C   UNL     1      -2.630  -6.786   1.543  0.00  0.00    -0.002 C 
BRANCH  19  20
ATOM     20  C   UNL     1      -2.609  -8.313   1.644  0.00  0.00    -0.020 C 
BRANCH  20  21
ATOM     21  C   UNL     1      -3.974  -8.811   2.123  0.00  0.00    -0.086 C 
BRANCH  21  22
ATOM     22  N   UNL     1      -3.954 -10.277   2.220  0.00  0.00    +0.378 N 
ATOM     23  H   UNL     1      -3.751 -10.671   1.314  0.00  0.00    -0.090 HD
ATOM     24  H   UNL     1      -3.242 -10.561   2.877  0.00  0.00    -0.090 HD
ATOM     25  H   UNL     1      -4.854 -10.606   2.536  0.00  0.00    -0.090 HD
ENDBRANCH  21  22
ENDBRANCH  20  21
ENDBRANCH  19  20
ENDBRANCH  18  19
ENDBRANCH  17  18
ENDBRANCH  16  17
ENDBRANCH   2  16
TORSDOF 8
