REMARK  Name = ZINC05557280
REMARK  3 active torsions:
REMARK  status: ('A' for Active; 'I' for Inactive)
REMARK    1  A    between atoms: C_4  and  C_7
REMARK    2  A    between atoms: C_9  and  C_22
REMARK    3  A    between atoms: N_18  and  N_21
REMARK                            x       y       z     vdW  Elec       q    Type
REMARK                         _______ _______ _______ _____ _____    ______ ____
ROOT
ATOM      1  C   UNL     1       2.750   6.690   0.013  0.00  0.00    -0.004 A 
ATOM      2  C   UNL     1       2.287   5.385   0.016  0.00  0.00    +0.038 A 
ATOM      3  C   UNL     1       0.913   5.130   0.022  0.00  0.00    +0.079 A 
ATOM      4  N   UNL     1       0.044   6.137   0.036  0.00  0.00    -0.239 NA
ATOM      5  C   UNL     1       0.443   7.390   0.039  0.00  0.00    +0.112 A 
ATOM      6  C   UNL     1       1.802   7.758   0.029  0.00  0.00    +0.041 A 
ATOM      7  C   UNL     1       2.080   9.202   0.035  0.00  0.00    +0.093 A 
ATOM      8  C   UNL     1       0.969  10.036   0.051  0.00  0.00    +0.082 A 
ATOM      9  S   UNL     1      -0.423   8.942   0.058  0.00  0.00    -0.063 S 
ATOM     10  C   UNL     1       1.124  11.481   0.059  0.00  0.00    +0.139 A 
ATOM     11  N   UNL     1       0.083  12.282   0.074  0.00  0.00    -0.383 N 
ATOM     12  N   UNL     1       2.418  11.978   0.050  0.00  0.00    -0.241 N 
ATOM     13  C   UNL     1       3.456  11.098   0.035  0.00  0.00    +0.220 A 
ATOM     14  N   UNL     1       3.309   9.815   0.028  0.00  0.00    -0.234 NA
ATOM     15  H   UNL     1       0.227  13.372   0.080  0.00  0.00    +0.157 HD
ATOM     16  H   UNL     1      -0.934  11.862   0.081  0.00  0.00    +0.157 HD
ENDROOT
BRANCH   1  20
ATOM     17  C   UNL     1       6.922   7.504  -0.022  0.00  0.00    +0.000 A 
ATOM     18  C   UNL     1       6.402   6.610   0.897  0.00  0.00    +0.001 A 
ATOM     19  C   UNL     1       5.049   6.342   0.913  0.00  0.00    +0.008 A 
ATOM     20  C   UNL     1       4.204   6.974   0.001  0.00  0.00    -0.017 A 
ATOM     21  C   UNL     1       4.735   7.871  -0.926  0.00  0.00    +0.008 A 
ATOM     22  C   UNL     1       6.089   8.135  -0.929  0.00  0.00    +0.001 A 
ENDBRANCH   1  20
BRANCH   3  23
ATOM     23  C   UNL     1       0.425   3.737   0.018  0.00  0.00    +0.038 A 
ATOM     24  C   UNL     1      -0.866   3.275   0.028  0.00  0.00    +0.017 A 
ATOM     25  C   UNL     1      -1.081   1.916   0.017  0.00  0.00    +0.008 A 
ATOM     26  C   UNL     1      -0.013   1.076   0.008  0.00  0.00    +0.046 A 
ATOM     27  S   UNL     1       1.360   2.217   0.001  0.00  0.00    -0.095 S 
ENDBRANCH   3  23
BRANCH  12  28
ATOM     28  N   UNL     1       2.646  13.325   0.056  0.00  0.00    -0.296 N 
ATOM     29  H   UNL     1       3.678  13.708   0.049  0.00  0.00    +0.163 HD
ATOM     30  H   UNL     1       1.799  14.027   0.068  0.00  0.00    +0.163 HD
ENDBRANCH  12  28
TORSDOF 3
