REMARK  Name = ZINC32542206
REMARK  11 active torsions:
REMARK  status: ('A' for Active; 'I' for Inactive)
REMARK    1  A    between atoms: C_1  and  C_2
REMARK    2  A    between atoms: C_2  and  C_4
REMARK    3  A    between atoms: C_2  and  N_14
REMARK    4  A    between atoms: C_7  and  S_10
REMARK    5  A    between atoms: S_10  and  N_13
REMARK    6  A    between atoms: N_14  and  C_15
REMARK    7  A    between atoms: N_14  and  C_16
REMARK    8  A    between atoms: C_16  and  C_17
REMARK    9  A    between atoms: N_19  and  C_20
REMARK   10  A    between atoms: C_25  and  C_26
REMARK   11  A    between atoms: C_26  and  C_28
REMARK                            x       y       z     vdW  Elec       q    Type
REMARK                         _______ _______ _______ _____ _____    ______ ____
ROOT
ATOM      1  C   UNL     1      -3.852  -2.275   0.078  0.00  0.00    +0.019 C 
ENDROOT
BRANCH   1   2
ATOM      2  C   UNL     1      -3.789  -0.769   0.098  0.00  0.00    +0.201 C 
ATOM      3  O   UNL     1      -4.813  -0.120   0.080  0.00  0.00    -0.278 OA
ATOM      4  N   UNL     1      -2.596  -0.144   0.135  0.00  0.00    -0.286 N 
ATOM      5  H   UNL     1      -1.672  -0.730   0.249  0.00  0.00    +0.155 HD
BRANCH   4   6
ATOM      6  C   UNL     1      -2.532   1.243   0.030  0.00  0.00    +0.044 A 
ATOM      7  C   UNL     1      -3.550   1.942  -0.605  0.00  0.00    +0.024 A 
ATOM      8  C   UNL     1      -3.486   3.317  -0.708  0.00  0.00    +0.002 A 
ATOM      9  C   UNL     1      -2.408   4.010  -0.180  0.00  0.00    +0.001 A 
ATOM     10  C   UNL     1      -1.391   3.335   0.458  0.00  0.00    +0.013 A 
ATOM     11  C   UNL     1      -1.439   1.942   0.566  0.00  0.00    +0.043 A 
BRANCH  11  12
ATOM     12  C   UNL     1      -0.352   1.212   1.243  0.00  0.00    +0.195 C 
ATOM     13  O   UNL     1       0.741   1.123   0.717  0.00  0.00    -0.287 OA
BRANCH  12  14
ATOM     14  C   UNL     1      -0.588   0.593   2.564  0.00  0.00    +0.022 A 
ATOM     15  C   UNL     1      -1.805   0.787   3.222  0.00  0.00    +0.012 A 
ATOM     16  C   UNL     1      -2.021   0.203   4.453  0.00  0.00    +0.001 A 
ATOM     17  C   UNL     1      -1.031  -0.566   5.040  0.00  0.00    +0.000 A 
ATOM     18  C   UNL     1       0.179  -0.758   4.396  0.00  0.00    +0.001 A 
ATOM     19  C   UNL     1       0.406  -0.184   3.163  0.00  0.00    +0.012 A 
ENDBRANCH  12  14
ENDBRANCH  11  12
ENDBRANCH   4   6
ENDBRANCH   1   2
BRANCH   1  20
ATOM     20  N   UNL     1      -5.255  -2.706   0.037  0.00  0.00    +0.388 N 
ATOM     21  C   UNL     1      -5.891  -2.314  -1.228  0.00  0.00    -0.095 C 
ATOM     22  H   UNL     1      -5.788  -2.199   0.855  0.00  0.00    -0.081 HD
BRANCH  20  24
ATOM     23  C   UNL     1      -4.783  -4.511   1.624  0.00  0.00    -0.008 C 
ATOM     24  C   UNL     1      -5.367  -4.155   0.255  0.00  0.00    -0.041 C 
BRANCH  24  25
ATOM     25  C   UNL     1      -6.818  -4.559   0.207  0.00  0.00    -0.061 A 
ATOM     26  C   UNL     1      -7.779  -3.757   0.793  0.00  0.00    +0.004 A 
ATOM     27  C   UNL     1      -9.110  -4.126   0.745  0.00  0.00    +0.029 A 
ATOM     28  C   UNL     1      -9.479  -5.303   0.119  0.00  0.00    +0.105 A 
ATOM     29  C   UNL     1      -8.518  -6.107  -0.463  0.00  0.00    +0.029 A 
ATOM     30  C   UNL     1      -7.187  -5.736  -0.419  0.00  0.00    +0.004 A 
BRANCH  28  31
ATOM     31  S   UNL     1     -11.175  -5.776   0.064  0.00  0.00    +0.056 S 
ATOM     32  O   UNL     1     -11.935  -4.583   0.203  0.00  0.00    -0.153 OA
ATOM     33  O   UNL     1     -11.318  -6.644  -1.052  0.00  0.00    -0.153 OA
BRANCH  31  34
ATOM     34  N   UNL     1     -11.473  -6.688   1.414  0.00  0.00    -0.204 NA
ATOM     35  H   UNL     1     -12.527  -7.005   1.417  0.00  0.00    +0.144 HD
ATOM     36  H   UNL     1     -11.268  -6.089   2.313  0.00  0.00    +0.144 HD
ENDBRANCH  31  34
ENDBRANCH  28  31
ENDBRANCH  24  25
ENDBRANCH  20  24
ENDBRANCH   1  20
TORSDOF 9
