REMARK  Name = ZINC00542039
REMARK  3 active torsions:
REMARK  status: ('A' for Active; 'I' for Inactive)
REMARK    1  A    between atoms: C_3  and  N_9
REMARK    2  A    between atoms: C_10  and  C_12
REMARK    3  A    between atoms: C_12  and  C_13
REMARK                            x       y       z     vdW  Elec       q    Type
REMARK                         _______ _______ _______ _____ _____    ______ ____
ROOT
ATOM      1  N   UNL     1      -2.459   3.822   0.047  0.00  0.00    -0.284 N 
ATOM      2  C   UNL     1      -3.616   3.137  -0.048  0.00  0.00    +0.216 C 
ATOM      3  O   UNL     1      -3.605   1.925  -0.055  0.00  0.00    -0.276 OA
ATOM      4  H   UNL     1      -2.472   4.789   0.118  0.00  0.00    +0.155 HD
ENDROOT
BRANCH   1   7
ATOM      5  C   UNL     1       0.068   1.215   0.638  0.00  0.00    +0.003 A 
ATOM      6  C   UNL     1      -1.140   1.887   0.639  0.00  0.00    +0.025 A 
ATOM      7  C   UNL     1      -1.239   3.136   0.042  0.00  0.00    +0.053 A 
ATOM      8  C   UNL     1      -0.124   3.703  -0.566  0.00  0.00    +0.080 A 
ATOM      9  C   UNL     1       1.080   3.023  -0.568  0.00  0.00    +0.061 A 
ATOM     10  C   UNL     1       1.175   1.780   0.034  0.00  0.00    +0.021 A 
ATOM     11 CL   UNL     1       2.473   3.729  -1.326  0.00  0.00    -0.082 Cl
ATOM     12 CL   UNL     1      -0.244   5.262  -1.319  0.00  0.00    -0.080 Cl
ENDBRANCH   1   7
BRANCH   2  13
ATOM     13  C   UNL     1      -4.925   3.879  -0.144  0.00  0.00    +0.089 C 
BRANCH  13  14
ATOM     14  C   UNL     1      -6.075   2.875  -0.240  0.00  0.00    +0.025 C 
ATOM     15  C   UNL     1      -7.384   3.611  -0.208  0.00  0.00    +0.199 C 
ATOM     16  O   UNL     1      -7.519   4.522   0.582  0.00  0.00    -0.278 OA
ATOM     17  N   UNL     1      -8.408   3.305  -1.010  0.00  0.00    -0.318 N 
ATOM     18  C   UNL     1      -8.336   2.253  -2.020  0.00  0.00    +0.085 C 
ATOM     19  C   UNL     1      -7.169   1.312  -1.715  0.00  0.00    -0.063 C 
ATOM     20  H   UNL     1      -9.234   3.804  -0.918  0.00  0.00    +0.149 HD
ATOM     21  N   UNL     1      -5.954   2.118  -1.497  0.00  0.00    +0.388 N 
ATOM     22  H   UNL     1      -5.138   1.496  -1.443  0.00  0.00    -0.085 HD
ATOM     23  H   UNL     1      -5.834   2.773  -2.279  0.00  0.00    -0.085 HD
ENDBRANCH  13  14
ENDBRANCH   2  13
TORSDOF 3
