REMARK  Name = ZINC32802155
REMARK  11 active torsions:
REMARK  status: ('A' for Active; 'I' for Inactive)
REMARK    1  A    between atoms: C_1  and  C_2
REMARK    2  A    between atoms: C_2  and  O_3
REMARK    3  A    between atoms: O_3  and  C_4
REMARK    4  A    between atoms: C_11  and  C_13
REMARK    5  A    between atoms: C_13  and  C_15
REMARK    6  A    between atoms: C_13  and  N_16
REMARK    7  A    between atoms: N_22  and  C_25
REMARK    8  A    between atoms: C_25  and  C_26
REMARK    9  A    between atoms: N_28  and  C_29
REMARK   10  A    between atoms: C_33  and  C_36
REMARK   11  A    between atoms: C_34  and  C_35
REMARK                            x       y       z     vdW  Elec       q    Type
REMARK                         _______ _______ _______ _____ _____    ______ ____
ROOT
ATOM      1  N   UNL     1      -6.129   0.465   1.249  0.00  0.00    -0.290 N 
ATOM      2  C   UNL     1      -5.307  -0.575   1.492  0.00  0.00    +0.303 C 
ATOM      3  O   UNL     1      -4.249  -0.665   0.899  0.00  0.00    -0.253 OA
ATOM      4  N   UNL     1      -5.657  -1.515   2.392  0.00  0.00    -0.289 N 
ATOM      5  C   UNL     1      -4.731  -2.602   2.747  0.00  0.00    +0.091 C 
ATOM      6  C   UNL     1      -4.617  -2.656   4.279  0.00  0.00    -0.059 C 
ATOM      7  N   UNL     1      -5.961  -2.771   4.861  0.00  0.00    +0.387 N 
ATOM      8  C   UNL     1      -6.776  -1.587   4.556  0.00  0.00    -0.059 C 
ATOM      9  C   UNL     1      -6.976  -1.485   3.041  0.00  0.00    +0.091 C 
ATOM     10  H   UNL     1      -7.120   0.505   1.724  0.00  0.00    +0.151 HD
ATOM     11  H   UNL     1      -6.452  -3.642   4.402  0.00  0.00    -0.081 HD
ENDROOT
BRANCH   1  12
ATOM     12  C   UNL     1      -5.702   1.542   0.352  0.00  0.00    +0.137 C 
ATOM     13  C   UNL     1      -4.880   2.565   1.139  0.00  0.00    +0.036 C 
BRANCH  12  21
ATOM     14  C   UNL     1     -10.238   3.578  -0.154  0.00  0.00    +0.163 A 
ATOM     15  C   UNL     1     -10.928   4.167  -1.198  0.00  0.00    +0.049 A 
ATOM     16  C   UNL     1     -10.346   4.287  -2.451  0.00  0.00    +0.004 A 
ATOM     17  C   UNL     1      -9.069   3.820  -2.672  0.00  0.00    +0.012 A 
ATOM     18  C   UNL     1      -8.361   3.223  -1.629  0.00  0.00    +0.024 A 
ATOM     19  C   UNL     1      -8.946   3.099  -0.359  0.00  0.00    +0.177 A 
ATOM     20  O   UNL     1      -8.045   2.493   0.440  0.00  0.00    -0.454 OA
ATOM     21  C   UNL     1      -6.915   2.217  -0.234  0.00  0.00    +0.126 A 
ATOM     22  C   UNL     1      -7.027   2.624  -1.506  0.00  0.00    +0.055 A 
BRANCH  14  23
ATOM     23  O   UNL     1     -10.820   3.466   1.070  0.00  0.00    -0.489 OA
BRANCH  23  25
ATOM     24  C   UNL     1     -12.631   3.765   2.642  0.00  0.00    +0.048 C 
ATOM     25  C   UNL     1     -12.147   3.979   1.207  0.00  0.00    +0.226 C 
ENDBRANCH  23  25
ENDBRANCH  14  23
ENDBRANCH  12  21
ENDBRANCH   1  12
BRANCH   7  26
ATOM     26  C   UNL     1      -5.890  -3.001   6.310  0.00  0.00    +0.019 C 
BRANCH  26  27
ATOM     27  C   UNL     1      -5.196  -1.838   6.970  0.00  0.00    +0.201 C 
ATOM     28  O   UNL     1      -4.784  -0.917   6.298  0.00  0.00    -0.278 OA
ATOM     29  N   UNL     1      -5.032  -1.822   8.308  0.00  0.00    -0.287 N 
ATOM     30  H   UNL     1      -5.331  -2.693   8.909  0.00  0.00    +0.155 HD
BRANCH  29  31
ATOM     31  C   UNL     1      -4.483  -0.697   8.932  0.00  0.00    +0.036 A 
ATOM     32  C   UNL     1      -3.583   0.109   8.247  0.00  0.00    +0.023 A 
ATOM     33  C   UNL     1      -3.042   1.219   8.866  0.00  0.00    +0.002 A 
ATOM     34  C   UNL     1      -3.397   1.529  10.167  0.00  0.00    +0.004 A 
ATOM     35  C   UNL     1      -4.293   0.729  10.851  0.00  0.00    -0.046 A 
ATOM     36  C   UNL     1      -4.841  -0.380  10.236  0.00  0.00    -0.026 A 
ATOM     37  C   UNL     1      -5.823  -1.248  10.981  0.00  0.00    +0.046 C 
ATOM     38  C   UNL     1      -4.677   1.070  12.268  0.00  0.00    +0.044 C 
ENDBRANCH  29  31
ENDBRANCH  26  27
ENDBRANCH   7  26
TORSDOF 7
