REMARK  Name = ZINC39656195
REMARK  8 active torsions:
REMARK  status: ('A' for Active; 'I' for Inactive)
REMARK    1  A    between atoms: C_1  and  C_2
REMARK    2  A    between atoms: C_8  and  C_11
REMARK    3  A    between atoms: C_11  and  C_12
REMARK    4  A    between atoms: C_12  and  N_13
REMARK    5  A    between atoms: C_14  and  C_16
REMARK    6  A    between atoms: C_27  and  C_29
REMARK    7  A    between atoms: C_30  and  C_41
REMARK    8  A    between atoms: C_33  and  C_35
REMARK                            x       y       z     vdW  Elec       q    Type
REMARK                         _______ _______ _______ _____ _____    ______ ____
ROOT
ATOM      1  C   UNL     1       4.177   0.410  -4.403  0.00  0.00    +0.100 C 
ATOM      2  C   UNL     1       5.697   0.262  -4.167  0.00  0.00    +0.121 C 
ATOM      3  N   UNL     1       5.975  -1.173  -4.407  0.00  0.00    -0.296 N 
ATOM      4  C   UNL     1       5.122  -1.525  -5.567  0.00  0.00    +0.115 C 
ATOM      5  C   UNL     1       3.804  -0.762  -5.326  0.00  0.00    -0.004 C 
ATOM      6  C   UNL     1       3.247  -0.239  -6.646  0.00  0.00    -0.010 C 
ATOM      7  C   UNL     1       2.830  -1.423  -7.523  0.00  0.00    -0.082 C 
ATOM      8  N   UNL     1       1.816  -2.220  -6.823  0.00  0.00    +0.379 N 
ATOM      9  C   UNL     1       2.389  -2.796  -5.600  0.00  0.00    -0.082 C 
ATOM     10  C   UNL     1       2.788  -1.671  -4.641  0.00  0.00    -0.010 C 
ATOM     11  C   UNL     1       6.813  -1.978  -3.724  0.00  0.00    +0.248 C 
ATOM     12  O   UNL     1       7.391  -1.558  -2.737  0.00  0.00    -0.270 OA
ATOM     13  H   UNL     1       1.034  -1.630  -6.580  0.00  0.00    -0.086 HD
ATOM     14  H   UNL     1       1.498  -2.964  -7.426  0.00  0.00    -0.086 HD
ENDROOT
BRANCH  11  15
ATOM     15  C   UNL     1       7.023  -3.312  -4.154  0.00  0.00    +0.078 C 
ATOM     16  C   UNL     1       7.148  -4.392  -3.364  0.00  0.00    +0.132 C 
ATOM     17  O   UNL     1       7.348  -5.516  -4.078  0.00  0.00    -0.410 OA
ATOM     18  N   UNL     1       6.945  -5.250  -5.470  0.00  0.00    -0.144 NA
ATOM     19  C   UNL     1       7.140  -3.784  -5.591  0.00  0.00    +0.161 C 
ATOM     20  C   UNL     1       7.074  -4.350  -1.859  0.00  0.00    +0.089 C 
ATOM     21  H   UNL     1       5.978  -5.497  -5.620  0.00  0.00    +0.168 HD
BRANCH  19  22
ATOM     22  C   UNL     1       8.507  -3.474  -6.146  0.00  0.00    -0.023 A 
ATOM     23  C   UNL     1       9.636  -3.971  -5.521  0.00  0.00    +0.005 A 
ATOM     24  C   UNL     1      10.889  -3.686  -6.030  0.00  0.00    +0.000 A 
ATOM     25  C   UNL     1      11.014  -2.906  -7.164  0.00  0.00    +0.000 A 
ATOM     26  C   UNL     1       9.885  -2.410  -7.789  0.00  0.00    +0.000 A 
ATOM     27  C   UNL     1       8.632  -2.698  -7.283  0.00  0.00    +0.005 A 
ENDBRANCH  19  22
ENDBRANCH  11  15
BRANCH   1  29
ATOM     28  N   UNL     1       2.216   0.880  -2.970  0.00  0.00    -0.315 N 
ATOM     29  C   UNL     1       3.430   0.309  -3.098  0.00  0.00    +0.218 C 
ATOM     30  O   UNL     1       3.922  -0.287  -2.163  0.00  0.00    -0.275 OA
ATOM     31  H   UNL     1       1.851   1.410  -3.695  0.00  0.00    +0.149 HD
BRANCH  28  32
ATOM     32  C   UNL     1       1.449   0.699  -1.735  0.00  0.00    +0.109 C 
BRANCH  32  33
ATOM     33  C   UNL     1       0.069   1.340  -1.894  0.00  0.00    +0.056 C 
BRANCH  33  41
ATOM     34  C   UNL     1       1.017   5.125   2.299  0.00  0.00    +0.044 C 
ATOM     35  C   UNL     1       0.163   3.915   2.022  0.00  0.00    -0.050 A 
ATOM     36  C   UNL     1      -0.718   3.457   2.991  0.00  0.00    +0.005 A 
ATOM     37  C   UNL     1      -1.508   2.353   2.758  0.00  0.00    +0.026 A 
ATOM     38  C   UNL     1      -1.424   1.688   1.539  0.00  0.00    +0.047 A 
ATOM     39  N   UNL     1      -2.060   0.586   1.014  0.00  0.00    -0.360 N 
ATOM     40  C   UNL     1      -1.603   0.344  -0.253  0.00  0.00    +0.087 A 
ATOM     41  C   UNL     1      -0.677   1.257  -0.587  0.00  0.00    -0.021 A 
ATOM     42  C   UNL     1      -0.530   2.157   0.559  0.00  0.00    +0.003 A 
ATOM     43  C   UNL     1       0.257   3.281   0.815  0.00  0.00    +0.013 A 
ATOM     44  H   UNL     1      -2.732   0.059   1.474  0.00  0.00    +0.165 HD
ENDBRANCH  33  41
ENDBRANCH  32  33
ENDBRANCH  28  32
ENDBRANCH   1  29
TORSDOF 6
