REMARK  Name = ZINC06232580
REMARK  7 active torsions:
REMARK  status: ('A' for Active; 'I' for Inactive)
REMARK    1  A    between atoms: C_1  and  C_2
REMARK    2  A    between atoms: C_2  and  C_36
REMARK    3  A    between atoms: C_6  and  N_28
REMARK    4  A    between atoms: C_9  and  N_20
REMARK    5  A    between atoms: C_10  and  C_12
REMARK    6  A    between atoms: C_12  and  C_14
REMARK    7  A    between atoms: C_21  and  C_23
REMARK                            x       y       z     vdW  Elec       q    Type
REMARK                         _______ _______ _______ _____ _____    ______ ____
ROOT
ATOM      1  C   UNL     1      -0.579   3.251  -4.920  0.00  0.00    +0.041 C 
ATOM      2  C   UNL     1      -1.073   4.609  -4.417  0.00  0.00    +0.068 C 
ATOM      3  C   UNL     1      -1.193   4.580  -2.892  0.00  0.00    +0.070 C 
ATOM      4  C   UNL     1      -2.358   3.716  -2.490  0.00  0.00    -0.025 A 
ATOM      5  C   UNL     1      -3.328   3.361  -3.370  0.00  0.00    +0.020 A 
ATOM      6  C   UNL     1      -4.399   2.562  -2.947  0.00  0.00    +0.105 A 
ATOM      7  C   UNL     1      -3.551   2.465  -0.812  0.00  0.00    +0.089 A 
ATOM      8  C   UNL     1      -2.435   3.266  -1.144  0.00  0.00    +0.031 A 
ATOM      9  C   UNL     1      -1.514   3.527  -0.051  0.00  0.00    +0.061 A 
ATOM     10  C   UNL     1      -1.794   2.977   1.186  0.00  0.00    +0.083 A 
ATOM     11  S   UNL     1      -3.321   2.099   0.910  0.00  0.00    -0.065 S 
ATOM     12  C   UNL     1      -3.285   3.806  -4.810  0.00  0.00    +0.199 C 
ATOM     13  O   UNL     1      -2.366   4.886  -4.967  0.00  0.00    -0.369 OA
ATOM     14  C   UNL     1      -0.089   5.703  -4.836  0.00  0.00    +0.041 C 
ATOM     15  N   UNL     1      -4.532   2.102  -1.672  0.00  0.00    -0.337 N 
ATOM     16  H   UNL     1      -5.326   1.519  -1.381  0.00  0.00    +0.168 HD
ENDROOT
BRANCH   6  17
ATOM     17  N   UNL     1      -5.388   2.204  -3.851  0.00  0.00    -0.312 N 
ATOM     18  C   UNL     1      -6.702   2.697  -3.416  0.00  0.00    +0.134 C 
ATOM     19  C   UNL     1      -7.753   2.333  -4.468  0.00  0.00    +0.178 C 
ATOM     20  O   UNL     1      -7.746   0.917  -4.670  0.00  0.00    -0.377 OA
ATOM     21  C   UNL     1      -6.481   0.402  -5.095  0.00  0.00    +0.178 C 
ATOM     22  C   UNL     1      -5.418   0.747  -4.049  0.00  0.00    +0.134 C 
ENDBRANCH   6  17
BRANCH   9  23
ATOM     23  N   UNL     1      -0.381   4.305  -0.244  0.00  0.00    -0.277 N 
ATOM     24  C   UNL     1       0.825   3.717  -0.380  0.00  0.00    +0.284 C 
ATOM     25  O   UNL     1       0.908   2.504  -0.434  0.00  0.00    -0.266 OA
ATOM     26  H   UNL     1      -0.456   5.271  -0.280  0.00  0.00    +0.155 HD
BRANCH  24  27
ATOM     27  C   UNL     1       2.035   4.540  -0.464  0.00  0.00    +0.189 A 
ATOM     28  C   UNL     1       3.313   4.076  -0.602  0.00  0.00    +0.054 A 
ATOM     29  C   UNL     1       4.149   5.202  -0.639  0.00  0.00    +0.042 A 
ATOM     30  C   UNL     1       3.356   6.290  -0.523  0.00  0.00    +0.196 A 
ATOM     31  O   UNL     1       2.083   5.887  -0.423  0.00  0.00    -0.458 OA
ENDBRANCH  24  27
ENDBRANCH   9  23
BRANCH  10  32
ATOM     32  C   UNL     1      -1.051   3.088   2.385  0.00  0.00    +0.202 C 
ATOM     33  O   UNL     1      -0.189   2.268   2.645  0.00  0.00    -0.286 OA
BRANCH  32  34
ATOM     34  C   UNL     1      -1.325   4.197   3.325  0.00  0.00    +0.023 A 
ATOM     35  C   UNL     1      -2.221   5.208   2.973  0.00  0.00    +0.012 A 
ATOM     36  C   UNL     1      -2.476   6.237   3.856  0.00  0.00    +0.001 A 
ATOM     37  C   UNL     1      -1.837   6.274   5.083  0.00  0.00    +0.000 A 
ATOM     38  C   UNL     1      -0.944   5.278   5.435  0.00  0.00    +0.001 A 
ATOM     39  C   UNL     1      -0.684   4.240   4.564  0.00  0.00    +0.012 A 
ENDBRANCH  32  34
ENDBRANCH  10  32
TORSDOF 5
