REMARK  Name = ZINC09527723
REMARK  10 active torsions:
REMARK  status: ('A' for Active; 'I' for Inactive)
REMARK    1  A    between atoms: C_1  and  C_2
REMARK    2  A    between atoms: C_6  and  N_9
REMARK    3  A    between atoms: C_7  and  C_8
REMARK    4  A    between atoms: C_10  and  C_12
REMARK    5  A    between atoms: C_12  and  N_69
REMARK    6  A    between atoms: C_20  and  C_22
REMARK    7  A    between atoms: C_25  and  O_30
REMARK    8  A    between atoms: C_26  and  O_28
REMARK    9  A    between atoms: O_28  and  C_29
REMARK   10  A    between atoms: O_30  and  C_31
REMARK                            x       y       z     vdW  Elec       q    Type
REMARK                         _______ _______ _______ _____ _____    ______ ____
ROOT
ATOM      1  C   UNL     1       4.788   1.222  -0.703  0.00  0.00    -0.072 C 
ATOM      2  C   UNL     1       5.350   1.647   0.656  0.00  0.00    +0.018 C 
ATOM      3  C   UNL     1       4.328   1.280   1.729  0.00  0.00    -0.037 A 
ATOM      4  C   UNL     1       4.652   1.187   3.093  0.00  0.00    -0.034 A 
ATOM      5  C   UNL     1       3.655   0.846   3.952  0.00  0.00    -0.007 A 
ATOM      6  S   UNL     1       2.240   0.646   2.901  0.00  0.00    -0.099 S 
ATOM      7  C   UNL     1       3.042   1.026   1.367  0.00  0.00    -0.016 A 
ATOM      8  C   UNL     1       2.472   1.067  -0.013  0.00  0.00    +0.001 C 
ATOM      9  C   UNL     1       3.744   0.681   5.435  0.00  0.00    +0.043 C 
ATOM     10  C   UNL     1       5.229   0.599   5.822  0.00  0.00    +0.005 C 
ATOM     11  C   UNL     1       5.984   1.730   5.119  0.00  0.00    +0.005 C 
ATOM     12  C   UNL     1       6.061   1.453   3.617  0.00  0.00    +0.036 C 
ATOM     13  N   UNL     1       3.436   1.789  -0.878  0.00  0.00    +0.393 N 
ATOM     14  H   UNL     1       3.452   2.780  -0.608  0.00  0.00    -0.080 HD
ENDROOT
BRANCH   8  15
ATOM     15  C   UNL     1       1.163   1.814  -0.000  0.00  0.00    -0.052 A 
ATOM     16  C   UNL     1       1.158   3.197   0.004  0.00  0.00    +0.006 A 
ATOM     17  C   UNL     1      -0.040   3.887   0.014  0.00  0.00    +0.049 A 
ATOM     18  C   UNL     1      -1.239   3.193   0.022  0.00  0.00    +0.161 A 
ATOM     19  C   UNL     1      -1.234   1.801   0.014  0.00  0.00    +0.162 A 
ATOM     20  C   UNL     1      -0.030   1.116   0.008  0.00  0.00    +0.051 A 
BRANCH  19  21
ATOM     21  O   UNL     1      -2.409   1.116   0.017  0.00  0.00    -0.491 OA
ATOM     22  C   UNL     1      -2.327  -0.311   0.013  0.00  0.00    +0.277 C 
ENDBRANCH  19  21
BRANCH  18  23
ATOM     23  O   UNL     1      -2.418   3.870   0.033  0.00  0.00    -0.491 OA
ATOM     24  C   UNL     1      -2.347   5.297   0.035  0.00  0.00    +0.277 C 
ENDBRANCH  18  23
ENDBRANCH   8  15
BRANCH  13  25
ATOM     25  C   UNL     1       3.022   1.684  -2.294  0.00  0.00    +0.020 C 
BRANCH  25  27
ATOM     26  N   UNL     1       3.683   2.695  -4.453  0.00  0.00    -0.287 N 
ATOM     27  C   UNL     1       3.882   2.603  -3.123  0.00  0.00    +0.201 C 
ATOM     28  O   UNL     1       4.753   3.260  -2.594  0.00  0.00    -0.278 OA
ATOM     29  H   UNL     1       3.042   2.112  -4.889  0.00  0.00    +0.155 HD
BRANCH  26  35
ATOM     30  C   UNL     1       5.553   4.117  -8.772  0.00  0.00    +0.044 C 
ATOM     31  C   UNL     1       5.323   4.345  -7.301  0.00  0.00    -0.046 A 
ATOM     32  C   UNL     1       5.822   5.482  -6.692  0.00  0.00    +0.004 A 
ATOM     33  C   UNL     1       5.613   5.696  -5.342  0.00  0.00    +0.002 A 
ATOM     34  C   UNL     1       4.905   4.773  -4.597  0.00  0.00    +0.023 A 
ATOM     35  C   UNL     1       4.402   3.631  -5.205  0.00  0.00    +0.036 A 
ATOM     36  C   UNL     1       4.619   3.417  -6.560  0.00  0.00    -0.026 A 
ATOM     37  C   UNL     1       4.080   2.175  -7.223  0.00  0.00    +0.046 C 
ENDBRANCH  26  35
ENDBRANCH  25  27
ENDBRANCH  13  25
TORSDOF 6
