REMARK  Name = ZINC16957541
REMARK  6 active torsions:
REMARK  status: ('A' for Active; 'I' for Inactive)
REMARK    1  A    between atoms: C_6  and  N_7
REMARK    2  A    between atoms: C_12  and  C_13
REMARK    3  A    between atoms: C_15  and  O_25
REMARK    4  A    between atoms: C_17  and  O_24
REMARK    5  A    between atoms: C_19  and  C_22
REMARK    6  A    between atoms: C_22  and  O_23
REMARK                            x       y       z     vdW  Elec       q    Type
REMARK                         _______ _______ _______ _____ _____    ______ ____
ROOT
ATOM      1  C   UNL     1      -0.016   1.354   0.009  0.00  0.00    +0.053 A 
ATOM      2  C   UNL     1       1.254   2.075   0.001  0.00  0.00    +0.031 A 
ATOM      3  C   UNL     1       2.445   1.333  -0.014  0.00  0.00    +0.097 A 
ATOM      4  C   UNL     1       2.376  -0.071  -0.021  0.00  0.00    +0.111 A 
ATOM      5  N   UNL     1       1.183  -0.694  -0.013  0.00  0.00    -0.336 N 
ATOM      6  C   UNL     1       0.002  -0.004   0.002  0.00  0.00    +0.095 A 
ATOM      7  S   UNL     1       3.818  -0.993  -0.040  0.00  0.00    -0.031 S 
ATOM      8  N   UNL     1       3.472   2.241  -0.019  0.00  0.00    -0.274 N 
ATOM      9  H   UNL     1       4.419   2.031  -0.029  0.00  0.00    +0.189 HD
ATOM     10  N   UNL     1       2.913   3.526  -0.006  0.00  0.00    -0.175 NA
ATOM     11  C   UNL     1       1.611   3.436   0.006  0.00  0.00    +0.102 A 
ATOM     12  H   UNL     1       1.161  -1.664  -0.019  0.00  0.00    +0.168 HD
ENDROOT
BRANCH  11  13
ATOM     13  C   UNL     1       0.649   4.596   0.021  0.00  0.00    +0.200 C 
ATOM     14  C   UNL     1       0.595   5.250  -1.376  0.00  0.00    +0.180 C 
ATOM     15  C   UNL     1       0.515   6.762  -1.030  0.00  0.00    +0.177 C 
ATOM     16  C   UNL     1       1.383   6.817   0.253  0.00  0.00    +0.175 C 
ATOM     17  O   UNL     1       1.102   5.590   0.949  0.00  0.00    -0.360 OA
BRANCH  15  18
ATOM     18  O   UNL     1       1.082   7.560  -2.071  0.00  0.00    -0.386 OA
ATOM     19  H   UNL     1       1.053   8.511  -1.898  0.00  0.00    +0.210 HD
ENDBRANCH  15  18
BRANCH  14  20
ATOM     20  O   UNL     1      -0.567   4.826  -2.092  0.00  0.00    -0.386 OA
ATOM     21  H   UNL     1      -0.646   5.209  -2.976  0.00  0.00    +0.210 HD
ENDBRANCH  14  20
BRANCH  16  22
ATOM     22  C   UNL     1       0.985   8.019   1.112  0.00  0.00    +0.190 C 
BRANCH  22  23
ATOM     23  O   UNL     1       1.871   8.119   2.228  0.00  0.00    -0.392 OA
ATOM     24  H   UNL     1       1.678   8.861   2.818  0.00  0.00    +0.210 HD
ENDBRANCH  22  23
ENDBRANCH  16  22
ENDBRANCH  11  13
BRANCH   6  25
ATOM     25  N   UNL     1      -1.193  -0.701   0.010  0.00  0.00    -0.345 N 
ATOM     26  H   UNL     1      -2.035  -0.220   0.020  0.00  0.00    +0.144 HD
ATOM     27  H   UNL     1      -1.189  -1.671   0.004  0.00  0.00    +0.144 HD
ENDBRANCH   6  25
TORSDOF 6
