REMARK  Name = ZINC52550573
REMARK  7 active torsions:
REMARK  status: ('A' for Active; 'I' for Inactive)
REMARK    1  A    between atoms: C_4  and  C_10
REMARK    2  A    between atoms: N_13  and  C_16
REMARK    3  A    between atoms: C_16  and  C_18
REMARK    4  A    between atoms: C_16  and  C_20
REMARK    5  A    between atoms: C_18  and  O_19
REMARK    6  A    between atoms: C_26  and  C_28
REMARK    7  A    between atoms: C_29  and  C_30
REMARK                            x       y       z     vdW  Elec       q    Type
REMARK                         _______ _______ _______ _____ _____    ______ ____
ROOT
ATOM      1  C   UNL     1       7.146   6.231  -0.035  0.00  0.00    -0.039 C 
ENDROOT
BRANCH   1   2
ATOM      2  C   UNL     1       7.956   6.229   1.263  0.00  0.00    -0.020 C 
ATOM      3  C   UNL     1       7.018   5.995   2.449  0.00  0.00    +0.021 C 
ATOM      4  C   UNL     1       7.837   5.959   3.743  0.00  0.00    +0.108 C 
ATOM      5  N   UNL     1       8.630   7.192   3.836  0.00  0.00    -0.298 N 
ATOM      6  C   UNL     1       9.498   7.560   2.709  0.00  0.00    +0.108 C 
ATOM      7  C   UNL     1       8.660   7.578   1.426  0.00  0.00    +0.021 C 
ATOM      8  C   UNL     1       8.562   7.972   4.933  0.00  0.00    +0.239 C 
ATOM      9  O   UNL     1       7.771   7.707   5.820  0.00  0.00    -0.271 OA
BRANCH   8  10
ATOM     10  C   UNL     1       9.437   9.138   5.058  0.00  0.00    +0.068 C 
ATOM     11  C   UNL     1       9.436   9.864   6.195  0.00  0.00    +0.013 C 
BRANCH  11  12
ATOM     12  C   UNL     1      10.317  11.035   6.320  0.00  0.00    -0.019 A 
ATOM     13  C   UNL     1      11.152  11.403   5.260  0.00  0.00    +0.049 A 
ATOM     14  C   UNL     1      11.976  12.503   5.384  0.00  0.00    +0.162 A 
ATOM     15  C   UNL     1      11.977  13.245   6.557  0.00  0.00    +0.193 A 
ATOM     16  C   UNL     1      11.150  12.885   7.612  0.00  0.00    +0.162 A 
ATOM     17  C   UNL     1      10.317  11.790   7.498  0.00  0.00    +0.049 A 
ATOM     18  F   UNL     1      11.156  13.611   8.752  0.00  0.00    -0.202 F 
ATOM     19  F   UNL     1      12.785  14.321   6.672  0.00  0.00    -0.199 F 
ATOM     20  F   UNL     1      12.784  12.859   4.361  0.00  0.00    -0.202 F 
ENDBRANCH  11  12
ENDBRANCH   8  10
ENDBRANCH   1   2
BRANCH   1  24
ATOM     21  C   UNL     1       5.697   2.509  -1.519  0.00  0.00    +0.014 C 
ATOM     22  C   UNL     1       6.616   2.525  -0.295  0.00  0.00    -0.011 C 
ATOM     23  C   UNL     1       7.372   3.854  -0.248  0.00  0.00    -0.078 C 
ATOM     24  N   UNL     1       6.414   4.963  -0.158  0.00  0.00    +0.383 N 
ATOM     25  C   UNL     1       5.577   4.997  -1.362  0.00  0.00    -0.078 C 
ATOM     26  C   UNL     1       4.752   3.712  -1.452  0.00  0.00    -0.011 C 
ATOM     27  H   UNL     1       5.829   4.835   0.654  0.00  0.00    -0.081 HD
BRANCH  21  31
ATOM     28  C   UNL     1       5.339  -0.954  -4.519  0.00  0.00    +0.020 A 
ATOM     29  C   UNL     1       5.586   0.156  -3.773  0.00  0.00    +0.013 A 
ATOM     30  C   UNL     1       4.881   0.286  -2.492  0.00  0.00    +0.018 A 
ATOM     31  C   UNL     1       4.892   1.235  -1.528  0.00  0.00    -0.037 C 
ATOM     32  C   UNL     1       3.932   0.757  -0.462  0.00  0.00    +0.146 C 
ATOM     33  N   UNL     1       3.408  -0.527  -0.938  0.00  0.00    -0.365 N 
ATOM     34  C   UNL     1       3.951  -0.797  -2.100  0.00  0.00    +0.134 A 
ATOM     35  N   UNL     1       3.798  -1.846  -2.937  0.00  0.00    -0.238 NA
ATOM     36  C   UNL     1       4.442  -1.928  -4.069  0.00  0.00    +0.113 A 
ATOM     37  H   UNL     1       2.766  -1.085  -0.470  0.00  0.00    +0.161 HD
ENDBRANCH  21  31
ENDBRANCH   1  24
BRANCH   1  38
ATOM     38  C   UNL     1       8.092   6.391  -1.227  0.00  0.00    +0.141 C 
BRANCH  38  39
ATOM     39  O   UNL     1       9.126   5.408  -1.150  0.00  0.00    -0.397 OA
ATOM     40  H   UNL     1       9.764   5.451  -1.875  0.00  0.00    +0.209 HD
ENDBRANCH  38  39
ENDBRANCH   1  38
TORSDOF 7
