REMARK  Name = ZINC52566299
REMARK  4 active torsions:
REMARK  status: ('A' for Active; 'I' for Inactive)
REMARK    1  A    between atoms: C_7  and  C_10
REMARK    2  A    between atoms: N_12  and  C_22
REMARK    3  A    between atoms: C_25  and  S_28
REMARK    4  A    between atoms: S_28  and  N_31
REMARK                            x       y       z     vdW  Elec       q    Type
REMARK                         _______ _______ _______ _____ _____    ______ ____
ROOT
ATOM      1  C   UNL     1       0.437  -3.648  -0.165  0.00  0.00    +0.173 C 
ATOM      2  N   UNL     1       0.936  -4.005   1.161  0.00  0.00    -0.251 N 
ATOM      3  C   UNL     1       2.165  -4.456   1.398  0.00  0.00    +0.253 C 
ATOM      4  O   UNL     1       2.508  -4.565   2.559  0.00  0.00    -0.270 OA
ATOM      5  C   UNL     1       3.137  -4.832   0.367  0.00  0.00    +0.051 A 
ATOM      6  C   UNL     1       4.487  -4.994   0.701  0.00  0.00    +0.014 A 
ATOM      7  C   UNL     1       5.400  -5.332  -0.273  0.00  0.00    +0.001 A 
ATOM      8  C   UNL     1       4.997  -5.513  -1.587  0.00  0.00    +0.001 A 
ATOM      9  C   UNL     1       3.670  -5.363  -1.935  0.00  0.00    +0.015 A 
ATOM     10  C   UNL     1       2.736  -5.031  -0.964  0.00  0.00    +0.022 A 
ATOM     11  S   UNL     1       1.028  -4.865  -1.379  0.00  0.00    -0.097 S 
ENDROOT
BRANCH   1  18
ATOM     12  C   UNL     1      -1.714   0.270  -1.204  0.00  0.00    +0.001 A 
ATOM     13  C   UNL     1      -0.843   1.328  -1.500  0.00  0.00    +0.002 A 
ATOM     14  C   UNL     1       0.500   1.195  -1.477  0.00  0.00    +0.026 A 
ATOM     15  C   UNL     1       1.093  -0.054  -1.145  0.00  0.00    +0.043 A 
ATOM     16  N   UNL     1       2.346  -0.430  -1.056  0.00  0.00    -0.380 N 
ATOM     17  C   UNL     1       2.384  -1.845  -0.673  0.00  0.00    +0.147 C 
ATOM     18  C   UNL     1       0.941  -2.278  -0.541  0.00  0.00    -0.011 C 
ATOM     19  C   UNL     1       0.195  -1.188  -0.828  0.00  0.00    +0.001 A 
ATOM     20  C   UNL     1      -1.254  -0.959  -0.875  0.00  0.00    +0.010 A 
ATOM     21  H   UNL     1       3.119   0.134  -1.218  0.00  0.00    +0.160 HD
ENDBRANCH   1  18
BRANCH   2  22
ATOM     22  C   UNL     1       0.069  -3.862   2.248  0.00  0.00    +0.038 A 
ATOM     23  C   UNL     1       0.008  -2.658   2.937  0.00  0.00    +0.025 A 
ATOM     24  C   UNL     1      -0.851  -2.521   4.010  0.00  0.00    +0.030 A 
ATOM     25  C   UNL     1      -1.649  -3.581   4.399  0.00  0.00    +0.109 A 
ATOM     26  C   UNL     1      -1.591  -4.781   3.716  0.00  0.00    +0.030 A 
ATOM     27  C   UNL     1      -0.739  -4.923   2.638  0.00  0.00    +0.025 A 
BRANCH  25  28
ATOM     28  S   UNL     1      -2.743  -3.401   5.769  0.00  0.00    +0.073 S 
ATOM     29  O   UNL     1      -2.982  -4.709   6.271  0.00  0.00    -0.150 OA
ATOM     30  O   UNL     1      -2.213  -2.360   6.578  0.00  0.00    -0.150 OA
BRANCH  28  31
ATOM     31  N   UNL     1      -4.186  -2.850   5.174  0.00  0.00    -0.199 N 
ATOM     32  C   UNL     1      -4.936  -3.650   4.319  0.00  0.00    +0.138 A 
ATOM     33  C   UNL     1      -6.146  -3.179   3.818  0.00  0.00    +0.045 A 
ATOM     34  C   UNL     1      -6.882  -3.985   2.969  0.00  0.00    +0.005 A 
ATOM     35  C   UNL     1      -6.381  -5.240   2.647  0.00  0.00    +0.020 A 
ATOM     36  C   UNL     1      -5.174  -5.644   3.181  0.00  0.00    +0.113 A 
ATOM     37  N   UNL     1      -4.490  -4.851   3.985  0.00  0.00    -0.239 NA
ATOM     38  H   UNL     1      -4.509  -1.970   5.422  0.00  0.00    +0.175 HD
ENDBRANCH  28  31
ENDBRANCH  25  28
ENDBRANCH   2  22
TORSDOF 4
