REMARK  Name = ZINC01768066
REMARK  11 active torsions:
REMARK  status: ('A' for Active; 'I' for Inactive)
REMARK    1  A    between atoms: C_1  and  C_2
REMARK    2  A    between atoms: C_2  and  C_4
REMARK    3  A    between atoms: C_2  and  N_42
REMARK    4  A    between atoms: C_4  and  C_5
REMARK    5  A    between atoms: C_8  and  O_11
REMARK    6  A    between atoms: C_12  and  C_13
REMARK    7  A    between atoms: C_12  and  N_42
REMARK    8  A    between atoms: C_13  and  C_15
REMARK    9  A    between atoms: C_13  and  O_23
REMARK   10  A    between atoms: C_18  and  O_22
REMARK   11  A    between atoms: C_19  and  O_21
REMARK                            x       y       z     vdW  Elec       q    Type
REMARK                         _______ _______ _______ _____ _____    ______ ____
ROOT
ATOM      1  C   UNL     1       0.408  -1.844   1.522  0.00  0.00    -0.046 C 
ENDROOT
BRANCH   1   2
ATOM      2  N   UNL     1       0.822  -0.483   1.131  0.00  0.00    +0.383 N 
ATOM      3  H   UNL     1       0.701   0.150   1.930  0.00  0.00    -0.085 HD
ATOM      4  H   UNL     1       1.809  -0.497   0.851  0.00  0.00    -0.085 HD
BRANCH   2   6
ATOM      5  C   UNL     1       0.606  -0.499  -1.314  0.00  0.00    -0.013 C 
ATOM      6  C   UNL     1       0.002  -0.004   0.002  0.00  0.00    -0.071 C 
BRANCH   6   7
ATOM      7  C   UNL     1      -0.019   1.526   0.010  0.00  0.00    +0.019 C 
BRANCH   7   8
ATOM      8  C   UNL     1      -0.724   2.012   1.250  0.00  0.00    -0.049 A 
ATOM      9  C   UNL     1      -2.089   2.229   1.227  0.00  0.00    +0.007 A 
ATOM     10  C   UNL     1      -2.739   2.669   2.364  0.00  0.00    +0.045 A 
ATOM     11  C   UNL     1      -2.019   2.904   3.526  0.00  0.00    +0.117 A 
ATOM     12  C   UNL     1      -0.648   2.691   3.545  0.00  0.00    +0.045 A 
ATOM     13  C   UNL     1      -0.004   2.245   2.407  0.00  0.00    +0.007 A 
BRANCH  11  14
ATOM     14  O   UNL     1      -2.655   3.342   4.645  0.00  0.00    -0.507 OA
ATOM     15  H   UNL     1      -2.706   4.305   4.717  0.00  0.00    +0.292 HD
ENDBRANCH  11  14
ENDBRANCH   7   8
ENDBRANCH   6   7
ENDBRANCH   2   6
ENDBRANCH   1   2
BRANCH   1  16
ATOM     16  C   UNL     1       1.274  -2.314   2.693  0.00  0.00    +0.128 C 
BRANCH  16  17
ATOM     17  C   UNL     1       0.943  -3.747   3.020  0.00  0.00    -0.017 A 
ATOM     18  C   UNL     1      -0.178  -4.041   3.775  0.00  0.00    +0.010 A 
ATOM     19  C   UNL     1      -0.487  -5.354   4.076  0.00  0.00    +0.049 A 
ATOM     20  C   UNL     1       0.328  -6.380   3.622  0.00  0.00    +0.158 A 
ATOM     21  C   UNL     1       1.455  -6.084   2.863  0.00  0.00    +0.159 A 
ATOM     22  C   UNL     1       1.756  -4.765   2.559  0.00  0.00    +0.055 A 
BRANCH  21  23
ATOM     23  O   UNL     1       2.258  -7.086   2.415  0.00  0.00    -0.503 OA
ATOM     24  H   UNL     1       2.007  -7.432   1.547  0.00  0.00    +0.292 HD
ENDBRANCH  21  23
BRANCH  20  25
ATOM     25  O   UNL     1       0.025  -7.672   3.918  0.00  0.00    -0.503 OA
ATOM     26  H   UNL     1      -0.545  -8.102   3.266  0.00  0.00    +0.292 HD
ENDBRANCH  20  25
ENDBRANCH  16  17
BRANCH  16  27
ATOM     27  O   UNL     1       1.018  -1.493   3.835  0.00  0.00    -0.389 OA
ATOM     28  H   UNL     1       0.098  -1.512   4.134  0.00  0.00    +0.210 HD
ENDBRANCH  16  27
ENDBRANCH   1  16
TORSDOF 10
