REMARK  Name = ZINC36704394
REMARK  12 active torsions:
REMARK  status: ('A' for Active; 'I' for Inactive)
REMARK    1  A    between atoms: C_1  and  C_2
REMARK    2  A    between atoms: C_2  and  N_3
REMARK    3  A    between atoms: N_3  and  C_4
REMARK    4  A    between atoms: N_3  and  C_6
REMARK    5  A    between atoms: C_4  and  C_5
REMARK    6  A    between atoms: C_6  and  C_7
REMARK    7  A    between atoms: C_7  and  N_8
REMARK    8  A    between atoms: C_12  and  C_19
REMARK    9  A    between atoms: C_14  and  C_18
REMARK   10  A    between atoms: C_20  and  C_22
REMARK   11  A    between atoms: N_27  and  S_28
REMARK   12  A    between atoms: S_28  and  C_31
REMARK                            x       y       z     vdW  Elec       q    Type
REMARK                         _______ _______ _______ _____ _____    ______ ____
ROOT
ATOM      1  N   UNL     1      -2.216  -4.210   0.009  0.00  0.00    -0.251 N 
ATOM      2  C   UNL     1      -2.138  -4.985   1.155  0.00  0.00    +0.168 A 
ATOM      3  N   UNL     1      -1.924  -6.276   1.262  0.00  0.00    -0.224 NA
ATOM      4  C   UNL     1      -1.873  -6.906   2.455  0.00  0.00    +0.083 A 
ATOM      5  C   UNL     1      -1.652  -8.280   2.709  0.00  0.00    -0.024 A 
ATOM      6  C   UNL     1      -1.632  -8.761   3.992  0.00  0.00    +0.009 A 
ATOM      7  C   UNL     1      -1.825  -7.926   5.082  0.00  0.00    -0.049 A 
ATOM      8  C   UNL     1      -2.044  -6.577   4.872  0.00  0.00    +0.020 A 
ATOM      9  C   UNL     1      -2.066  -6.086   3.590  0.00  0.00    +0.041 A 
ATOM     10  S   UNL     1      -2.296  -4.482   2.862  0.00  0.00    -0.052 S 
ATOM     11  C   UNL     1      -1.798  -8.483   6.482  0.00  0.00    +0.044 C 
ATOM     12  C   UNL     1      -1.438  -9.225   1.555  0.00  0.00    +0.046 C 
ATOM     13  C   UNL     1      -2.168  -4.794  -1.205  0.00  0.00    +0.240 C 
ATOM     14  O   UNL     1      -2.149  -4.111  -2.206  0.00  0.00    -0.273 OA
ENDROOT
BRANCH  13  15
ATOM     15  C   UNL     1      -2.140  -6.297  -1.317  0.00  0.00    +0.166 C 
ATOM     16  C   UNL     1      -3.557  -6.867  -1.095  0.00  0.00    +0.031 C 
ATOM     17  C   UNL     1      -4.081  -7.067  -2.542  0.00  0.00    +0.019 C 
ATOM     18  C   UNL     1      -2.790  -7.493  -3.285  0.00  0.00    +0.110 C 
ATOM     19  N   UNL     1      -1.714  -6.689  -2.668  0.00  0.00    -0.164 NA
BRANCH  19  20
ATOM     20  S   UNL     1      -0.272  -6.293  -3.379  0.00  0.00    +0.068 S 
ATOM     21  O   UNL     1      -0.479  -6.360  -4.783  0.00  0.00    -0.152 OA
ATOM     22  O   UNL     1       0.190  -5.115  -2.732  0.00  0.00    -0.152 OA
BRANCH  20  23
ATOM     23  C   UNL     1       0.875  -7.570  -2.978  0.00  0.00    +0.143 A 
ATOM     24  C   UNL     1       1.151  -8.712  -3.654  0.00  0.00    +0.036 A 
ATOM     25  C   UNL     1       2.101  -9.578  -3.145  0.00  0.00    +0.010 A 
ATOM     26  C   UNL     1       2.728  -9.260  -1.986  0.00  0.00    +0.047 A 
ATOM     27  S   UNL     1       1.979  -7.691  -1.581  0.00  0.00    -0.077 S 
ENDBRANCH  20  23
ENDBRANCH  19  20
ENDBRANCH  13  15
BRANCH   1  28
ATOM     28  C   UNL     1      -2.349  -2.755   0.117  0.00  0.00    +0.097 C 
BRANCH  28  29
ATOM     29  C   UNL     1      -0.964  -2.109   0.036  0.00  0.00    -0.059 C 
BRANCH  29  30
ATOM     30  N   UNL     1      -1.106  -0.647   0.024  0.00  0.00    +0.380 N 
ATOM     31  H   UNL     1      -1.728  -0.375  -0.723  0.00  0.00    -0.082 HD
BRANCH  30  33
ATOM     32  C   UNL     1      -1.923   1.308   1.252  0.00  0.00    -0.017 C 
ATOM     33  C   UNL     1      -1.659  -0.198   1.309  0.00  0.00    -0.082 C 
ENDBRANCH  30  33
BRANCH  30  34
ATOM     34  C   UNL     1       0.210  -0.029  -0.185  0.00  0.00    -0.082 C 
ATOM     35  C   UNL     1       0.720  -0.376  -1.585  0.00  0.00    -0.017 C 
ENDBRANCH  30  34
ENDBRANCH  29  30
ENDBRANCH  28  29
ENDBRANCH   1  28
TORSDOF 8
