REMARK  Name = ZINC04084844
REMARK  7 active torsions:
REMARK  status: ('A' for Active; 'I' for Inactive)
REMARK    1  A    between atoms: C_1  and  C_2
REMARK    2  A    between atoms: C_2  and  C_4
REMARK    3  A    between atoms: C_2  and  N_10
REMARK    4  A    between atoms: C_11  and  C_13
REMARK    5  A    between atoms: C_13  and  C_15
REMARK    6  A    between atoms: C_13  and  N_21
REMARK    7  A    between atoms: C_22  and  C_24
REMARK                            x       y       z     vdW  Elec       q    Type
REMARK                         _______ _______ _______ _____ _____    ______ ____
ROOT
ATOM      1  C   UNL     1      -1.214   3.626   0.028  0.00  0.00    +0.189 C 
ENDROOT
BRANCH   1   2
ATOM      2  C   UNL     1      -1.091   4.122   1.445  0.00  0.00    -0.018 A 
ATOM      3  C   UNL     1      -1.765   3.476   2.465  0.00  0.00    +0.006 A 
ATOM      4  C   UNL     1      -1.648   3.929   3.766  0.00  0.00    +0.000 A 
ATOM      5  C   UNL     1      -0.864   5.032   4.046  0.00  0.00    +0.000 A 
ATOM      6  C   UNL     1      -0.194   5.681   3.025  0.00  0.00    +0.000 A 
ATOM      7  C   UNL     1      -0.308   5.226   1.725  0.00  0.00    +0.006 A 
ENDBRANCH   1   2
BRANCH   1   9
ATOM      8  N   UNL     1      -2.753   5.436  -0.660  0.00  0.00    -0.307 N 
ATOM      9  C   UNL     1      -2.512   4.114  -0.564  0.00  0.00    +0.238 C 
ATOM     10  O   UNL     1      -3.338   3.316  -0.954  0.00  0.00    -0.273 OA
ATOM     11  H   UNL     1      -2.092   6.074  -0.348  0.00  0.00    +0.149 HD
BRANCH   8  13
ATOM     12  C   UNL     1      -3.889   5.972  -2.759  0.00  0.00    +0.033 C 
ATOM     13  C   UNL     1      -4.014   5.910  -1.235  0.00  0.00    +0.100 C 
BRANCH  13  14
ATOM     14  C   UNL     1      -4.325   7.285  -0.701  0.00  0.00    -0.027 A 
ATOM     15  C   UNL     1      -3.309   8.209  -0.540  0.00  0.00    +0.005 A 
ATOM     16  C   UNL     1      -3.595   9.472  -0.054  0.00  0.00    +0.000 A 
ATOM     17  C   UNL     1      -4.894   9.806   0.281  0.00  0.00    +0.000 A 
ATOM     18  C   UNL     1      -5.908   8.880   0.124  0.00  0.00    +0.000 A 
ATOM     19  C   UNL     1      -5.623   7.620  -0.366  0.00  0.00    +0.005 A 
ENDBRANCH  13  14
ENDBRANCH   8  13
ENDBRANCH   1   9
BRANCH   1  20
ATOM     20  N   UNL     1      -1.195   2.161   0.019  0.00  0.00    -0.302 N 
ATOM     21  C   UNL     1      -0.018   1.503   0.010  0.00  0.00    +0.200 C 
ATOM     22  O   UNL     1       1.024   2.123   0.004  0.00  0.00    -0.278 OA
ATOM     23  H   UNL     1      -2.028   1.664   0.021  0.00  0.00    +0.150 HD
BRANCH  21  24
ATOM     24  C   UNL     1       0.002  -0.004   0.002  0.00  0.00    +0.021 C 
ATOM     25  C   UNL     1      -0.203  -0.528   1.424  0.00  0.00    +0.028 C 
ATOM     26  C   UNL     1       0.056  -2.013   1.467  0.00  0.00    -0.047 A 
ATOM     27  C   UNL     1      -0.408  -2.733   2.557  0.00  0.00    +0.004 A 
ATOM     28  C   UNL     1      -0.186  -4.093   2.640  0.00  0.00    +0.000 A 
ATOM     29  C   UNL     1       0.503  -4.740   1.630  0.00  0.00    +0.000 A 
ATOM     30  C   UNL     1       0.963  -4.024   0.544  0.00  0.00    +0.002 A 
ATOM     31  C   UNL     1       0.739  -2.658   0.458  0.00  0.00    -0.061 A 
ATOM     32  C   UNL     1       1.257  -1.920  -0.749  0.00  0.00    -0.045 C 
ATOM     33  N   UNL     1       1.311  -0.475  -0.488  0.00  0.00    +0.389 N 
ATOM     34  H   UNL     1       2.029  -0.283   0.221  0.00  0.00    -0.084 HD
ATOM     35  H   UNL     1       1.547   0.019  -1.356  0.00  0.00    -0.084 HD
ENDBRANCH  21  24
ENDBRANCH   1  20
TORSDOF 6
