REMARK  Name = ZINC19535944
REMARK  13 active torsions:
REMARK  status: ('A' for Active; 'I' for Inactive)
REMARK    1  A    between atoms: C_1  and  C_2
REMARK    2  A    between atoms: C_4  and  C_31
REMARK    3  A    between atoms: C_5  and  N_9
REMARK    4  A    between atoms: C_6  and  C_8
REMARK    5  A    between atoms: C_10  and  C_12
REMARK    6  A    between atoms: C_12  and  N_13
REMARK    7  A    between atoms: N_13  and  C_14
REMARK    8  A    between atoms: N_13  and  C_15
REMARK    9  A    between atoms: C_15  and  C_17
REMARK   10  A    between atoms: C_15  and  C_18
REMARK   11  A    between atoms: N_20  and  C_21
REMARK   12  A    between atoms: C_24  and  O_27
REMARK   13  A    between atoms: O_27  and  C_28
REMARK                            x       y       z     vdW  Elec       q    Type
REMARK                         _______ _______ _______ _____ _____    ______ ____
ROOT
ATOM      1  N   UNL     1      -5.997   1.982  -0.385  0.00  0.00    +0.391 N 
ATOM      2  C   UNL     1      -6.117   2.498   0.985  0.00  0.00    -0.094 C 
ATOM      3  H   UNL     1      -5.833   2.839  -1.055  0.00  0.00    -0.080 HD
ENDROOT
BRANCH   1   4
ATOM      4  C   UNL     1      -7.234   1.311  -0.805  0.00  0.00    +0.017 C 
ATOM      5  C   UNL     1      -7.605   0.238   0.221  0.00  0.00    -0.004 C 
BRANCH   4   6
ATOM      6  C   UNL     1      -8.348   2.322  -0.898  0.00  0.00    +0.203 C 
ATOM      7  O   UNL     1      -8.132   3.488  -0.641  0.00  0.00    -0.277 OA
ATOM      8  N   UNL     1      -9.584   1.932  -1.268  0.00  0.00    -0.287 N 
ATOM      9  H   UNL     1      -9.801   0.864  -1.418  0.00  0.00    +0.155 HD
BRANCH   8  10
ATOM     10  C   UNL     1     -10.591   2.886  -1.463  0.00  0.00    +0.034 A 
ATOM     11  C   UNL     1     -11.910   2.576  -1.158  0.00  0.00    +0.027 A 
ATOM     12  C   UNL     1     -12.901   3.518  -1.345  0.00  0.00    +0.047 A 
ATOM     13  C   UNL     1     -12.582   4.771  -1.848  0.00  0.00    +0.127 A 
ATOM     14  C   UNL     1     -11.265   5.080  -2.157  0.00  0.00    +0.047 A 
ATOM     15  C   UNL     1     -10.272   4.140  -1.966  0.00  0.00    +0.027 A 
BRANCH  13  16
ATOM     16  O   UNL     1     -13.559   5.697  -2.037  0.00  0.00    -0.434 OA
BRANCH  16  17
ATOM     17  C   UNL     1     -14.893   5.311  -1.696  0.00  0.00    +0.541 C 
ATOM     18  F   UNL     1     -15.269   4.205  -2.466  0.00  0.00    -0.166 F 
ATOM     19  F   UNL     1     -14.950   4.976  -0.339  0.00  0.00    -0.166 F 
ENDBRANCH  16  17
ENDBRANCH  13  16
ENDBRANCH   8  10
ENDBRANCH   4   6
ENDBRANCH   1   4
BRANCH   1  20
ATOM     20  C   UNL     1      -4.842   1.084  -0.510  0.00  0.00    +0.020 C 
BRANCH  20  22
ATOM     21  N   UNL     1      -2.377   1.247  -0.381  0.00  0.00    -0.287 N 
ATOM     22  C   UNL     1      -3.571   1.868  -0.310  0.00  0.00    +0.201 C 
ATOM     23  O   UNL     1      -3.622   3.059  -0.085  0.00  0.00    -0.278 OA
ATOM     24  H   UNL     1      -2.332   0.153  -0.492  0.00  0.00    +0.155 HD
BRANCH  21  29
ATOM     25  C   UNL     1       2.421   4.259  -0.096  0.00  0.00    +0.044 C 
ATOM     26  C   UNL     1       1.145   3.462  -0.173  0.00  0.00    -0.050 A 
ATOM     27  C   UNL     1       0.218   3.543   0.849  0.00  0.00    +0.008 A 
ATOM     28  C   UNL     1      -0.953   2.813   0.782  0.00  0.00    -0.029 A 
ATOM     29  C   UNL     1      -1.195   1.992  -0.312  0.00  0.00    +0.039 A 
ATOM     30  C   UNL     1      -0.264   1.917  -1.340  0.00  0.00    -0.029 A 
ATOM     31  C   UNL     1       0.904   2.650  -1.266  0.00  0.00    +0.008 A 
ATOM     32  C   UNL     1      -0.526   1.033  -2.531  0.00  0.00    +0.045 C 
ATOM     33  C   UNL     1      -1.963   2.902   1.897  0.00  0.00    +0.045 C 
ENDBRANCH  21  29
ENDBRANCH  20  22
ENDBRANCH   1  20
TORSDOF 8
