REMARK  Name = ZINC31159436
REMARK  17 active torsions:
REMARK  status: ('A' for Active; 'I' for Inactive)
REMARK    1  A    between atoms: C_1  and  C_2
REMARK    2  A    between atoms: C_2  and  C_42
REMARK    3  A    between atoms: C_8  and  C_41
REMARK    4  A    between atoms: C_10  and  O_40
REMARK    5  A    between atoms: C_12  and  C_29
REMARK    6  A    between atoms: C_14  and  C_28
REMARK    7  A    between atoms: C_18  and  C_27
REMARK    8  A    between atoms: C_22  and  O_26
REMARK    9  A    between atoms: C_29  and  C_30
REMARK   10  A    between atoms: C_29  and  C_31
REMARK   11  A    between atoms: C_29  and  O_39
REMARK   12  A    between atoms: C_31  and  C_33
REMARK   13  A    between atoms: C_33  and  C_34
REMARK   14  A    between atoms: C_34  and  C_35
REMARK   15  A    between atoms: C_35  and  C_36
REMARK   16  A    between atoms: C_35  and  C_37
REMARK   17  A    between atoms: C_35  and  O_38
REMARK                            x       y       z     vdW  Elec       q    Type
REMARK                         _______ _______ _______ _____ _____    ______ ____
ROOT
ATOM      1  C   UNL     1      -0.245   1.794  -0.287  0.00  0.00    +0.023 C 
ATOM      2  C   UNL     1      -0.173   0.266  -0.244  0.00  0.00    +0.047 C 
ATOM      3  C   UNL     1      -1.578  -0.317  -0.182  0.00  0.00    -0.057 C 
ATOM      4  C   UNL     1      -2.577   0.469  -0.456  0.00  0.00    -0.026 C 
ATOM      5  C   UNL     1      -4.003  -0.002  -0.425  0.00  0.00    +0.032 C 
ATOM      6  C   UNL     1      -4.053  -1.494  -0.725  0.00  0.00    +0.013 C 
ATOM      7  C   UNL     1      -3.558  -1.809  -2.120  0.00  0.00    -0.020 C 
ATOM      8  C   UNL     1      -4.311  -1.117  -3.263  0.00  0.00    +0.039 C 
ATOM      9  C   UNL     1      -4.021  -2.035  -4.481  0.00  0.00    +0.122 C 
ATOM     10  C   UNL     1      -3.688  -3.433  -3.904  0.00  0.00    +0.063 C 
ATOM     11  C   UNL     1      -3.874  -3.305  -2.394  0.00  0.00    -0.011 C 
ATOM     12  C   UNL     1      -2.931  -4.136  -1.540  0.00  0.00    +0.082 C 
ATOM     13  C   UNL     1      -3.182  -3.732  -0.094  0.00  0.00    +0.141 C 
ATOM     14  O   UNL     1      -3.387  -4.571   0.750  0.00  0.00    -0.297 OA
ATOM     15  C   UNL     1      -3.153  -2.256   0.256  0.00  0.00    +0.036 C 
ATOM     16  C   UNL     1      -1.718  -1.762   0.185  0.00  0.00    +0.032 C 
ATOM     17  C   UNL     1      -1.011  -2.029   1.518  0.00  0.00    +0.048 C 
ATOM     18  C   UNL     1       0.464  -1.636   1.404  0.00  0.00    +0.182 C 
ATOM     19  C   UNL     1       0.554  -0.180   1.007  0.00  0.00    +0.171 C 
ATOM     20  O   UNL     1       1.189   0.606   1.669  0.00  0.00    -0.294 OA
ATOM     21  C   UNL     1      -3.685  -2.078   1.680  0.00  0.00    +0.020 C 
ATOM     22  C   UNL     1      -5.327  -3.607  -2.022  0.00  0.00    +0.012 C 
ATOM     23  C   UNL     1      -2.053  -1.553  -2.221  0.00  0.00    +0.012 C 
ATOM     24  C   UNL     1       0.555  -0.256  -1.484  0.00  0.00    +0.023 C 
ENDROOT
BRANCH  18  25
ATOM     25  O   UNL     1       1.110  -1.832   2.664  0.00  0.00    -0.384 OA
ATOM     26  H   UNL     1       2.049  -1.602   2.664  0.00  0.00    +0.210 HD
ENDBRANCH  18  25
BRANCH  10  27
ATOM     27  C   UNL     1      -4.648  -4.482  -4.471  0.00  0.00    +0.126 C 
ATOM     28  C   UNL     1      -4.327  -5.848  -3.862  0.00  0.00    +0.050 C 
BRANCH  27  29
ATOM     29  C   UNL     1      -4.492  -4.549  -5.968  0.00  0.00    +0.165 C 
ATOM     30  O   UNL     1      -3.425  -4.299  -6.476  0.00  0.00    -0.294 OA
BRANCH  29  31
ATOM     31  C   UNL     1      -5.667  -4.928  -6.832  0.00  0.00    +0.080 C 
BRANCH  31  32
ATOM     32  C   UNL     1      -5.243  -4.921  -8.302  0.00  0.00    +0.042 C 
BRANCH  32  33
ATOM     33  C   UNL     1      -6.436  -5.306  -9.179  0.00  0.00    +0.061 C 
ATOM     34  C   UNL     1      -5.982  -5.421 -10.636  0.00  0.00    +0.041 C 
ATOM     35  C   UNL     1      -6.999  -6.650  -8.713  0.00  0.00    +0.041 C 
BRANCH  33  36
ATOM     36  O   UNL     1      -7.448  -4.303  -9.073  0.00  0.00    -0.389 OA
ATOM     37  H   UNL     1      -8.236  -4.482  -9.604  0.00  0.00    +0.210 HD
ENDBRANCH  33  36
ENDBRANCH  32  33
ENDBRANCH  31  32
ENDBRANCH  29  31
ENDBRANCH  27  29
BRANCH  27  38
ATOM     38  O   UNL     1      -5.992  -4.121  -4.147  0.00  0.00    -0.381 OA
ATOM     39  H   UNL     1      -6.265  -3.263  -4.502  0.00  0.00    +0.211 HD
ENDBRANCH  27  38
ENDBRANCH  10  27
BRANCH   9  40
ATOM     40  O   UNL     1      -2.908  -1.531  -5.221  0.00  0.00    -0.391 OA
ATOM     41  H   UNL     1      -3.047  -0.647  -5.588  0.00  0.00    +0.210 HD
ENDBRANCH   9  40
TORSDOF 9
