REMARK  Name = ZINC66740918
REMARK  5 active torsions:
REMARK  status: ('A' for Active; 'I' for Inactive)
REMARK    1  A    between atoms: C_1  and  C_2
REMARK    2  A    between atoms: C_11  and  C_14
REMARK    3  A    between atoms: C_15  and  C_27
REMARK    4  A    between atoms: N_17  and  C_20
REMARK    5  A    between atoms: C_18  and  C_19
REMARK                            x       y       z     vdW  Elec       q    Type
REMARK                         _______ _______ _______ _____ _____    ______ ____
ROOT
ATOM      1  C   UNL     1      -0.420   1.925  -0.944  0.00  0.00    +0.067 C 
ATOM      2  C   UNL     1      -0.376   0.442  -0.680  0.00  0.00    +0.055 A 
ATOM      3  C   UNL     1      -0.235  -0.525  -1.591  0.00  0.00    +0.082 A 
ATOM      4  C   UNL     1      -0.258  -1.757  -0.859  0.00  0.00    +0.168 A 
ATOM      5  N   UNL     1      -0.398  -1.454   0.397  0.00  0.00    -0.167 NA
ATOM      6  N   UNL     1      -0.467  -0.172   0.537  0.00  0.00    -0.279 N 
ATOM      7  H   UNL     1      -0.570   0.289   1.384  0.00  0.00    +0.189 HD
ATOM      8  C   UNL     1      -0.140  -3.036  -1.585  0.00  0.00    +0.268 C 
ATOM      9  O   UNL     1      -0.327  -4.103  -1.032  0.00  0.00    -0.268 OA
ATOM     10  N   UNL     1       0.187  -2.966  -2.897  0.00  0.00    -0.288 N 
ATOM     11  C   UNL     1       0.587  -1.728  -3.557  0.00  0.00    +0.193 C 
ATOM     12  N   UNL     1      -0.081  -0.549  -2.983  0.00  0.00    -0.319 N 
ATOM     13  H   UNL     1       0.153  -3.779  -3.425  0.00  0.00    +0.151 HD
ATOM     14  H   UNL     1      -0.400   0.177  -3.543  0.00  0.00    +0.148 HD
ENDROOT
BRANCH  11  15
ATOM     15  C   UNL     1       2.078  -1.560  -3.415  0.00  0.00    +0.034 A 
ATOM     16  C   UNL     1       2.766  -0.344  -3.348  0.00  0.00    +0.067 A 
ATOM     17  N   UNL     1       4.044  -0.602  -3.228  0.00  0.00    -0.171 NA
ATOM     18  N   UNL     1       4.210  -1.993  -3.214  0.00  0.00    -0.236 N 
ATOM     19  C   UNL     1       2.987  -2.559  -3.325  0.00  0.00    +0.049 A 
ATOM     20  C   UNL     1       2.690  -4.036  -3.347  0.00  0.00    +0.066 C 
ATOM     21  C   UNL     1       2.144   1.028  -3.406  0.00  0.00    +0.068 C 
BRANCH  18  22
ATOM     22  C   UNL     1       5.429  -2.677  -3.100  0.00  0.00    +0.066 A 
ATOM     23  C   UNL     1       5.687  -3.777  -3.907  0.00  0.00    +0.029 A 
ATOM     24  C   UNL     1       6.888  -4.450  -3.792  0.00  0.00    +0.022 A 
ATOM     25  C   UNL     1       7.833  -4.028  -2.874  0.00  0.00    +0.041 A 
ATOM     26  C   UNL     1       7.578  -2.932  -2.068  0.00  0.00    +0.022 A 
ATOM     27  C   UNL     1       6.381  -2.252  -2.184  0.00  0.00    +0.029 A 
ATOM     28 CL   UNL     1       9.341  -4.876  -2.732  0.00  0.00    -0.084 Cl
ENDBRANCH  18  22
ENDBRANCH  11  15
TORSDOF 2
