REMARK  Name = ZINC67270004
REMARK  3 active torsions:
REMARK  status: ('A' for Active; 'I' for Inactive)
REMARK    1  A    between atoms: N_3  and  C_22
REMARK    2  A    between atoms: C_5  and  N_7
REMARK    3  A    between atoms: C_8  and  C_10
REMARK                            x       y       z     vdW  Elec       q    Type
REMARK                         _______ _______ _______ _____ _____    ______ ____
ROOT
ATOM      1  C   UNL     1      -1.524  -1.241   3.288  0.00  0.00    +0.075 C 
ATOM      2  C   UNL     1      -0.868  -2.620   3.382  0.00  0.00    +0.015 C 
ATOM      3  C   UNL     1      -1.012  -3.155   4.809  0.00  0.00    +0.036 C 
ATOM      4  C   UNL     1      -2.490  -3.251   5.170  0.00  0.00    +0.112 C 
ATOM      5  C   UNL     1      -3.162  -1.887   5.060  0.00  0.00    +0.036 C 
ATOM      6  C   UNL     1      -3.010  -1.356   3.632  0.00  0.00    +0.015 C 
ATOM      7  C   UNL     1      -2.658  -3.811   6.564  0.00  0.00    +0.244 C 
ATOM      8  O   UNL     1      -2.254  -3.331   7.601  0.00  0.00    -0.273 OA
ATOM      9  N   UNL     1      -3.352  -4.958   6.410  0.00  0.00    -0.238 N 
ATOM     10  C   UNL     1      -3.640  -5.191   5.124  0.00  0.00    +0.307 C 
ATOM     11  O   UNL     1      -4.258  -6.163   4.736  0.00  0.00    -0.252 OA
ATOM     12  N   UNL     1      -3.167  -4.229   4.309  0.00  0.00    -0.285 N 
ATOM     13  H   UNL     1      -3.610  -5.541   7.141  0.00  0.00    +0.159 HD
ATOM     14  H   UNL     1      -3.256  -4.190   3.344  0.00  0.00    +0.151 HD
ENDROOT
BRANCH   1  16
ATOM     15  N   UNL     1      -0.144  -0.522   1.365  0.00  0.00    -0.314 N 
ATOM     16  C   UNL     1      -1.373  -0.708   1.886  0.00  0.00    +0.216 C 
ATOM     17  O   UNL     1      -2.357  -0.446   1.228  0.00  0.00    -0.276 OA
ATOM     18  H   UNL     1       0.643  -0.731   1.891  0.00  0.00    +0.149 HD
BRANCH  15  23
ATOM     19  C   UNL     1      -0.019   1.542   0.011  0.00  0.00    +0.002 C 
ATOM     20  C   UNL     1       1.486   1.909  -0.002  0.00  0.00    -0.077 C 
ATOM     21  N   UNL     1       2.080   0.878  -0.892  0.00  0.00    +0.383 N 
ATOM     22  C   UNL     1       1.381  -0.385  -0.569  0.00  0.00    -0.056 C 
ATOM     23  C   UNL     1       0.002  -0.004   0.002  0.00  0.00    +0.055 C 
ATOM     24  H   UNL     1       1.927   1.123  -1.858  0.00  0.00    -0.081 HD
BRANCH  21  25
ATOM     25  C   UNL     1       3.518   0.744  -0.622  0.00  0.00    -0.069 C 
ATOM     26  C   UNL     1       4.487   1.188  -1.720  0.00  0.00    -0.017 C 
ATOM     27  C   UNL     1       4.293  -0.301  -1.427  0.00  0.00    -0.017 C 
ENDBRANCH  21  25
ENDBRANCH  15  23
ENDBRANCH   1  16
TORSDOF 3
