REMARK  Name = ZINC06645005
REMARK  5 active torsions:
REMARK  status: ('A' for Active; 'I' for Inactive)
REMARK    1  A    between atoms: C_6  and  C_20
REMARK    2  A    between atoms: C_7  and  N_9
REMARK    3  A    between atoms: N_9  and  C_10
REMARK    4  A    between atoms: C_10  and  N_12
REMARK    5  A    between atoms: C_13  and  C_15
REMARK                            x       y       z     vdW  Elec       q    Type
REMARK                         _______ _______ _______ _____ _____    ______ ____
ROOT
ATOM      1  C   UNL     1      12.703   3.708  -0.229  0.00  0.00    +0.005 C 
ATOM      2  C   UNL     1      12.591   3.134  -1.644  0.00  0.00    +0.005 C 
ATOM      3  C   UNL     1      11.573   1.984  -1.633  0.00  0.00    +0.043 C 
ATOM      4  C   UNL     1      10.346   2.448  -0.910  0.00  0.00    -0.004 A 
ATOM      5  C   UNL     1      10.229   3.535  -0.118  0.00  0.00    -0.023 A 
ATOM      6  C   UNL     1       8.909   3.746   0.453  0.00  0.00    +0.068 A 
ATOM      7  C   UNL     1       7.921   2.822   0.141  0.00  0.00    +0.084 A 
ATOM      8  S   UNL     1       8.739   1.705  -0.900  0.00  0.00    -0.077 S 
ATOM      9  C   UNL     1      11.418   4.454   0.133  0.00  0.00    +0.037 C 
ENDROOT
BRANCH   6  10
ATOM     10  C   UNL     1       8.633   4.890   1.327  0.00  0.00    +0.244 C 
ATOM     11  O   UNL     1       8.792   4.789   2.530  0.00  0.00    -0.270 OA
ATOM     12  N   UNL     1       8.203   6.053   0.799  0.00  0.00    -0.325 N 
ATOM     13  H   UNL     1       8.076   6.133  -0.159  0.00  0.00    +0.145 HD
ATOM     14  H   UNL     1       8.020   6.810   1.378  0.00  0.00    +0.145 HD
ENDBRANCH   6  10
BRANCH   7  15
ATOM     15  N   UNL     1       6.599   2.802   0.558  0.00  0.00    -0.291 N 
ATOM     16  H   UNL     1       6.266   3.497   1.148  0.00  0.00    +0.154 HD
BRANCH  15  17
ATOM     17  C   UNL     1       5.777   1.818   0.143  0.00  0.00    +0.141 C 
ATOM     18  S   UNL     1       6.365   0.593  -0.898  0.00  0.00    -0.018 S 
BRANCH  17  19
ATOM     19  N   UNL     1       4.492   1.798   0.548  0.00  0.00    -0.267 N 
ATOM     20  C   UNL     1       3.670   0.814   0.134  0.00  0.00    +0.222 C 
ATOM     21  O   UNL     1       4.086  -0.053  -0.604  0.00  0.00    -0.275 OA
ATOM     22  H   UNL     1       4.159   2.493   1.138  0.00  0.00    +0.157 HD
BRANCH  20  23
ATOM     23  C   UNL     1       2.232   0.792   0.586  0.00  0.00    +0.075 C 
ATOM     24  C   UNL     1       1.453   1.995  -0.001  0.00  0.00    +0.013 C 
ATOM     25  C   UNL     1      -0.019   1.534   0.011  0.00  0.00    +0.001 C 
ATOM     26  C   UNL     1       0.002  -0.004   0.002  0.00  0.00    +0.001 C 
ATOM     27  C   UNL     1       1.486  -0.425  -0.014  0.00  0.00    +0.013 C 
ENDBRANCH  20  23
ENDBRANCH  17  19
ENDBRANCH  15  17
ENDBRANCH   7  15
TORSDOF 5
