REMARK  Name = ZINC02916444
REMARK  7 active torsions:
REMARK  status: ('A' for Active; 'I' for Inactive)
REMARK    1  A    between atoms: C_1  and  C_2
REMARK    2  A    between atoms: C_2  and  C_3
REMARK    3  A    between atoms: C_3  and  C_4
REMARK    4  A    between atoms: C_4  and  S_5
REMARK    5  A    between atoms: S_5  and  C_6
REMARK    6  A    between atoms: C_19  and  C_22
REMARK    7  A    between atoms: C_25  and  C_27
REMARK                            x       y       z     vdW  Elec       q    Type
REMARK                         _______ _______ _______ _____ _____    ______ ____
ROOT
ATOM      1  C   UNL     1       1.171  -0.638  -0.018  0.00  0.00    +0.212 A 
ATOM      2  N   UNL     1       0.002  -0.004   0.002  0.00  0.00    -0.184 NA
ATOM      3  C   UNL     1      -0.016   1.318   0.009  0.00  0.00    +0.248 A 
ATOM      4  C   UNL     1       1.214   2.014   0.001  0.00  0.00    +0.156 A 
ATOM      5  N   UNL     1       2.343   1.322  -0.022  0.00  0.00    -0.141 NA
ATOM      6  N   UNL     1       2.315   0.034  -0.031  0.00  0.00    -0.122 NA
ATOM      7  C   UNL     1       1.216   3.491   0.024  0.00  0.00    +0.028 A 
ATOM      8  C   UNL     1       2.001   4.231  -0.852  0.00  0.00    +0.012 A 
ATOM      9  C   UNL     1       1.984   5.611  -0.789  0.00  0.00    +0.001 A 
ATOM     10  C   UNL     1       1.193   6.261   0.141  0.00  0.00    +0.002 A 
ATOM     11  C   UNL     1       0.403   5.537   1.016  0.00  0.00    +0.024 A 
ATOM     12  C   UNL     1       0.403   4.156   0.961  0.00  0.00    +0.040 A 
ATOM     13  N   UNL     1      -0.410   3.393   1.805  0.00  0.00    -0.303 N 
ATOM     14  C   UNL     1      -1.539   2.669   1.228  0.00  0.00    +0.329 C 
ATOM     15  O   UNL     1      -1.181   2.008   0.019  0.00  0.00    -0.445 OA
ATOM     16  H   UNL     1      -0.228   3.347   2.756  0.00  0.00    +0.150 HD
ENDROOT
BRANCH  14  17
ATOM     17  C   UNL     1      -2.654   3.642   0.944  0.00  0.00    +0.165 A 
ATOM     18  C   UNL     1      -3.970   3.356   0.963  0.00  0.00    +0.051 A 
ATOM     19  C   UNL     1      -4.656   4.545   0.643  0.00  0.00    +0.050 A 
ATOM     20  C   UNL     1      -3.710   5.501   0.444  0.00  0.00    +0.135 A 
ATOM     21  O   UNL     1      -2.500   4.940   0.635  0.00  0.00    -0.454 OA
BRANCH  20  22
ATOM     22  C   UNL     1      -3.965   6.912   0.086  0.00  0.00    +0.017 A 
ATOM     23  C   UNL     1      -5.274   7.367  -0.083  0.00  0.00    +0.012 A 
ATOM     24  C   UNL     1      -5.505   8.686  -0.411  0.00  0.00    +0.016 A 
ATOM     25  C   UNL     1      -4.442   9.556  -0.584  0.00  0.00    +0.018 A 
ATOM     26  C   UNL     1      -3.142   9.110  -0.423  0.00  0.00    +0.016 A 
ATOM     27  C   UNL     1      -2.897   7.794  -0.089  0.00  0.00    +0.012 A 
ATOM     28 BR   UNL     1      -4.769  11.362  -1.042  0.00  0.00    -0.050 Br
ENDBRANCH  20  22
ENDBRANCH  14  17
BRANCH   1  29
ATOM     29  S   UNL     1       1.201  -2.400  -0.026  0.00  0.00    -0.084 S 
BRANCH  29  30
ATOM     30  C   UNL     1       2.988  -2.684  -0.054  0.00  0.00    +0.077 C 
BRANCH  30  31
ATOM     31  C   UNL     1       3.266  -4.189  -0.065  0.00  0.00    +0.011 C 
BRANCH  31  33
ATOM     32  C   UNL     1       5.054  -5.933  -0.099  0.00  0.00    +0.004 C 
ATOM     33  C   UNL     1       4.777  -4.429  -0.088  0.00  0.00    -0.003 C 
ENDBRANCH  31  33
ENDBRANCH  30  31
ENDBRANCH  29  30
ENDBRANCH   1  29
TORSDOF 6
