REMARK  Name = ZINC35737345
REMARK  5 active torsions:
REMARK  status: ('A' for Active; 'I' for Inactive)
REMARK    1  A    between atoms: C_1  and  N_2
REMARK    2  A    between atoms: C_4  and  N_7
REMARK    3  A    between atoms: N_7  and  S_8
REMARK    4  A    between atoms: S_8  and  C_11
REMARK    5  A    between atoms: C_14  and  N_18
REMARK                            x       y       z     vdW  Elec       q    Type
REMARK                         _______ _______ _______ _____ _____    ______ ____
ROOT
ATOM      1  S   UNL     1       1.072  -4.481  -1.165  0.00  0.00    +0.075 S 
ATOM      2  O   UNL     1       0.829  -5.482  -2.144  0.00  0.00    -0.150 OA
ATOM      3  O   UNL     1       2.356  -3.905  -0.966  0.00  0.00    -0.150 OA
ENDROOT
BRANCH   1   4
ATOM      4  C   UNL     1       0.580  -5.162   0.384  0.00  0.00    +0.136 A 
ATOM      5  C   UNL     1       1.118  -4.666   1.559  0.00  0.00    +0.047 A 
ATOM      6  C   UNL     1       0.734  -5.199   2.775  0.00  0.00    +0.040 A 
ATOM      7  C   UNL     1      -0.193  -6.233   2.817  0.00  0.00    +0.027 A 
ATOM      8  C   UNL     1      -0.731  -6.728   1.637  0.00  0.00    +0.040 A 
ATOM      9  C   UNL     1      -0.348  -6.188   0.424  0.00  0.00    +0.047 A 
ATOM     10 BR   UNL     1      -1.086  -6.857  -1.184  0.00  0.00    -0.048 Br
ATOM     11 BR   UNL     1       2.379  -3.259   1.500  0.00  0.00    -0.048 Br
BRANCH   7  12
ATOM     12  N   UNL     1      -0.582  -6.773   4.045  0.00  0.00    -0.358 N 
ATOM     13  H   UNL     1      -0.205  -6.427   4.869  0.00  0.00    +0.142 HD
ATOM     14  H   UNL     1      -1.229  -7.495   4.074  0.00  0.00    +0.142 HD
ENDBRANCH   7  12
ENDBRANCH   1   4
BRANCH   1  15
ATOM     15  N   UNL     1       0.039  -3.231  -1.500  0.00  0.00    -0.213 N 
ATOM     16  H   UNL     1      -0.558  -3.285  -2.262  0.00  0.00    +0.174 HD
BRANCH  15  20
ATOM     17  C   UNL     1      -0.018   1.461   0.010  0.00  0.00    +0.172 C 
ATOM     18  N   UNL     1       0.002  -0.004   0.002  0.00  0.00    -0.273 N 
ATOM     19  C   UNL     1       0.008  -0.798  -1.101  0.00  0.00    +0.132 A 
ATOM     20  C   UNL     1       0.027  -2.087  -0.677  0.00  0.00    +0.085 A 
ATOM     21  C   UNL     1       0.034  -2.079   0.725  0.00  0.00    +0.158 A 
ATOM     22  N   UNL     1       0.025  -0.835   1.130  0.00  0.00    -0.178 NA
ENDBRANCH  15  20
ENDBRANCH   1  15
TORSDOF 4
