REMARK  Name = ZINC62066502
REMARK  10 active torsions:
REMARK  status: ('A' for Active; 'I' for Inactive)
REMARK    1  A    between atoms: C_1  and  N_2
REMARK    2  A    between atoms: N_2  and  C_3
REMARK    3  A    between atoms: N_2  and  C_4
REMARK    4  A    between atoms: C_4  and  C_6
REMARK    5  A    between atoms: C_4  and  C_23
REMARK    6  A    between atoms: C_6  and  N_7
REMARK    7  A    between atoms: C_8  and  C_10
REMARK    8  A    between atoms: C_10  and  C_11
REMARK    9  A    between atoms: C_11  and  C_12
REMARK   10  A    between atoms: C_13  and  C_18
REMARK                            x       y       z     vdW  Elec       q    Type
REMARK                         _______ _______ _______ _____ _____    ______ ____
ROOT
ATOM      1  N   UNL     1      -0.914  -2.531   0.563  0.00  0.00    -0.316 N 
ATOM      2  C   UNL     1      -0.976  -3.877   0.530  0.00  0.00    +0.213 C 
ATOM      3  O   UNL     1      -1.633  -4.433  -0.325  0.00  0.00    -0.276 OA
ATOM      4  H   UNL     1      -0.389  -2.087   1.247  0.00  0.00    +0.149 HD
ENDROOT
BRANCH   1   5
ATOM      5  C   UNL     1      -1.640  -1.740  -0.433  0.00  0.00    +0.096 C 
BRANCH   5   6
ATOM      6  C   UNL     1      -1.509  -0.253  -0.097  0.00  0.00    +0.016 C 
BRANCH   6   7
ATOM      7  C   UNL     1      -0.070   0.169  -0.239  0.00  0.00    +0.093 A 
ATOM      8  C   UNL     1       0.460   0.819  -1.291  0.00  0.00    +0.043 A 
ATOM      9  C   UNL     1       1.831   1.013  -1.006  0.00  0.00    +0.041 A 
ATOM     10  C   UNL     1       2.058   0.470   0.204  0.00  0.00    +0.195 A 
ATOM     11  O   UNL     1       0.902  -0.035   0.666  0.00  0.00    -0.469 OA
ENDBRANCH   6   7
BRANCH   6  13
ATOM     12  C   UNL     1      -1.819   1.404   1.610  0.00  0.00    -0.096 C 
ATOM     13  N   UNL     1      -1.953  -0.022   1.284  0.00  0.00    +0.384 N 
ATOM     14  C   UNL     1      -3.359  -0.425   1.421  0.00  0.00    -0.096 C 
ATOM     15  H   UNL     1      -1.385  -0.566   1.916  0.00  0.00    -0.082 HD
ENDBRANCH   6  13
ENDBRANCH   5   6
ENDBRANCH   1   5
BRANCH   2  16
ATOM     16  C   UNL     1      -0.229  -4.691   1.555  0.00  0.00    +0.101 C 
BRANCH  16  17
ATOM     17  C   UNL     1      -0.466  -6.181   1.294  0.00  0.00    +0.054 C 
BRANCH  17  18
ATOM     18  C   UNL     1       0.281  -6.995   2.319  0.00  0.00    +0.020 A 
ATOM     19  C   UNL     1      -0.131  -7.447   3.542  0.00  0.00    +0.090 A 
ATOM     20  N   UNL     1       0.711  -8.160   4.290  0.00  0.00    -0.224 NA
ATOM     21  C   UNL     1       1.932  -8.434   3.869  0.00  0.00    +0.156 A 
ATOM     22  S   UNL     1       1.947  -7.641   2.268  0.00  0.00    -0.057 S 
ATOM     23  N   UNL     1       2.935  -9.151   4.501  0.00  0.00    -0.337 N 
ATOM     24  H   UNL     1       2.779  -9.532   5.379  0.00  0.00    +0.144 HD
ATOM     25  H   UNL     1       3.793  -9.272   4.065  0.00  0.00    +0.144 HD
BRANCH  19  26
ATOM     26  C   UNL     1      -1.495  -7.150   4.029  0.00  0.00    +0.038 A 
ATOM     27  C   UNL     1      -2.326  -7.923   4.793  0.00  0.00    +0.018 A 
ATOM     28  C   UNL     1      -3.569  -7.429   5.128  0.00  0.00    +0.008 A 
ATOM     29  C   UNL     1      -3.930  -6.196   4.692  0.00  0.00    +0.046 A 
ATOM     30  S   UNL     1      -2.483  -5.684   3.780  0.00  0.00    -0.095 S 
ENDBRANCH  19  26
ENDBRANCH  17  18
ENDBRANCH  16  17
ENDBRANCH   2  16
TORSDOF 8
