REMARK  Name = ZINC20236801
REMARK  9 active torsions:
REMARK  status: ('A' for Active; 'I' for Inactive)
REMARK    1  A    between atoms: C_1  and  C_2
REMARK    2  A    between atoms: C_9  and  C_10
REMARK    3  A    between atoms: C_13  and  O_17
REMARK    4  A    between atoms: O_17  and  C_18
REMARK    5  A    between atoms: C_18  and  C_19
REMARK    6  A    between atoms: C_19  and  O_20
REMARK    7  A    between atoms: O_20  and  C_21
REMARK    8  A    between atoms: C_25  and  O_27
REMARK    9  A    between atoms: O_27  and  C_28
REMARK                            x       y       z     vdW  Elec       q    Type
REMARK                         _______ _______ _______ _____ _____    ______ ____
ROOT
ATOM      1  C   UNL     1       0.639  -6.804   1.134  0.00  0.00    -0.023 A 
ATOM      2  C   UNL     1      -0.744  -6.900   0.922  0.00  0.00    +0.011 A 
ATOM      3  C   UNL     1      -1.408  -8.045   1.258  0.00  0.00    +0.047 A 
ATOM      4  C   UNL     1      -0.719  -9.119   1.811  0.00  0.00    +0.135 A 
ATOM      5  C   UNL     1       0.653  -9.035   2.027  0.00  0.00    +0.060 A 
ATOM      6  C   UNL     1       1.335  -7.888   1.686  0.00  0.00    +0.027 A 
ATOM      7 BR   UNL     1       1.583 -10.499   2.781  0.00  0.00    -0.047 Br
ENDROOT
BRANCH   1  16
ATOM      8  C   UNL     1       8.194  -3.466   1.937  0.00  0.00    +0.089 C 
ATOM      9  C   UNL     1       6.759  -3.921   2.010  0.00  0.00    +0.134 C 
ATOM     10  C   UNL     1       6.245  -4.736   2.956  0.00  0.00    +0.091 C 
ATOM     11  C   UNL     1       4.880  -4.919   2.689  0.00  0.00    +0.168 C 
ATOM     12  N   UNL     1       3.986  -5.672   3.326  0.00  0.00    -0.156 NA
ATOM     13  C   UNL     1       2.732  -5.761   2.857  0.00  0.00    +0.273 C 
ATOM     14  O   UNL     1       1.872  -6.344   3.498  0.00  0.00    -0.268 OA
ATOM     15  C   UNL     1       2.405  -5.141   1.549  0.00  0.00    +0.084 C 
ATOM     16  C   UNL     1       1.354  -5.577   0.774  0.00  0.00    +0.024 C 
ATOM     17  C   UNL     1       3.290  -4.012   1.127  0.00  0.00    +0.176 C 
ATOM     18  N   UNL     1       2.883  -3.010   0.394  0.00  0.00    -0.280 NA
ATOM     19  N   UNL     1       4.590  -4.143   1.595  0.00  0.00    -0.142 N 
ATOM     20  O   UNL     1       5.790  -3.573   1.147  0.00  0.00    -0.375 OA
ATOM     21  H   UNL     1       1.961  -2.970   0.094  0.00  0.00    +0.188 HD
ENDBRANCH   1  16
BRANCH   4  22
ATOM     22  O   UNL     1      -1.387 -10.252   2.143  0.00  0.00    -0.487 OA
BRANCH  22  23
ATOM     23  C   UNL     1      -2.795 -10.271   1.896  0.00  0.00    +0.270 C 
BRANCH  23  24
ATOM     24  C   UNL     1      -3.371 -11.620   2.330  0.00  0.00    +0.270 C 
BRANCH  24  25
ATOM     25  O   UNL     1      -3.233 -11.764   3.745  0.00  0.00    -0.488 OA
BRANCH  25  26
ATOM     26  C   UNL     1      -3.699 -12.915   4.297  0.00  0.00    +0.124 A 
ATOM     27  C   UNL     1      -4.271 -13.890   3.491  0.00  0.00    +0.046 A 
ATOM     28  C   UNL     1      -4.744 -15.061   4.051  0.00  0.00    +0.007 A 
ATOM     29  C   UNL     1      -4.649 -15.264   5.415  0.00  0.00    +0.046 A 
ATOM     30  C   UNL     1      -4.079 -14.293   6.225  0.00  0.00    +0.124 A 
ATOM     31  C   UNL     1      -3.598 -13.120   5.664  0.00  0.00    +0.091 A 
BRANCH  30  32
ATOM     32  O   UNL     1      -3.986 -14.494   7.565  0.00  0.00    -0.495 OA
ATOM     33  C   UNL     1      -4.497 -15.728   8.073  0.00  0.00    +0.277 C 
ENDBRANCH  30  32
ENDBRANCH  25  26
ENDBRANCH  24  25
ENDBRANCH  23  24
ENDBRANCH  22  23
ENDBRANCH   4  22
TORSDOF 7
