REMARK  Name = ZINC43051230
REMARK  8 active torsions:
REMARK  status: ('A' for Active; 'I' for Inactive)
REMARK    1  A    between atoms: C_1  and  N_2
REMARK    2  A    between atoms: N_2  and  C_3
REMARK    3  A    between atoms: C_5  and  C_10
REMARK    4  A    between atoms: C_10  and  N_11
REMARK    5  A    between atoms: C_12  and  C_14
REMARK    6  A    between atoms: C_14  and  C_15
REMARK    7  A    between atoms: C_15  and  C_17
REMARK    8  A    between atoms: C_15  and  N_22
REMARK                            x       y       z     vdW  Elec       q    Type
REMARK                         _______ _______ _______ _____ _____    ______ ____
ROOT
ATOM      1  N   UNL     1       0.572  -2.873   1.612  0.00  0.00    -0.311 N 
ATOM      2  C   UNL     1       1.726  -3.485   1.946  0.00  0.00    +0.215 C 
ATOM      3  O   UNL     1       2.406  -4.006   1.088  0.00  0.00    -0.276 OA
ATOM      4  H   UNL     1       0.028  -2.455   2.298  0.00  0.00    +0.149 HD
ENDROOT
BRANCH   1   5
ATOM      5  C   UNL     1       0.140  -2.838   0.212  0.00  0.00    +0.143 C 
BRANCH   5  10
ATOM      6  C   UNL     1       0.448   0.459   1.550  0.00  0.00    +0.130 C 
ATOM      7  N   UNL     1      -0.012   0.003   0.236  0.00  0.00    -0.323 N 
ATOM      8  C   UNL     1       0.779   0.299  -0.961  0.00  0.00    +0.130 C 
ATOM      9  C   UNL     1      -1.200  -0.710   0.125  0.00  0.00    +0.103 A 
ATOM     10  C   UNL     1      -1.170  -2.101   0.110  0.00  0.00    +0.008 A 
ATOM     11  C   UNL     1      -2.360  -2.798  -0.002  0.00  0.00    +0.010 A 
ATOM     12  C   UNL     1      -3.543  -2.078  -0.095  0.00  0.00    +0.018 A 
ATOM     13  C   UNL     1      -3.499  -0.699  -0.073  0.00  0.00    +0.084 A 
ATOM     14  N   UNL     1      -2.350  -0.060   0.039  0.00  0.00    -0.349 N 
ATOM     15  H   UNL     1      -2.348   0.910   0.056  0.00  0.00    +0.167 HD
ENDBRANCH   5  10
ENDBRANCH   1   5
BRANCH   2  16
ATOM     16  C   UNL     1       2.170  -3.520   3.385  0.00  0.00    +0.123 C 
BRANCH  16  17
ATOM     17  C   UNL     1       3.501  -4.269   3.490  0.00  0.00    +0.120 C 
BRANCH  17  18
ATOM     18  N   UNL     1       3.304  -5.670   3.110  0.00  0.00    -0.292 N 
ATOM     19  C   UNL     1       4.340  -6.392   2.640  0.00  0.00    +0.298 C 
ATOM     20  O   UNL     1       5.438  -5.881   2.530  0.00  0.00    -0.253 OA
ATOM     21  N   UNL     1       4.159  -7.681   2.291  0.00  0.00    -0.313 N 
ATOM     22  H   UNL     1       2.428  -6.077   3.198  0.00  0.00    +0.151 HD
ATOM     23  H   UNL     1       3.283  -8.089   2.378  0.00  0.00    +0.146 HD
ATOM     24  H   UNL     1       4.905  -8.201   1.952  0.00  0.00    +0.146 HD
ENDBRANCH  17  18
BRANCH  17  25
ATOM     25  C   UNL     1       4.006  -4.199   4.908  0.00  0.00    +0.010 A 
ATOM     26  C   UNL     1       4.945  -3.378   5.440  0.00  0.00    +0.013 A 
ATOM     27  C   UNL     1       5.253  -3.493   6.783  0.00  0.00    +0.008 A 
ATOM     28  C   UNL     1       4.606  -4.422   7.528  0.00  0.00    +0.045 A 
ATOM     29  S   UNL     1       3.518  -5.169   6.325  0.00  0.00    -0.100 S 
ENDBRANCH  17  25
ENDBRANCH  16  17
ENDBRANCH   2  16
TORSDOF 6
