REMARK  Name = ZINC01631387
REMARK  7 active torsions:
REMARK  status: ('A' for Active; 'I' for Inactive)
REMARK    1  A    between atoms: C_6  and  C_7
REMARK    2  A    between atoms: C_7  and  N_9
REMARK    3  A    between atoms: C_7  and  O_25
REMARK    4  A    between atoms: N_9  and  N_10
REMARK    5  A    between atoms: N_10  and  C_11
REMARK    6  A    between atoms: C_18  and  S_22
REMARK    7  A    between atoms: C_20  and  O_21
REMARK                            x       y       z     vdW  Elec       q    Type
REMARK                         _______ _______ _______ _____ _____    ______ ____
ROOT
ATOM      1  C   UNL     1      -1.690   3.362   2.323  0.00  0.00    +0.042 A 
ATOM      2  C   UNL     1      -2.070   2.552   3.399  0.00  0.00    +0.025 A 
ATOM      3  C   UNL     1      -2.695   3.080   4.484  0.00  0.00    +0.014 A 
ATOM      4  C   UNL     1      -2.967   4.457   4.535  0.00  0.00    +0.024 A 
ATOM      5  C   UNL     1      -2.586   5.286   3.450  0.00  0.00    -0.011 A 
ATOM      6  C   UNL     1      -1.937   4.717   2.342  0.00  0.00    +0.032 A 
ATOM      7  C   UNL     1      -2.859   6.664   3.503  0.00  0.00    +0.038 A 
ATOM      8  C   UNL     1      -3.485   7.191   4.591  0.00  0.00    +0.124 A 
ATOM      9  C   UNL     1      -3.864   6.386   5.662  0.00  0.00    +0.075 A 
ATOM     10  C   UNL     1      -3.614   5.032   5.648  0.00  0.00    +0.126 A 
ENDROOT
BRANCH   8  11
ATOM     11  S   UNL     1      -3.821   8.920   4.645  0.00  0.00    +0.140 S 
ATOM     12  O   UNL     1      -3.864   9.368   3.297  0.00  0.00    -0.140 OA
ATOM     13  O   UNL     1      -4.911   9.094   5.540  0.00  0.00    -0.140 OA
ATOM     14  O   UNL     1      -2.618   9.593   5.290  0.00  0.00    -0.043 OA
ENDBRANCH   8  11
BRANCH   1  15
ATOM     15  N   UNL     1      -1.048   2.793   1.221  0.00  0.00    -0.278 N 
ATOM     16  H   UNL     1      -0.783   3.350   0.473  0.00  0.00    +0.166 HD
BRANCH  15  17
ATOM     17  N   UNL     1      -0.795   1.450   1.197  0.00  0.00    -0.211 NA
ATOM     18  H   UNL     1      -0.193   1.183   1.961  0.00  0.00    +0.147 HD
BRANCH  17  19
ATOM     19  C   UNL     1      -0.221   1.046  -0.093  0.00  0.00    +0.230 C 
BRANCH  19  25
ATOM     20  C   UNL     1      -0.759   1.732  -2.439  0.00  0.00    +0.009 A 
ATOM     21  C   UNL     1      -1.664   1.994  -3.450  0.00  0.00    +0.022 A 
ATOM     22  C   UNL     1      -3.020   1.858  -3.217  0.00  0.00    +0.059 A 
ATOM     23  C   UNL     1      -3.471   1.458  -1.970  0.00  0.00    +0.060 A 
ATOM     24  C   UNL     1      -2.564   1.191  -0.961  0.00  0.00    +0.029 A 
ATOM     25  C   UNL     1      -1.209   1.333  -1.194  0.00  0.00    -0.002 A 
ATOM     26 CL   UNL     1      -5.173   1.287  -1.676  0.00  0.00    -0.082 Cl
ATOM     27 CL   UNL     1      -4.157   2.189  -4.487  0.00  0.00    -0.082 Cl
ENDBRANCH  19  25
BRANCH  19  28
ATOM     28  O   UNL     1       0.983   1.780  -0.329  0.00  0.00    -0.372 OA
ATOM     29  H   UNL     1       0.859   2.738  -0.360  0.00  0.00    +0.212 HD
ENDBRANCH  19  28
ENDBRANCH  17  19
ENDBRANCH  15  17
ENDBRANCH   1  15
BRANCH  10  30
ATOM     30  O   UNL     1      -3.988   4.256   6.698  0.00  0.00    -0.506 OA
ATOM     31  H   UNL     1      -3.313   4.172   7.385  0.00  0.00    +0.292 HD
ENDBRANCH  10  30
TORSDOF 7
