REMARK  Name = ZINC49026785
REMARK  7 active torsions:
REMARK  status: ('A' for Active; 'I' for Inactive)
REMARK    1  A    between atoms: C_1  and  C_2
REMARK    2  A    between atoms: C_2  and  C_3
REMARK    3  A    between atoms: C_2  and  N_4
REMARK    4  A    between atoms: N_4  and  C_5
REMARK    5  A    between atoms: N_4  and  C_11
REMARK    6  A    between atoms: C_5  and  C_6
REMARK    7  A    between atoms: C_14  and  N_21
REMARK                            x       y       z     vdW  Elec       q    Type
REMARK                         _______ _______ _______ _____ _____    ______ ____
ROOT
ATOM      1  C   UNL     1      -2.228  -0.191   1.071  0.00  0.00    +0.038 A 
ATOM      2  C   UNL     1      -3.019   0.937   1.007  0.00  0.00    +0.025 A 
ATOM      3  C   UNL     1      -3.875   1.268   2.053  0.00  0.00    +0.025 A 
ATOM      4  C   UNL     1      -3.955   0.479   3.181  0.00  0.00    +0.034 A 
ATOM      5  C   UNL     1      -3.159  -0.679   3.276  0.00  0.00    +0.020 A 
ATOM      6  C   UNL     1      -2.291  -1.019   2.206  0.00  0.00    +0.008 A 
ATOM      7  C   UNL     1      -1.512  -2.184   2.326  0.00  0.00    +0.028 A 
ATOM      8  C   UNL     1      -1.629  -2.935   3.456  0.00  0.00    +0.083 A 
ATOM      9  N   UNL     1      -2.453  -2.596   4.439  0.00  0.00    -0.366 N 
ATOM     10  C   UNL     1      -3.200  -1.517   4.400  0.00  0.00    +0.093 A 
ATOM     11  H   UNL     1      -2.498  -3.165   5.223  0.00  0.00    +0.165 HD
ENDROOT
BRANCH   4  12
ATOM     12  N   UNL     1      -4.819   0.827   4.222  0.00  0.00    -0.357 N 
ATOM     13  H   UNL     1      -5.365   1.625   4.152  0.00  0.00    +0.142 HD
ATOM     14  H   UNL     1      -4.872   0.270   5.014  0.00  0.00    +0.142 HD
ENDBRANCH   4  12
BRANCH   1  15
ATOM     15  N   UNL     1      -1.372  -0.511   0.012  0.00  0.00    -0.322 N 
BRANCH  15  17
ATOM     16  C   UNL     1      -0.019   1.526   0.010  0.00  0.00    +0.027 C 
ATOM     17  C   UNL     1       0.002  -0.004   0.002  0.00  0.00    +0.068 C 
ATOM     18  C   UNL     1       0.742  -0.511   1.242  0.00  0.00    +0.027 C 
ENDBRANCH  15  17
BRANCH  15  19
ATOM     19  C   UNL     1      -1.851  -1.354  -1.086  0.00  0.00    +0.147 C 
BRANCH  19  20
ATOM     20  C   UNL     1      -1.582  -2.801  -0.763  0.00  0.00    +0.007 A 
ATOM     21  C   UNL     1      -2.374  -3.693  -0.120  0.00  0.00    +0.013 A 
ATOM     22  C   UNL     1      -1.916  -4.984   0.066  0.00  0.00    +0.008 A 
ATOM     23  C   UNL     1      -0.688  -5.319  -0.399  0.00  0.00    +0.045 A 
ATOM     24  S   UNL     1      -0.141  -3.787  -1.134  0.00  0.00    -0.100 S 
ENDBRANCH  19  20
ENDBRANCH  15  19
ENDBRANCH   1  15
TORSDOF 5
