REMARK  Name = ZINC20477682
REMARK  11 active torsions:
REMARK  status: ('A' for Active; 'I' for Inactive)
REMARK    1  A    between atoms: C_1  and  C_2
REMARK    2  A    between atoms: C_2  and  O_3
REMARK    3  A    between atoms: O_3  and  C_4
REMARK    4  A    between atoms: C_7  and  C_11
REMARK    5  A    between atoms: C_11  and  N_12
REMARK    6  A    between atoms: N_12  and  C_13
REMARK    7  A    between atoms: C_13  and  C_14
REMARK    8  A    between atoms: C_14  and  N_15
REMARK    9  A    between atoms: N_15  and  C_16
REMARK   10  A    between atoms: C_16  and  C_17
REMARK   11  A    between atoms: C_17  and  O_18
REMARK                            x       y       z     vdW  Elec       q    Type
REMARK                         _______ _______ _______ _____ _____    ______ ____
ROOT
ATOM      1  C   UNL     1      -1.128   7.562   1.862  0.00  0.00    -0.047 C 
ENDROOT
BRANCH   1   5
ATOM      2  C   UNL     1      -0.793   3.332   1.349  0.00  0.00    +0.148 A 
ATOM      3  C   UNL     1       0.195   4.030   2.027  0.00  0.00    +0.061 A 
ATOM      4  C   UNL     1       0.087   5.399   2.187  0.00  0.00    +0.020 A 
ATOM      5  C   UNL     1      -1.010   6.071   1.681  0.00  0.00    -0.062 A 
ATOM      6  C   UNL     1      -1.999   5.377   1.008  0.00  0.00    +0.020 A 
ATOM      7  C   UNL     1      -1.893   4.009   0.841  0.00  0.00    +0.061 A 
ATOM      8 BR   UNL     1      -3.246   3.061  -0.079  0.00  0.00    -0.046 Br
ATOM      9 BR   UNL     1       1.692   3.111   2.728  0.00  0.00    -0.046 Br
BRANCH   2  10
ATOM     10  O   UNL     1      -0.688   1.987   1.186  0.00  0.00    -0.490 OA
BRANCH  10  12
ATOM     11  C   UNL     1       0.002  -0.004   0.002  0.00  0.00    +0.048 C 
ATOM     12  C   UNL     1      -0.019   1.526   0.010  0.00  0.00    +0.226 C 
ENDBRANCH  10  12
ENDBRANCH   2  10
ENDBRANCH   1   5
BRANCH   1  13
ATOM     13  N   UNL     1      -1.839   7.848   3.115  0.00  0.00    +0.383 N 
ATOM     14  H   UNL     1      -2.844   7.403   3.076  0.00  0.00    -0.085 HD
ATOM     15  H   UNL     1      -1.280   7.419   3.960  0.00  0.00    -0.085 HD
BRANCH  13  16
ATOM     16  C   UNL     1      -1.973   9.296   3.326  0.00  0.00    -0.067 C 
BRANCH  16  17
ATOM     17  C   UNL     1      -2.717   9.554   4.638  0.00  0.00    +0.062 C 
BRANCH  17  18
ATOM     18  N   UNL     1      -2.851  11.002   4.848  0.00  0.00    -0.316 NA
ATOM     19  H   UNL     1      -1.852  11.459   4.897  0.00  0.00    +0.122 HD
BRANCH  18  20
ATOM     20  C   UNL     1      -3.562  11.287   6.102  0.00  0.00    +0.108 C 
BRANCH  20  21
ATOM     21  C   UNL     1      -3.682  12.802   6.286  0.00  0.00    +0.171 C 
BRANCH  21  22
ATOM     22  O   UNL     1      -4.506  13.344   5.252  0.00  0.00    -0.394 OA
ATOM     23  H   UNL     1      -4.708  14.424   5.219  0.00  0.00    +0.209 HD
ENDBRANCH  21  22
ENDBRANCH  20  21
ENDBRANCH  18  20
ENDBRANCH  17  18
ENDBRANCH  16  17
ENDBRANCH  13  16
ENDBRANCH   1  13
TORSDOF 10
