REMARK  Name = ZINC08299030
REMARK  11 active torsions:
REMARK  status: ('A' for Active; 'I' for Inactive)
REMARK    1  A    between atoms: C_1  and  C_2
REMARK    2  A    between atoms: C_2  and  O_33
REMARK    3  A    between atoms: C_4  and  O_32
REMARK    4  A    between atoms: C_6  and  O_31
REMARK    5  A    between atoms: C_9  and  O_14
REMARK    6  A    between atoms: O_14  and  C_15
REMARK    7  A    between atoms: C_17  and  O_30
REMARK    8  A    between atoms: C_19  and  O_29
REMARK    9  A    between atoms: C_21  and  O_28
REMARK   10  A    between atoms: C_23  and  C_26
REMARK   11  A    between atoms: C_26  and  O_27
REMARK                            x       y       z     vdW  Elec       q    Type
REMARK                         _______ _______ _______ _____ _____    ______ ____
ROOT
ATOM      1  C   UNL     1       0.165   2.012  -2.350  0.00  0.00    +0.042 C 
ATOM      2  C   UNL     1      -0.796   1.617  -1.227  0.00  0.00    +0.077 C 
ATOM      3  C   UNL     1      -0.013   1.086   0.008  0.00  0.00    +0.069 C 
ATOM      4  C   UNL     1      -0.770   1.602   1.260  0.00  0.00    +0.153 C 
ATOM      5  C   UNL     1      -2.002   2.303   0.711  0.00  0.00    +0.124 C 
ATOM      6  C   UNL     1      -1.514   2.844  -0.665  0.00  0.00    +0.127 C 
ATOM      7  C   UNL     1      -2.763   3.316  -1.386  0.00  0.00    +0.318 C 
ATOM      8  O   UNL     1      -3.271   4.423  -0.595  0.00  0.00    -0.471 OA
ATOM      9  C   UNL     1      -3.150   4.415   0.749  0.00  0.00    +0.189 C 
ATOM     10  C   UNL     1      -2.557   3.466   1.454  0.00  0.00    +0.048 C 
ENDROOT
BRANCH   5  11
ATOM     11  O   UNL     1      -3.038   1.342   0.497  0.00  0.00    -0.381 OA
ATOM     12  H   UNL     1      -3.393   0.959   1.311  0.00  0.00    +0.211 HD
ENDBRANCH   5  11
BRANCH   4  13
ATOM     13  O   UNL     1       0.044   2.523   1.989  0.00  0.00    -0.389 OA
ATOM     14  H   UNL     1       0.867   2.142   2.323  0.00  0.00    +0.210 HD
ENDBRANCH   4  13
BRANCH   2  15
ATOM     15  O   UNL     1      -1.737   0.644  -1.686  0.00  0.00    -0.388 OA
ATOM     16  H   UNL     1      -1.335  -0.186  -1.977  0.00  0.00    +0.210 HD
ENDBRANCH   2  15
BRANCH   7  17
ATOM     17  O   UNL     1      -2.431   3.765  -2.701  0.00  0.00    -0.309 OA
BRANCH  17  18
ATOM     18  C   UNL     1      -3.564   4.124  -3.495  0.00  0.00    +0.286 C 
ATOM     19  C   UNL     1      -3.121   4.348  -4.944  0.00  0.00    +0.201 C 
ATOM     20  C   UNL     1      -4.329   4.791  -5.776  0.00  0.00    +0.179 C 
ATOM     21  C   UNL     1      -4.931   6.053  -5.150  0.00  0.00    +0.177 C 
ATOM     22  C   UNL     1      -5.304   5.763  -3.694  0.00  0.00    +0.178 C 
ATOM     23  O   UNL     1      -4.143   5.326  -2.984  0.00  0.00    -0.340 OA
BRANCH  21  24
ATOM     24  O   UNL     1      -3.973   7.112  -5.196  0.00  0.00    -0.386 OA
ATOM     25  H   UNL     1      -3.692   7.349  -6.090  0.00  0.00    +0.210 HD
ENDBRANCH  21  24
BRANCH  20  26
ATOM     26  O   UNL     1      -3.910   5.073  -7.113  0.00  0.00    -0.386 OA
ATOM     27  H   UNL     1      -3.518   4.317  -7.570  0.00  0.00    +0.210 HD
ENDBRANCH  20  26
BRANCH  19  28
ATOM     28  O   UNL     1      -2.115   5.363  -4.984  0.00  0.00    -0.384 OA
ATOM     29  H   UNL     1      -1.322   5.151  -4.473  0.00  0.00    +0.210 HD
ENDBRANCH  19  28
BRANCH  22  30
ATOM     30  C   UNL     1      -5.851   7.035  -3.044  0.00  0.00    +0.190 C 
BRANCH  30  31
ATOM     31  O   UNL     1      -6.305   6.737  -1.722  0.00  0.00    -0.392 OA
ATOM     32  H   UNL     1      -6.666   7.499  -1.249  0.00  0.00    +0.210 HD
ENDBRANCH  30  31
ENDBRANCH  22  30
ENDBRANCH  17  18
ENDBRANCH   7  17
TORSDOF 10
