REMARK  Name = ZINC04545362
REMARK  14 active torsions:
REMARK  status: ('A' for Active; 'I' for Inactive)
REMARK    1  A    between atoms: C_1  and  C_2
REMARK    2  A    between atoms: C_2  and  C_3
REMARK    3  A    between atoms: C_3  and  C_4
REMARK    4  A    between atoms: C_7  and  C_11
REMARK    5  A    between atoms: C_10  and  N_60
REMARK    6  A    between atoms: N_13  and  C_14
REMARK    7  A    between atoms: C_14  and  C_16
REMARK    8  A    between atoms: C_14  and  C_32
REMARK    9  A    between atoms: C_18  and  O_31
REMARK   10  A    between atoms: C_20  and  O_30
REMARK   11  A    between atoms: C_22  and  O_29
REMARK   12  A    between atoms: C_24  and  S_27
REMARK   13  A    between atoms: S_27  and  C_28
REMARK   14  A    between atoms: C_32  and  C_34
REMARK                            x       y       z     vdW  Elec       q    Type
REMARK                         _______ _______ _______ _____ _____    ______ ____
ROOT
ATOM      1  C   UNL     1      -5.334   2.429  -1.253  0.00  0.00    +0.122 C 
ENDROOT
BRANCH   1   2
ATOM      2  C   UNL     1      -6.340   1.524  -1.967  0.00  0.00    +0.172 C 
ATOM      3  C   UNL     1      -5.590   0.532  -2.860  0.00  0.00    +0.176 C 
ATOM      4  C   UNL     1      -4.818   1.306  -3.933  0.00  0.00    +0.177 C 
ATOM      5  C   UNL     1      -5.799   2.175  -4.726  0.00  0.00    +0.184 C 
ATOM      6  C   UNL     1      -6.540   3.104  -3.760  0.00  0.00    +0.207 C 
ATOM      7  O   UNL     1      -7.212   2.321  -2.770  0.00  0.00    -0.356 OA
BRANCH   6   8
ATOM      8  S   UNL     1      -7.755   4.088  -4.680  0.00  0.00    -0.131 S 
ATOM      9  C   UNL     1      -8.199   5.421  -3.533  0.00  0.00    +0.087 C 
ENDBRANCH   6   8
BRANCH   5  10
ATOM     10  O   UNL     1      -6.740   1.340  -5.402  0.00  0.00    -0.386 OA
ATOM     11  H   UNL     1      -7.395   1.826  -5.921  0.00  0.00    +0.210 HD
ENDBRANCH   5  10
BRANCH   4  12
ATOM     12  O   UNL     1      -3.836   2.138  -3.312  0.00  0.00    -0.386 OA
ATOM     13  H   UNL     1      -3.314   2.662  -3.934  0.00  0.00    +0.210 HD
ENDBRANCH   4  12
BRANCH   3  14
ATOM     14  O   UNL     1      -4.675  -0.228  -2.067  0.00  0.00    -0.387 OA
ATOM     15  H   UNL     1      -4.165  -0.878  -2.570  0.00  0.00    +0.210 HD
ENDBRANCH   3  14
ENDBRANCH   1   2
BRANCH   1  18
ATOM     16  C   UNL     1      -3.114   2.102  -0.303  0.00  0.00    +0.200 C 
ATOM     17  O   UNL     1      -2.836   3.234  -0.639  0.00  0.00    -0.278 OA
ATOM     18  N   UNL     1      -4.338   1.604  -0.564  0.00  0.00    -0.310 N 
ATOM     19  H   UNL     1      -4.561   0.699  -0.295  0.00  0.00    +0.149 HD
BRANCH  16  22
ATOM     20  C   UNL     1      -0.874   0.984   2.482  0.00  0.00    -0.029 C 
ATOM     21  C   UNL     1      -2.278   1.339   1.942  0.00  0.00    -0.005 C 
ATOM     22  C   UNL     1      -2.090   1.254   0.406  0.00  0.00    +0.019 C 
ATOM     23  C   UNL     1       0.091   1.277   1.319  0.00  0.00    -0.075 C 
ATOM     24  C   UNL     1      -0.176   1.371  -1.094  0.00  0.00    -0.095 C 
ATOM     25  N   UNL     1      -0.738   1.794   0.224  0.00  0.00    +0.386 N 
ATOM     26  H   UNL     1      -0.767   2.820   0.264  0.00  0.00    -0.081 HD
BRANCH  20  27
ATOM     27  C   UNL     1      -0.532   1.859   3.690  0.00  0.00    +0.001 C 
BRANCH  27  29
ATOM     28  C   UNL     1       1.178   2.330   5.449  0.00  0.00    +0.004 C 
ATOM     29  C   UNL     1       0.837   1.454   4.242  0.00  0.00    -0.003 C 
ENDBRANCH  27  29
ENDBRANCH  20  27
ENDBRANCH  16  22
ENDBRANCH   1  18
BRANCH   1  30
ATOM     30  C   UNL     1      -6.067   3.302  -0.233  0.00  0.00    +0.100 C 
ATOM     31  C   UNL     1      -5.048   4.097   0.585  0.00  0.00    +0.026 C 
ATOM     32 CL   UNL     1      -7.165   4.441  -1.097  0.00  0.00    -0.120 Cl
ENDBRANCH   1  30
TORSDOF 10
