REMARK  Name = ZINC19943625
REMARK  13 active torsions:
REMARK  status: ('A' for Active; 'I' for Inactive)
REMARK    1  A    between atoms: C_1  and  C_2
REMARK    2  A    between atoms: C_5  and  S_10
REMARK    3  A    between atoms: C_6  and  C_9
REMARK    4  A    between atoms: C_7  and  C_8
REMARK    5  A    between atoms: S_10  and  N_13
REMARK    6  A    between atoms: N_13  and  C_14
REMARK    7  A    between atoms: C_14  and  C_15
REMARK    8  A    between atoms: C_15  and  N_16
REMARK    9  A    between atoms: N_19  and  S_22
REMARK   10  A    between atoms: S_22  and  C_25
REMARK   11  A    between atoms: C_28  and  C_33
REMARK   12  A    between atoms: C_29  and  C_32
REMARK   13  A    between atoms: C_30  and  C_31
REMARK                            x       y       z     vdW  Elec       q    Type
REMARK                         _______ _______ _______ _____ _____    ______ ____
ROOT
ATOM      1  N   UNL     1      -0.684   4.359  -2.075  0.00  0.00    +0.382 N 
ATOM      2  C   UNL     1      -0.167   3.067  -1.606  0.00  0.00    -0.061 C 
ATOM      3  C   UNL     1      -1.341   2.157  -1.231  0.00  0.00    +0.091 C 
ATOM      4  N   UNL     1      -2.197   2.870  -0.270  0.00  0.00    -0.180 NA
ATOM      5  C   UNL     1      -2.648   4.227  -0.614  0.00  0.00    +0.091 C 
ATOM      6  C   UNL     1      -1.417   5.058  -1.012  0.00  0.00    -0.061 C 
ATOM      7  H   UNL     1      -1.391   4.160  -2.894  0.00  0.00    -0.082 HD
ENDROOT
BRANCH   4   8
ATOM      8  S   UNL     1      -2.646   2.162   1.158  0.00  0.00    +0.061 S 
ATOM      9  O   UNL     1      -2.704   0.763   0.916  0.00  0.00    -0.153 OA
ATOM     10  O   UNL     1      -3.759   2.899   1.644  0.00  0.00    -0.153 OA
BRANCH   8  11
ATOM     11  C   UNL     1      -1.332   2.421   2.303  0.00  0.00    +0.109 A 
ATOM     12  C   UNL     1      -0.580   1.349   2.746  0.00  0.00    +0.029 A 
ATOM     13  C   UNL     1       0.447   1.551   3.649  0.00  0.00    +0.005 A 
ATOM     14  C   UNL     1       0.725   2.826   4.105  0.00  0.00    -0.047 A 
ATOM     15  C   UNL     1      -0.023   3.899   3.659  0.00  0.00    -0.043 A 
ATOM     16  C   UNL     1      -1.050   3.696   2.755  0.00  0.00    -0.021 A 
ATOM     17  C   UNL     1      -1.867   4.866   2.268  0.00  0.00    +0.046 C 
ATOM     18  C   UNL     1       0.280   5.288   4.156  0.00  0.00    +0.044 C 
ATOM     19  C   UNL     1       1.845   3.047   5.090  0.00  0.00    +0.044 C 
ENDBRANCH   8  11
ENDBRANCH   4   8
BRANCH   1  20
ATOM     20  C   UNL     1       0.399   5.198  -2.607  0.00  0.00    -0.062 C 
BRANCH  20  21
ATOM     21  C   UNL     1      -0.199   6.419  -3.308  0.00  0.00    +0.087 C 
BRANCH  21  22
ATOM     22  N   UNL     1       0.881   7.255  -3.838  0.00  0.00    -0.192 NA
ATOM     23  H   UNL     1       1.880   7.221  -3.378  0.00  0.00    +0.148 HD
BRANCH  22  24
ATOM     24  S   UNL     1       0.547   8.428  -4.958  0.00  0.00    +0.059 S 
ATOM     25  O   UNL     1       1.774   9.092  -5.229  0.00  0.00    -0.153 OA
ATOM     26  O   UNL     1      -0.225   7.808  -5.977  0.00  0.00    -0.153 OA
BRANCH  24  31
ATOM     27  C   UNL     1      -3.050  12.472  -2.291  0.00  0.00    +0.044 C 
ATOM     28  C   UNL     1      -2.151  11.462  -2.957  0.00  0.00    -0.047 A 
ATOM     29  C   UNL     1      -2.620  10.717  -4.024  0.00  0.00    +0.005 A 
ATOM     30  C   UNL     1      -1.794   9.795  -4.638  0.00  0.00    +0.029 A 
ATOM     31  C   UNL     1      -0.503   9.609  -4.179  0.00  0.00    +0.108 A 
ATOM     32  C   UNL     1      -0.035  10.353  -3.112  0.00  0.00    -0.021 A 
ATOM     33  C   UNL     1      -0.859  11.279  -2.501  0.00  0.00    -0.043 A 
ATOM     34  C   UNL     1      -0.349  12.091  -1.339  0.00  0.00    +0.044 C 
ATOM     35  C   UNL     1       1.374  10.154  -2.616  0.00  0.00    +0.046 C 
ENDBRANCH  24  31
ENDBRANCH  22  24
ENDBRANCH  21  22
ENDBRANCH  20  21
ENDBRANCH   1  20
TORSDOF 7
