REMARK  Name = ZINC06754078
REMARK  9 active torsions:
REMARK  status: ('A' for Active; 'I' for Inactive)
REMARK    1  A    between atoms: C_1  and  C_2
REMARK    2  A    between atoms: C_5  and  N_9
REMARK    3  A    between atoms: C_6  and  C_8
REMARK    4  A    between atoms: C_10  and  C_12
REMARK    5  A    between atoms: C_12  and  N_13
REMARK    6  A    between atoms: C_14  and  N_29
REMARK    7  A    between atoms: C_15  and  C_18
REMARK    8  A    between atoms: N_20  and  C_21
REMARK    9  A    between atoms: C_26  and  C_27
REMARK                            x       y       z     vdW  Elec       q    Type
REMARK                         _______ _______ _______ _____ _____    ______ ____
ROOT
ATOM      1  N   UNL     1      -0.634   1.798   1.139  0.00  0.00    -0.222 N 
ATOM      2  C   UNL     1      -1.620   1.107   1.759  0.00  0.00    +0.148 A 
ATOM      3  C   UNL     1      -2.003   1.869   2.856  0.00  0.00    +0.188 A 
ATOM      4  N   UNL     1      -1.250   2.985   2.871  0.00  0.00    -0.123 NA
ATOM      5  N   UNL     1      -0.431   2.971   1.879  0.00  0.00    -0.063 NA
ENDROOT
BRANCH   3   6
ATOM      6  C   UNL     1      -3.046   1.518   3.827  0.00  0.00    +0.272 C 
ATOM      7  O   UNL     1      -3.662   0.476   3.708  0.00  0.00    -0.268 OA
ATOM      8  N   UNL     1      -3.320   2.351   4.851  0.00  0.00    -0.280 N 
ATOM      9  H   UNL     1      -2.878   3.212   4.908  0.00  0.00    +0.155 HD
BRANCH   8  10
ATOM     10  C   UNL     1      -4.242   1.972   5.832  0.00  0.00    +0.038 A 
ATOM     11  C   UNL     1      -5.352   1.211   5.488  0.00  0.00    +0.023 A 
ATOM     12  C   UNL     1      -6.261   0.838   6.458  0.00  0.00    +0.003 A 
ATOM     13  C   UNL     1      -6.068   1.222   7.773  0.00  0.00    +0.020 A 
ATOM     14  C   UNL     1      -4.964   1.981   8.120  0.00  0.00    +0.046 A 
ATOM     15  C   UNL     1      -4.048   2.352   7.154  0.00  0.00    -0.011 A 
ATOM     16  C   UNL     1      -2.842   3.173   7.533  0.00  0.00    +0.047 C 
ATOM     17 CL   UNL     1      -4.726   2.461   9.771  0.00  0.00    -0.083 Cl
ENDBRANCH   8  10
ENDBRANCH   3   6
BRANCH   2  18
ATOM     18  N   UNL     1      -2.141  -0.112   1.377  0.00  0.00    -0.341 N 
ATOM     19  H   UNL     1      -1.798  -0.560   0.588  0.00  0.00    +0.144 HD
ATOM     20  H   UNL     1      -2.850  -0.520   1.896  0.00  0.00    +0.144 HD
ENDBRANCH   2  18
BRANCH   1  21
ATOM     21  C   UNL     1       0.087   1.394  -0.070  0.00  0.00    +0.243 C 
BRANCH  21  23
ATOM     22  N   UNL     1      -0.149   1.669  -2.517  0.00  0.00    -0.284 N 
ATOM     23  C   UNL     1      -0.634   1.920  -1.284  0.00  0.00    +0.239 C 
ATOM     24  O   UNL     1      -1.650   2.568  -1.153  0.00  0.00    -0.273 OA
ATOM     25  H   UNL     1       0.705   1.221  -2.620  0.00  0.00    +0.155 HD
BRANCH  22  30
ATOM     26  C   UNL     1      -3.104   3.238  -7.099  0.00  0.00    +0.044 C 
ATOM     27  C   UNL     1      -2.319   2.821  -5.882  0.00  0.00    -0.050 A 
ATOM     28  C   UNL     1      -2.972   2.591  -4.685  0.00  0.00    +0.005 A 
ATOM     29  C   UNL     1      -2.256   2.210  -3.567  0.00  0.00    +0.024 A 
ATOM     30  C   UNL     1      -0.878   2.056  -3.647  0.00  0.00    +0.036 A 
ATOM     31  C   UNL     1      -0.224   2.293  -4.849  0.00  0.00    -0.029 A 
ATOM     32  C   UNL     1      -0.947   2.669  -5.964  0.00  0.00    +0.008 A 
ATOM     33  C   UNL     1       1.272   2.133  -4.938  0.00  0.00    +0.045 C 
ENDBRANCH  22  30
ENDBRANCH  21  23
ENDBRANCH   1  21
TORSDOF 6
