REMARK  Name = ZINC04662434
REMARK  9 active torsions:
REMARK  status: ('A' for Active; 'I' for Inactive)
REMARK    1  A    between atoms: C_1  and  C_2
REMARK    2  A    between atoms: C_2  and  O_3
REMARK    3  A    between atoms: O_3  and  C_4
REMARK    4  A    between atoms: C_7  and  C_10
REMARK    5  A    between atoms: C_10  and  C_12
REMARK    6  A    between atoms: C_10  and  N_49
REMARK    7  A    between atoms: C_13  and  C_14
REMARK    8  A    between atoms: C_13  and  N_49
REMARK    9  A    between atoms: C_19  and  C_22
REMARK                            x       y       z     vdW  Elec       q    Type
REMARK                         _______ _______ _______ _____ _____    ______ ____
ROOT
ATOM      1  C   UNL     1       2.519   3.922  -0.002  0.00  0.00    +0.202 C 
ATOM      2  O   UNL     1       3.485   3.189  -0.014  0.00  0.00    -0.278 OA
ATOM      3  N   UNL     1       1.277   3.400   0.007  0.00  0.00    -0.266 N 
ATOM      4  C   UNL     1       1.103   2.021   0.002  0.00  0.00    +0.165 A 
ATOM      5  N   UNL     1      -0.016   1.320   0.009  0.00  0.00    -0.225 NA
ATOM      6  C   UNL     1       0.002  -0.004   0.002  0.00  0.00    +0.080 A 
ATOM      7  C   UNL     1       1.202  -0.658  -0.013  0.00  0.00    +0.076 A 
ATOM      8  S   UNL     1       2.334   0.726  -0.016  0.00  0.00    -0.060 S 
ATOM      9  H   UNL     1       0.504   3.986   0.017  0.00  0.00    +0.157 HD
ENDROOT
BRANCH   6  10
ATOM     10  C   UNL     1      -1.268  -0.770   0.009  0.00  0.00    +0.001 A 
ATOM     11  C   UNL     1      -1.244  -2.164  -0.004  0.00  0.00    +0.011 A 
ATOM     12  C   UNL     1      -2.429  -2.871   0.007  0.00  0.00    +0.016 A 
ATOM     13  C   UNL     1      -3.639  -2.200   0.023  0.00  0.00    +0.018 A 
ATOM     14  C   UNL     1      -3.668  -0.816   0.031  0.00  0.00    +0.016 A 
ATOM     15  C   UNL     1      -2.490  -0.099   0.025  0.00  0.00    +0.011 A 
ATOM     16 BR   UNL     1      -5.259  -3.176   0.032  0.00  0.00    -0.050 Br
ENDBRANCH   6  10
BRANCH   1  17
ATOM     17  C   UNL     1       2.708   5.417   0.004  0.00  0.00    +0.016 C 
BRANCH  17  18
ATOM     18  N   UNL     1       4.151   5.722  -0.008  0.00  0.00    +0.389 N 
ATOM     19  H   UNL     1       4.591   5.312   0.825  0.00  0.00    -0.084 HD
ATOM     20  H   UNL     1       4.575   5.321  -0.852  0.00  0.00    -0.084 HD
BRANCH  18  21
ATOM     21  C   UNL     1       4.366   7.182  -0.003  0.00  0.00    -0.043 C 
ATOM     22  C   UNL     1       4.306   7.712  -1.437  0.00  0.00    -0.009 C 
BRANCH  21  26
ATOM     23  C   UNL     1       8.207   8.028   1.669  0.00  0.00    +0.121 A 
ATOM     24  C   UNL     1       7.122   8.836   1.976  0.00  0.00    +0.046 A 
ATOM     25  C   UNL     1       5.881   8.561   1.434  0.00  0.00    +0.005 A 
ATOM     26  C   UNL     1       5.720   7.480   0.587  0.00  0.00    -0.061 A 
ATOM     27  C   UNL     1       6.799   6.670   0.284  0.00  0.00    +0.005 A 
ATOM     28  C   UNL     1       8.043   6.944   0.818  0.00  0.00    +0.046 A 
BRANCH  23  29
ATOM     29  O   UNL     1       9.428   8.296   2.201  0.00  0.00    -0.492 OA
BRANCH  29  31
ATOM     30  C   UNL     1      11.785   7.879   2.532  0.00  0.00    +0.048 C 
ATOM     31  C   UNL     1      10.499   7.421   1.841  0.00  0.00    +0.225 C 
ENDBRANCH  29  31
ENDBRANCH  23  29
ENDBRANCH  21  26
ENDBRANCH  18  21
ENDBRANCH  17  18
ENDBRANCH   1  17
TORSDOF 7
