REMARK  Name = ZINC43510976
REMARK  12 active torsions:
REMARK  status: ('A' for Active; 'I' for Inactive)
REMARK    1  A    between atoms: C_1  and  C_2
REMARK    2  A    between atoms: C_2  and  O_4
REMARK    3  A    between atoms: O_4  and  C_5
REMARK    4  A    between atoms: C_5  and  C_6
REMARK    5  A    between atoms: C_8  and  O_36
REMARK    6  A    between atoms: C_14  and  O_19
REMARK    7  A    between atoms: O_19  and  C_20
REMARK    8  A    between atoms: C_22  and  O_35
REMARK    9  A    between atoms: C_24  and  O_34
REMARK   10  A    between atoms: C_26  and  O_33
REMARK   11  A    between atoms: C_28  and  C_31
REMARK   12  A    between atoms: C_31  and  O_32
REMARK                            x       y       z     vdW  Elec       q    Type
REMARK                         _______ _______ _______ _____ _____    ______ ____
ROOT
ATOM      1  C   UNL     1       0.015  -2.665  -2.493  0.00  0.00    -0.024 C 
ATOM      2  C   UNL     1       0.000  -1.948  -3.585  0.00  0.00    +0.007 C 
ATOM      3  C   UNL     1      -0.000  -2.830  -4.813  0.00  0.00    +0.145 C 
ATOM      4  C   UNL     1       0.446  -4.220  -4.295  0.00  0.00    +0.060 C 
ATOM      5  C   UNL     1       0.032  -4.139  -2.817  0.00  0.00    +0.096 C 
ATOM      6  C   UNL     1       1.039  -4.865  -1.933  0.00  0.00    +0.317 C 
ATOM      7  O   UNL     1       2.342  -4.318  -2.163  0.00  0.00    -0.471 OA
ATOM      8  C   UNL     1       2.775  -4.365  -3.448  0.00  0.00    +0.186 C 
ATOM      9  C   UNL     1       1.928  -4.344  -4.462  0.00  0.00    +0.018 C 
ENDROOT
BRANCH   3  10
ATOM     10  O   UNL     1       0.926  -2.335  -5.782  0.00  0.00    -0.387 OA
ATOM     11  H   UNL     1       0.722  -1.446  -6.103  0.00  0.00    +0.210 HD
ENDBRANCH   3  10
BRANCH   1  12
ATOM     12  C   UNL     1       0.020  -2.096  -1.097  0.00  0.00    +0.263 C 
BRANCH  12  13
ATOM     13  O   UNL     1       0.000  -0.669  -1.164  0.00  0.00    -0.460 OA
BRANCH  13  15
ATOM     14  C   UNL     1      -0.018   1.503   0.010  0.00  0.00    +0.136 C 
ATOM     15  C   UNL     1       0.002  -0.004   0.002  0.00  0.00    +0.304 C 
ATOM     16  O   UNL     1       0.020  -0.614   1.045  0.00  0.00    -0.251 OA
ENDBRANCH  13  15
ENDBRANCH  12  13
ENDBRANCH   1  12
BRANCH   6  17
ATOM     17  O   UNL     1       0.682  -4.693  -0.560  0.00  0.00    -0.309 OA
BRANCH  17  18
ATOM     18  C   UNL     1       1.500  -5.430   0.351  0.00  0.00    +0.286 C 
ATOM     19  C   UNL     1       0.885  -5.374   1.751  0.00  0.00    +0.201 C 
ATOM     20  C   UNL     1       1.798  -6.115   2.732  0.00  0.00    +0.179 C 
ATOM     21  C   UNL     1       3.195  -5.488   2.686  0.00  0.00    +0.177 C 
ATOM     22  C   UNL     1       3.721  -5.540   1.249  0.00  0.00    +0.178 C 
ATOM     23  O   UNL     1       2.810  -4.859   0.384  0.00  0.00    -0.340 OA
BRANCH  21  24
ATOM     24  O   UNL     1       3.123  -4.128   3.120  0.00  0.00    -0.386 OA
ATOM     25  H   UNL     1       2.792  -4.021   4.022  0.00  0.00    +0.210 HD
ENDBRANCH  21  24
BRANCH  20  26
ATOM     26  O   UNL     1       1.268  -6.006   4.055  0.00  0.00    -0.386 OA
ATOM     27  H   UNL     1       0.381  -6.378   4.155  0.00  0.00    +0.210 HD
ENDBRANCH  20  26
BRANCH  19  28
ATOM     28  O   UNL     1      -0.402  -5.995   1.733  0.00  0.00    -0.384 OA
ATOM     29  H   UNL     1      -1.031  -5.578   1.128  0.00  0.00    +0.210 HD
ENDBRANCH  19  28
BRANCH  22  30
ATOM     30  C   UNL     1       5.091  -4.862   1.183  0.00  0.00    +0.190 C 
BRANCH  30  31
ATOM     31  O   UNL     1       5.634  -5.013  -0.131  0.00  0.00    -0.392 OA
ATOM     32  H   UNL     1       6.504  -4.606  -0.246  0.00  0.00    +0.210 HD
ENDBRANCH  30  31
ENDBRANCH  22  30
ENDBRANCH  17  18
ENDBRANCH   6  17
TORSDOF 11
