REMARK  Name = ZINC09671000
REMARK  9 active torsions:
REMARK  status: ('A' for Active; 'I' for Inactive)
REMARK    1  A    between atoms: C_1  and  C_2
REMARK    2  A    between atoms: C_5  and  N_9
REMARK    3  A    between atoms: C_10  and  C_12
REMARK    4  A    between atoms: C_12  and  S_13
REMARK    5  A    between atoms: S_13  and  C_14
REMARK    6  A    between atoms: C_17  and  C_26
REMARK    7  A    between atoms: N_18  and  C_19
REMARK    8  A    between atoms: C_26  and  C_28
REMARK    9  A    between atoms: C_26  and  N_60
REMARK                            x       y       z     vdW  Elec       q    Type
REMARK                         _______ _______ _______ _____ _____    ______ ____
ROOT
ATOM      1  C   UNL     1      -1.273   3.071   3.041  0.00  0.00    +0.197 A 
ATOM      2  N   UNL     1      -2.181   2.160   2.777  0.00  0.00    -0.122 NA
ATOM      3  N   UNL     1      -1.867   1.526   1.704  0.00  0.00    -0.135 NA
ATOM      4  C   UNL     1      -0.749   1.990   1.220  0.00  0.00    +0.125 A 
ATOM      5  N   UNL     1      -0.326   2.987   2.057  0.00  0.00    -0.275 N 
ENDROOT
BRANCH   5   6
ATOM      6  C   UNL     1       0.836   3.764   1.931  0.00  0.00    +0.050 A 
ATOM      7  C   UNL     1       2.085   3.169   2.039  0.00  0.00    +0.029 A 
ATOM      8  C   UNL     1       3.228   3.934   1.910  0.00  0.00    +0.040 A 
ATOM      9  C   UNL     1       3.127   5.296   1.682  0.00  0.00    +0.124 A 
ATOM     10  C   UNL     1       1.882   5.893   1.578  0.00  0.00    +0.040 A 
ATOM     11  C   UNL     1       0.737   5.130   1.702  0.00  0.00    +0.029 A 
ATOM     12  F   UNL     1       4.246   6.045   1.561  0.00  0.00    -0.205 F 
ENDBRANCH   5   6
BRANCH   4  13
ATOM     13  C   UNL     1      -0.050   1.512  -0.026  0.00  0.00    -0.002 C 
ATOM     14  C   UNL     1      -0.794   2.027  -1.259  0.00  0.00    -0.005 C 
BRANCH  13  20
ATOM     15  C   UNL     1       0.590  -0.490   1.176  0.00  0.00    -0.078 C 
ATOM     16  C   UNL     1       0.462  -2.015   1.190  0.00  0.00    -0.019 C 
ATOM     17  C   UNL     1       1.152  -2.592  -0.050  0.00  0.00    -0.004 C 
ATOM     18  C   UNL     1       0.519  -1.984  -1.305  0.00  0.00    -0.019 C 
ATOM     19  C   UNL     1       0.646  -0.460  -1.247  0.00  0.00    -0.078 C 
ATOM     20  N   UNL     1      -0.059   0.034  -0.045  0.00  0.00    +0.386 N 
ATOM     21  H   UNL     1      -1.032  -0.292  -0.071  0.00  0.00    -0.081 HD
ENDBRANCH  13  20
ENDBRANCH   4  13
BRANCH   1  22
ATOM     22  S   UNL     1      -1.271   4.185   4.406  0.00  0.00    -0.076 S 
BRANCH  22  23
ATOM     23  C   UNL     1      -2.802   3.679   5.227  0.00  0.00    +0.173 C 
BRANCH  23  25
ATOM     24  N   UNL     1      -4.098   4.320   7.234  0.00  0.00    -0.284 N 
ATOM     25  C   UNL     1      -3.014   4.520   6.459  0.00  0.00    +0.228 C 
ATOM     26  O   UNL     1      -2.208   5.378   6.753  0.00  0.00    -0.275 OA
ATOM     27  H   UNL     1      -4.775   3.679   6.965  0.00  0.00    +0.155 HD
BRANCH  24  32
ATOM     28  C   UNL     1      -4.703   7.224  12.071  0.00  0.00    +0.044 C 
ATOM     29  C   UNL     1      -4.542   6.452  10.787  0.00  0.00    -0.049 A 
ATOM     30  C   UNL     1      -3.945   7.051   9.692  0.00  0.00    +0.005 A 
ATOM     31  C   UNL     1      -3.796   6.347   8.514  0.00  0.00    +0.025 A 
ATOM     32  C   UNL     1      -4.247   5.036   8.428  0.00  0.00    +0.052 A 
ATOM     33  C   UNL     1      -4.851   4.439   9.527  0.00  0.00    +0.062 A 
ATOM     34  C   UNL     1      -4.992   5.148  10.705  0.00  0.00    +0.025 A 
ATOM     35 CL   UNL     1      -5.423   2.803   9.423  0.00  0.00    -0.082 Cl
ENDBRANCH  24  32
ENDBRANCH  23  25
ENDBRANCH  22  23
ENDBRANCH   1  22
TORSDOF 7
