REMARK  Name = ZINC40378678
REMARK  5 active torsions:
REMARK  status: ('A' for Active; 'I' for Inactive)
REMARK    1  A    between atoms: C_3  and  O_21
REMARK    2  A    between atoms: C_6  and  C_7
REMARK    3  A    between atoms: N_9  and  C_10
REMARK    4  A    between atoms: C_13  and  S_17
REMARK    5  A    between atoms: S_17  and  N_20
REMARK                            x       y       z     vdW  Elec       q    Type
REMARK                         _______ _______ _______ _____ _____    ______ ____
ROOT
ATOM      1  C   UNL     1      -2.413  -2.872   0.101  0.00  0.00    +0.048 A 
ATOM      2  C   UNL     1      -3.653  -2.247   0.105  0.00  0.00    +0.026 A 
ATOM      3  C   UNL     1      -4.805  -3.003   0.202  0.00  0.00    +0.030 A 
ATOM      4  C   UNL     1      -4.724  -4.381   0.295  0.00  0.00    +0.106 A 
ATOM      5  C   UNL     1      -3.491  -5.006   0.291  0.00  0.00    +0.045 A 
ATOM      6  C   UNL     1      -2.335  -4.256   0.189  0.00  0.00    +0.041 A 
ATOM      7 BR   UNL     1      -0.649  -5.113   0.175  0.00  0.00    -0.048 Br
ENDROOT
BRANCH   1  10
ATOM      8  C   UNL     1      -1.182  -0.894   0.583  0.00  0.00    +0.248 C 
ATOM      9  O   UNL     1      -2.167  -0.425   1.121  0.00  0.00    -0.270 OA
ATOM     10  N   UNL     1      -1.244  -2.109   0.003  0.00  0.00    -0.281 N 
ATOM     11  H   UNL     1      -0.479  -2.454  -0.482  0.00  0.00    +0.155 HD
BRANCH   8  17
ATOM     12  C   UNL     1       0.148   1.129   1.166  0.00  0.00    +0.016 A 
ATOM     13  C   UNL     1       1.329   1.836   1.148  0.00  0.00    +0.046 A 
ATOM     14  C   UNL     1       2.454   1.299   0.533  0.00  0.00    +0.117 A 
ATOM     15  C   UNL     1       2.392   0.046  -0.066  0.00  0.00    +0.046 A 
ATOM     16  C   UNL     1       1.214  -0.668  -0.052  0.00  0.00    +0.016 A 
ATOM     17  C   UNL     1       0.082  -0.132   0.565  0.00  0.00    +0.037 A 
BRANCH  14  18
ATOM     18  O   UNL     1       3.616   2.000   0.517  0.00  0.00    -0.507 OA
ATOM     19  H   UNL     1       4.190   1.827   1.276  0.00  0.00    +0.292 HD
ENDBRANCH  14  18
ENDBRANCH   8  17
ENDBRANCH   1  10
BRANCH   4  20
ATOM     20  S   UNL     1      -6.197  -5.341   0.419  0.00  0.00    +0.056 S 
ATOM     21  O   UNL     1      -5.832  -6.564   1.043  0.00  0.00    -0.153 OA
ATOM     22  O   UNL     1      -7.197  -4.483   0.951  0.00  0.00    -0.153 OA
BRANCH  20  23
ATOM     23  N   UNL     1      -6.667  -5.717  -1.123  0.00  0.00    -0.204 NA
ATOM     24  H   UNL     1      -6.144  -5.408  -1.879  0.00  0.00    +0.144 HD
ATOM     25  H   UNL     1      -7.466  -6.248  -1.271  0.00  0.00    +0.144 HD
ENDBRANCH  20  23
ENDBRANCH   4  20
TORSDOF 5
