REMARK  Name = ZINC09886742
REMARK  8 active torsions:
REMARK  status: ('A' for Active; 'I' for Inactive)
REMARK    1  A    between atoms: C_1  and  C_2
REMARK    2  A    between atoms: C_2  and  N_54
REMARK    3  A    between atoms: N_5  and  C_8
REMARK    4  A    between atoms: C_11  and  N_14
REMARK    5  A    between atoms: C_15  and  C_17
REMARK    6  A    between atoms: C_18  and  C_19
REMARK    7  A    between atoms: C_24  and  O_25
REMARK    8  A    between atoms: O_25  and  C_26
REMARK                            x       y       z     vdW  Elec       q    Type
REMARK                         _______ _______ _______ _____ _____    ______ ____
ROOT
ATOM      1  N   UNL     1      -2.983   3.445  -4.268  0.00  0.00    -0.282 N 
ATOM      2  C   UNL     1      -3.950   2.688  -4.825  0.00  0.00    +0.241 C 
ATOM      3  O   UNL     1      -4.237   1.611  -4.337  0.00  0.00    -0.270 OA
ATOM      4  H   UNL     1      -2.807   4.335  -4.610  0.00  0.00    +0.155 HD
ENDROOT
BRANCH   1   8
ATOM      5  C   UNL     1      -0.751   1.956  -1.076  0.00  0.00    +0.030 A 
ATOM      6  C   UNL     1      -1.199   1.097  -2.071  0.00  0.00    +0.025 A 
ATOM      7  C   UNL     1      -1.943   1.589  -3.124  0.00  0.00    +0.025 A 
ATOM      8  C   UNL     1      -2.233   2.945  -3.196  0.00  0.00    +0.034 A 
ATOM      9  C   UNL     1      -1.781   3.805  -2.204  0.00  0.00    +0.025 A 
ATOM     10  C   UNL     1      -1.042   3.312  -1.147  0.00  0.00    +0.025 A 
BRANCH   5  13
ATOM     11  C   UNL     1       0.940  -0.514   1.101  0.00  0.00    -0.060 C 
ATOM     12  C   UNL     1       0.187   0.004  -0.127  0.00  0.00    +0.086 C 
ATOM     13  N   UNL     1      -0.002   1.456  -0.005  0.00  0.00    -0.333 N 
ATOM     14  C   UNL     1       1.291   2.147   0.101  0.00  0.00    +0.086 C 
ATOM     15  C   UNL     1       2.044   1.629   1.329  0.00  0.00    -0.060 C 
ATOM     16  N   UNL     1       2.247   0.172   1.183  0.00  0.00    +0.382 N 
ATOM     17  H   UNL     1       2.773  -0.007   0.319  0.00  0.00    -0.082 HD
BRANCH  16  19
ATOM     18  C   UNL     1       4.443   0.209   2.262  0.00  0.00    -0.017 C 
ATOM     19  C   UNL     1       3.020  -0.348   2.331  0.00  0.00    -0.082 C 
ENDBRANCH  16  19
ENDBRANCH   5  13
ENDBRANCH   1   8
BRANCH   2  20
ATOM     20  C   UNL     1      -4.654   3.162  -6.016  0.00  0.00    +0.068 C 
ATOM     21  C   UNL     1      -5.622   2.405  -6.574  0.00  0.00    +0.016 C 
BRANCH  21  22
ATOM     22  C   UNL     1      -6.329   2.881  -7.770  0.00  0.00    +0.019 A 
ATOM     23  C   UNL     1      -6.007   4.122  -8.332  0.00  0.00    +0.027 A 
ATOM     24  C   UNL     1      -6.670   4.559  -9.458  0.00  0.00    +0.020 A 
ATOM     25  C   UNL     1      -7.665   3.781 -10.031  0.00  0.00    +0.034 A 
ATOM     26  C   UNL     1      -7.997   2.557  -9.483  0.00  0.00    +0.061 A 
ATOM     27  C   UNL     1      -7.337   2.097  -8.354  0.00  0.00    +0.141 A 
ATOM     28 BR   UNL     1      -9.356   1.506 -10.275  0.00  0.00    -0.046 Br
ATOM     29 BR   UNL     1      -6.227   6.232 -10.221  0.00  0.00    -0.050 Br
BRANCH  27  30
ATOM     30  O   UNL     1      -7.663   0.895  -7.816  0.00  0.00    -0.493 OA
ATOM     31  C   UNL     1      -8.688   0.886  -6.819  0.00  0.00    +0.277 C 
ENDBRANCH  27  30
ENDBRANCH  21  22
ENDBRANCH   2  20
TORSDOF 6
