REMARK  Name = ZINC20905440
REMARK  7 active torsions:
REMARK  status: ('A' for Active; 'I' for Inactive)
REMARK    1  A    between atoms: C_10  and  C_11
REMARK    2  A    between atoms: N_12  and  N_13
REMARK    3  A    between atoms: C_16  and  S_19
REMARK    4  A    between atoms: S_19  and  C_20
REMARK    5  A    between atoms: C_20  and  C_21
REMARK    6  A    between atoms: C_21  and  C_22
REMARK    7  A    between atoms: N_24  and  C_25
REMARK                            x       y       z     vdW  Elec       q    Type
REMARK                         _______ _______ _______ _____ _____    ______ ____
ROOT
ATOM      1  N   UNL     1       0.018   2.154   0.045  0.00  0.00    -0.205 N 
ATOM      2  C   UNL     1       1.183   1.400   0.048  0.00  0.00    +0.232 A 
ATOM      3  N   UNL     1       1.256   0.034   0.062  0.00  0.00    -0.186 NA
ATOM      4  C   UNL     1       2.575  -0.318   0.055  0.00  0.00    +0.210 A 
ATOM      5  N   UNL     1       3.289   0.783   0.037  0.00  0.00    -0.144 NA
ATOM      6  N   UNL     1       2.406   1.871   0.032  0.00  0.00    -0.245 N 
ATOM      7  H   UNL     1      -0.961   1.653   0.054  0.00  0.00    +0.177 HD
ATOM      8  H   UNL     1       2.577   2.957   0.019  0.00  0.00    +0.192 HD
ENDROOT
BRANCH   1  10
ATOM      9  C   UNL     1      -1.002   4.260   0.027  0.00  0.00    +0.139 C 
ATOM     10  N   UNL     1       0.090   3.553   0.030  0.00  0.00    -0.188 NA
BRANCH   9  20
ATOM     11  C   UNL     1       2.766   7.758  -0.384  0.00  0.00    +0.001 A 
ATOM     12  C   UNL     1       2.736   6.366  -0.372  0.00  0.00    +0.001 A 
ATOM     13  C   UNL     1       1.557   5.692  -0.246  0.00  0.00    +0.009 A 
ATOM     14  C   UNL     1       0.360   6.408  -0.127  0.00  0.00    -0.009 A 
ATOM     15  C   UNL     1       0.388   7.824  -0.138  0.00  0.00    -0.017 A 
ATOM     16  C   UNL     1       1.621   8.486  -0.269  0.00  0.00    +0.008 A 
ATOM     17  C   UNL     1      -0.816   8.539  -0.017  0.00  0.00    +0.008 A 
ATOM     18  C   UNL     1      -2.003   7.885   0.111  0.00  0.00    +0.001 A 
ATOM     19  C   UNL     1      -2.078   6.499   0.120  0.00  0.00    +0.010 A 
ATOM     20  C   UNL     1      -0.926   5.728   0.011  0.00  0.00    +0.002 A 
ENDBRANCH   9  20
ENDBRANCH   1  10
BRANCH   4  21
ATOM     21  S   UNL     1       3.208  -1.962   0.067  0.00  0.00    -0.084 S 
BRANCH  21  22
ATOM     22  C   UNL     1       4.985  -1.615   0.048  0.00  0.00    +0.086 C 
BRANCH  22  23
ATOM     23  C   UNL     1       5.762  -2.933   0.056  0.00  0.00    +0.107 C 
BRANCH  23  24
ATOM     24  C   UNL     1       7.241  -2.644   0.040  0.00  0.00    +0.218 C 
ATOM     25  O   UNL     1       7.635  -1.497   0.024  0.00  0.00    -0.275 OA
ATOM     26  N   UNL     1       8.126  -3.660   0.043  0.00  0.00    -0.285 N 
ATOM     27  H   UNL     1       7.772  -4.698   0.133  0.00  0.00    +0.155 HD
BRANCH  26  28
ATOM     28  C   UNL     1       9.493  -3.396  -0.068  0.00  0.00    +0.041 A 
ATOM     29  C   UNL     1      10.031  -2.264   0.505  0.00  0.00    +0.024 A 
ATOM     30  C   UNL     1      11.391  -1.992   0.401  0.00  0.00    +0.002 A 
ATOM     31  C   UNL     1      12.227  -2.833  -0.269  0.00  0.00    +0.008 A 
ATOM     32  C   UNL     1      11.719  -3.998  -0.867  0.00  0.00    -0.016 A 
ATOM     33  C   UNL     1      10.336  -4.289  -0.763  0.00  0.00    +0.003 A 
ATOM     34  C   UNL     1       9.829  -5.451  -1.365  0.00  0.00    +0.010 A 
ATOM     35  C   UNL     1      10.671  -6.287  -2.032  0.00  0.00    +0.001 A 
ATOM     36  C   UNL     1      12.032  -6.005  -2.131  0.00  0.00    +0.001 A 
ATOM     37  C   UNL     1      12.558  -4.885  -1.564  0.00  0.00    +0.008 A 
ENDBRANCH  26  28
ENDBRANCH  23  24
ENDBRANCH  22  23
ENDBRANCH  21  22
ENDBRANCH   4  21
TORSDOF 7
