REMARK  Name = ZINC39671038
REMARK  10 active torsions:
REMARK  status: ('A' for Active; 'I' for Inactive)
REMARK    1  A    between atoms: C_1  and  C_2
REMARK    2  A    between atoms: C_2  and  C_3
REMARK    3  A    between atoms: C_3  and  C_4
REMARK    4  A    between atoms: C_4  and  C_5
REMARK    5  A    between atoms: C_5  and  C_7
REMARK    6  A    between atoms: C_5  and  C_8
REMARK    7  A    between atoms: C_12  and  C_21
REMARK    8  A    between atoms: N_23  and  C_24
REMARK    9  A    between atoms: C_24  and  C_25
REMARK   10  A    between atoms: C_25  and  C_26
REMARK                            x       y       z     vdW  Elec       q    Type
REMARK                         _______ _______ _______ _____ _____    ______ ____
ROOT
ATOM      1  C   UNL     1       1.869  -4.283   2.456  0.00  0.00    +0.218 C 
ATOM      2  O   UNL     1       1.576  -4.956   1.490  0.00  0.00    -0.275 OA
ATOM      3  N   UNL     1       2.322  -4.876   3.578  0.00  0.00    -0.300 N 
ATOM      4  C   UNL     1       2.624  -4.241   4.883  0.00  0.00    +0.121 C 
ATOM      5  C   UNL     1       2.121  -5.254   5.936  0.00  0.00    +0.100 C 
ATOM      6  C   UNL     1       2.130  -6.610   5.211  0.00  0.00    -0.004 C 
ATOM      7  C   UNL     1       2.626  -6.312   3.788  0.00  0.00    +0.115 C 
ATOM      8  C   UNL     1       3.080  -7.577   5.911  0.00  0.00    -0.010 C 
ATOM      9  C   UNL     1       3.028  -8.936   5.207  0.00  0.00    -0.082 C 
ATOM     10  N   UNL     1       1.655  -9.456   5.243  0.00  0.00    +0.379 N 
ATOM     11  C   UNL     1       0.764  -8.567   4.488  0.00  0.00    -0.082 C 
ATOM     12  C   UNL     1       0.720  -7.192   5.161  0.00  0.00    -0.010 C 
ATOM     13  H   UNL     1       1.635 -10.377   4.833  0.00  0.00    -0.086 HD
ATOM     14  H   UNL     1       1.342  -9.509   6.200  0.00  0.00    -0.086 HD
ENDROOT
BRANCH   5  15
ATOM     15  C   UNL     1       3.050  -5.284   7.121  0.00  0.00    +0.218 C 
ATOM     16  O   UNL     1       4.227  -5.030   6.976  0.00  0.00    -0.275 OA
ATOM     17  N   UNL     1       2.574  -5.592   8.344  0.00  0.00    -0.315 N 
ATOM     18  H   UNL     1       1.632  -5.795   8.460  0.00  0.00    +0.149 HD
BRANCH  17  19
ATOM     19  C   UNL     1       3.477  -5.621   9.496  0.00  0.00    +0.112 C 
BRANCH  19  20
ATOM     20  C   UNL     1       2.689  -5.996  10.753  0.00  0.00    +0.093 C 
BRANCH  20  21
ATOM     21  C   UNL     1       3.619  -6.026  11.939  0.00  0.00    +0.106 A 
ATOM     22  C   UNL     1       3.896  -4.987  12.748  0.00  0.00    +0.044 A 
ATOM     23  C   UNL     1       4.808  -5.457  13.720  0.00  0.00    +0.041 A 
ATOM     24  C   UNL     1       5.034  -6.755  13.447  0.00  0.00    +0.195 A 
ATOM     25  O   UNL     1       4.307  -7.095  12.371  0.00  0.00    -0.468 OA
ENDBRANCH  20  21
ENDBRANCH  19  20
ENDBRANCH  17  19
ENDBRANCH   5  15
BRANCH   1  26
ATOM     26  C   UNL     1       1.727  -2.784   2.401  0.00  0.00    +0.072 C 
ATOM     27  C   UNL     1       0.320  -2.388   2.851  0.00  0.00    +0.017 C 
BRANCH  26  28
ATOM     28  C   UNL     1       1.959  -2.302   0.967  0.00  0.00    +0.012 C 
BRANCH  28  29
ATOM     29  C   UNL     1       1.938  -0.773   0.933  0.00  0.00    +0.000 C 
BRANCH  29  31
ATOM     30  C   UNL     1       2.149   1.238  -0.534  0.00  0.00    +0.004 C 
ATOM     31  C   UNL     1       2.170  -0.291  -0.500  0.00  0.00    -0.003 C 
ENDBRANCH  29  31
ENDBRANCH  28  29
ENDBRANCH  26  28
ENDBRANCH   1  26
TORSDOF 8
