REMARK  Name = ZINC57772680
REMARK  10 active torsions:
REMARK  status: ('A' for Active; 'I' for Inactive)
REMARK    1  A    between atoms: C_1  and  C_2
REMARK    2  A    between atoms: C_2  and  C_3
REMARK    3  A    between atoms: C_2  and  O_4
REMARK    4  A    between atoms: O_4  and  C_5
REMARK    5  A    between atoms: C_8  and  N_11
REMARK    6  A    between atoms: N_14  and  C_15
REMARK    7  A    between atoms: C_17  and  C_23
REMARK    8  A    between atoms: C_17  and  C_24
REMARK    9  A    between atoms: C_19  and  C_21
REMARK   10  A    between atoms: C_19  and  C_22
REMARK                            x       y       z     vdW  Elec       q    Type
REMARK                         _______ _______ _______ _____ _____    ______ ____
ROOT
ATOM      1  N   UNL     1      -2.316  -5.065  -3.680  0.00  0.00    -0.269 N 
ATOM      2  C   UNL     1      -3.560  -5.582  -3.715  0.00  0.00    +0.304 C 
ATOM      3  O   UNL     1      -4.476  -5.000  -3.167  0.00  0.00    -0.253 OA
ATOM      4  N   UNL     1      -3.790  -6.744  -4.358  0.00  0.00    -0.296 N 
ATOM      5  H   UNL     1      -1.573  -5.565  -4.053  0.00  0.00    +0.156 HD
ATOM      6  H   UNL     1      -3.059  -7.208  -4.796  0.00  0.00    +0.151 HD
ENDROOT
BRANCH   4   7
ATOM      7  C   UNL     1      -5.146  -7.307  -4.396  0.00  0.00    +0.072 C 
ATOM      8  C   UNL     1      -5.370  -8.162  -3.148  0.00  0.00    +0.009 C 
ATOM      9  C   UNL     1      -6.774  -8.765  -3.179  0.00  0.00    -0.072 C 
ATOM     10  N   UNL     1      -7.029  -9.498  -4.411  0.00  0.00    +0.386 N 
ATOM     11  C   UNL     1      -6.661  -8.860  -5.664  0.00  0.00    -0.072 C 
ATOM     12  C   UNL     1      -5.284  -8.205  -5.625  0.00  0.00    +0.009 C 
ATOM     13  C   UNL     1      -6.613  -9.962  -6.750  0.00  0.00    -0.010 C 
ATOM     14  C   UNL     1      -7.711  -7.839  -6.110  0.00  0.00    -0.010 C 
ATOM     15  C   UNL     1      -7.821  -7.681  -2.927  0.00  0.00    -0.010 C 
ATOM     16  C   UNL     1      -6.866  -9.772  -2.009  0.00  0.00    -0.010 C 
ATOM     17  H   UNL     1      -6.546 -10.398  -4.354  0.00  0.00    -0.084 HD
ATOM     18  H   UNL     1      -8.024  -9.729  -4.446  0.00  0.00    -0.084 HD
ENDBRANCH   4   7
BRANCH   1  22
ATOM     19  C   UNL     1      -1.661  -1.321  -1.964  0.00  0.00    +0.121 A 
ATOM     20  C   UNL     1      -2.854  -1.583  -2.622  0.00  0.00    +0.047 A 
ATOM     21  C   UNL     1      -3.071  -2.823  -3.190  0.00  0.00    +0.027 A 
ATOM     22  C   UNL     1      -2.096  -3.807  -3.104  0.00  0.00    +0.035 A 
ATOM     23  C   UNL     1      -0.901  -3.544  -2.446  0.00  0.00    +0.027 A 
ATOM     24  C   UNL     1      -0.683  -2.302  -1.883  0.00  0.00    +0.047 A 
BRANCH  19  25
ATOM     25  O   UNL     1      -1.447  -0.100  -1.405  0.00  0.00    -0.489 OA
BRANCH  25  27
ATOM     26  C   UNL     1       0.114   1.651  -0.826  0.00  0.00    +0.051 C 
ATOM     27  C   UNL     1      -0.150   0.144  -0.858  0.00  0.00    +0.167 C 
ATOM     28  C   UNL     1      -0.083  -0.415   0.565  0.00  0.00    +0.051 C 
ENDBRANCH  25  27
ENDBRANCH  19  25
ENDBRANCH   1  22
TORSDOF 4
