REMARK  Name = ZINC42962139
REMARK  9 active torsions:
REMARK  status: ('A' for Active; 'I' for Inactive)
REMARK    1  A    between atoms: C_1  and  C_2
REMARK    2  A    between atoms: C_5  and  C_25
REMARK    3  A    between atoms: N_8  and  C_10
REMARK    4  A    between atoms: C_10  and  C_11
REMARK    5  A    between atoms: C_11  and  C_12
REMARK    6  A    between atoms: C_12  and  C_13
REMARK    7  A    between atoms: C_13  and  N_14
REMARK    8  A    between atoms: N_17  and  C_18
REMARK    9  A    between atoms: C_21  and  O_24
REMARK                            x       y       z     vdW  Elec       q    Type
REMARK                         _______ _______ _______ _____ _____    ______ ____
ROOT
ATOM      1  N   UNL     1       6.033  -2.576   4.436  0.00  0.00    -0.299 N 
ATOM      2  C   UNL     1       7.352  -2.312   4.518  0.00  0.00    +0.300 C 
ATOM      3  O   UNL     1       7.900  -1.674   3.640  0.00  0.00    -0.253 OA
ATOM      4  N   UNL     1       8.063  -2.753   5.575  0.00  0.00    -0.297 N 
ATOM      5  H   UNL     1       5.596  -3.085   5.136  0.00  0.00    +0.150 HD
ATOM      6  H   UNL     1       7.626  -3.262   6.275  0.00  0.00    +0.151 HD
ENDROOT
BRANCH   4   7
ATOM      7  C   UNL     1       9.497  -2.465   5.665  0.00  0.00    +0.075 C 
ATOM      8  C   UNL     1       9.701  -1.084   6.291  0.00  0.00    +0.025 C 
ATOM      9  C   UNL     1      11.198  -0.784   6.385  0.00  0.00    +0.033 C 
ATOM     10  C   UNL     1      11.878  -1.844   7.254  0.00  0.00    +0.115 C 
ATOM     11  C   UNL     1      11.673  -3.224   6.628  0.00  0.00    +0.033 C 
ATOM     12  C   UNL     1      10.176  -3.525   6.534  0.00  0.00    +0.025 C 
BRANCH  10  13
ATOM     13  O   UNL     1      11.305  -1.825   8.563  0.00  0.00    -0.392 OA
ATOM     14  H   UNL     1      11.689  -2.473   9.170  0.00  0.00    +0.210 HD
ENDBRANCH  10  13
ENDBRANCH   4   7
BRANCH   1  15
ATOM     15  C   UNL     1       5.260  -2.096   3.288  0.00  0.00    +0.105 C 
BRANCH  15  16
ATOM     16  C   UNL     1       3.800  -2.529   3.438  0.00  0.00    +0.017 C 
BRANCH  16  17
ATOM     17  C   UNL     1       2.993  -2.028   2.239  0.00  0.00    -0.017 C 
BRANCH  17  18
ATOM     18  C   UNL     1       1.534  -2.461   2.390  0.00  0.00    -0.079 C 
BRANCH  18  24
ATOM     19  C   UNL     1      -0.019   1.526   0.010  0.00  0.00    +0.005 C 
ATOM     20  C   UNL     1       0.002  -0.004   0.002  0.00  0.00    -0.031 C 
ATOM     21  C   UNL     1      -1.434  -0.535   0.015  0.00  0.00    +0.003 C 
ATOM     22  C   UNL     1      -1.402  -2.064   0.086  0.00  0.00    -0.031 C 
ATOM     23  C   UNL     1      -0.613  -2.496   1.324  0.00  0.00    -0.076 C 
ATOM     24  N   UNL     1       0.758  -1.980   1.239  0.00  0.00    +0.380 N 
ATOM     25  C   UNL     1       0.740  -0.512   1.242  0.00  0.00    -0.076 C 
ATOM     26  C   UNL     1      -2.832  -2.602   0.177  0.00  0.00    +0.005 C 
ATOM     27  H   UNL     1       1.188  -2.307   0.386  0.00  0.00    -0.082 HD
ENDBRANCH  18  24
ENDBRANCH  17  18
ENDBRANCH  16  17
ENDBRANCH  15  16
ENDBRANCH   1  15
TORSDOF 7
