REMARK  Name = ZINC62389418
REMARK  10 active torsions:
REMARK  status: ('A' for Active; 'I' for Inactive)
REMARK    1  A    between atoms: C_1  and  N_2
REMARK    2  A    between atoms: N_2  and  C_3
REMARK    3  A    between atoms: N_2  and  C_4
REMARK    4  A    between atoms: C_4  and  C_5
REMARK    5  A    between atoms: C_5  and  N_6
REMARK    6  A    between atoms: N_6  and  C_7
REMARK    7  A    between atoms: C_7  and  C_8
REMARK    8  A    between atoms: N_18  and  C_19
REMARK    9  A    between atoms: C_24  and  C_25
REMARK   10  A    between atoms: C_25  and  C_26
REMARK                            x       y       z     vdW  Elec       q    Type
REMARK                         _______ _______ _______ _____ _____    ______ ____
ROOT
ATOM      1  N   UNL     1      -2.738  -2.528  -0.110  0.00  0.00    -0.283 N 
ATOM      2  C   UNL     1      -3.320  -2.875   1.056  0.00  0.00    +0.307 C 
ATOM      3  O   UNL     1      -4.458  -3.303   1.063  0.00  0.00    -0.252 OA
ATOM      4  N   UNL     1      -2.640  -2.747   2.212  0.00  0.00    -0.269 N 
ATOM      5  H   UNL     1      -1.707  -2.483   2.200  0.00  0.00    +0.156 HD
ENDROOT
BRANCH   4   6
ATOM      6  C   UNL     1      -3.281  -2.994   3.432  0.00  0.00    +0.038 A 
ATOM      7  C   UNL     1      -4.660  -2.864   3.532  0.00  0.00    +0.023 A 
ATOM      8  C   UNL     1      -5.290  -3.109   4.736  0.00  0.00    +0.002 A 
ATOM      9  C   UNL     1      -4.549  -3.484   5.842  0.00  0.00    +0.000 A 
ATOM     10  C   UNL     1      -3.176  -3.615   5.745  0.00  0.00    +0.006 A 
ATOM     11  C   UNL     1      -2.541  -3.377   4.542  0.00  0.00    -0.017 A 
BRANCH  11  12
ATOM     12  C   UNL     1      -1.045  -3.526   4.436  0.00  0.00    +0.132 C 
BRANCH  12  13
ATOM     13  C   UNL     1      -0.391  -2.184   4.642  0.00  0.00    +0.215 C 
ATOM     14  O   UNL     1      -1.072  -1.203   4.854  0.00  0.00    -0.276 OA
ATOM     15  N   UNL     1       0.952  -2.073   4.591  0.00  0.00    -0.329 N 
ATOM     16  H   UNL     1       1.497  -2.857   4.422  0.00  0.00    +0.145 HD
ATOM     17  H   UNL     1       1.373  -1.210   4.724  0.00  0.00    +0.145 HD
ENDBRANCH  12  13
ENDBRANCH  11  12
ENDBRANCH   4   6
BRANCH   1  18
ATOM     18  C   UNL     1      -1.367  -2.012  -0.119  0.00  0.00    +0.091 C 
BRANCH  18  19
ATOM     19  C   UNL     1      -1.394  -0.489   0.026  0.00  0.00    -0.060 C 
BRANCH  19  21
ATOM     20  C   UNL     1      -0.049   1.496   0.035  0.00  0.00    -0.097 C 
ATOM     21  N   UNL     1      -0.019   0.028   0.017  0.00  0.00    +0.377 N 
ATOM     22  C   UNL     1       0.696  -0.462   1.202  0.00  0.00    -0.097 C 
ATOM     23  H   UNL     1       0.454  -0.289  -0.816  0.00  0.00    -0.083 HD
ENDBRANCH  19  21
ENDBRANCH  18  19
ENDBRANCH   1  18
BRANCH   1  24
ATOM     24  C   UNL     1      -3.477  -2.667  -1.367  0.00  0.00    +0.144 C 
BRANCH  24  25
ATOM     25  C   UNL     1      -3.233  -4.038  -1.944  0.00  0.00    -0.027 A 
ATOM     26  C   UNL     1      -2.172  -4.246  -2.806  0.00  0.00    +0.008 A 
ATOM     27  C   UNL     1      -1.946  -5.503  -3.336  0.00  0.00    +0.041 A 
ATOM     28  C   UNL     1      -2.783  -6.554  -3.004  0.00  0.00    +0.158 A 
ATOM     29  C   UNL     1      -3.846  -6.346  -2.139  0.00  0.00    +0.159 A 
ATOM     30  C   UNL     1      -4.067  -5.088  -1.606  0.00  0.00    +0.046 A 
ATOM     31  F   UNL     1      -4.664  -7.371  -1.814  0.00  0.00    -0.202 F 
ATOM     32  F   UNL     1      -2.563  -7.783  -3.522  0.00  0.00    -0.202 F 
ENDBRANCH  24  25
ENDBRANCH   1  24
TORSDOF 8
