REMARK  Name = ZINC35664442
REMARK  13 active torsions:
REMARK  status: ('A' for Active; 'I' for Inactive)
REMARK    1  A    between atoms: C_1  and  C_2
REMARK    2  A    between atoms: C_2  and  O_3
REMARK    3  A    between atoms: O_3  and  C_4
REMARK    4  A    between atoms: C_4  and  C_6
REMARK    5  A    between atoms: C_7  and  C_22
REMARK    6  A    between atoms: N_8  and  C_19
REMARK    7  A    between atoms: C_12  and  C_14
REMARK    8  A    between atoms: C_19  and  C_20
REMARK    9  A    between atoms: C_22  and  N_23
REMARK   10  A    between atoms: N_32  and  C_33
REMARK   11  A    between atoms: C_33  and  C_34
REMARK   12  A    between atoms: C_33  and  C_35
REMARK   13  A    between atoms: C_33  and  C_36
REMARK                            x       y       z     vdW  Elec       q    Type
REMARK                         _______ _______ _______ _____ _____    ______ ____
ROOT
ATOM      1  C   UNL     1      -3.819  -4.540  -0.773  0.00  0.00    +0.076 C 
ATOM      2  C   UNL     1      -2.848  -4.035   0.017  0.00  0.00    +0.011 C 
ATOM      3  N   UNL     1      -2.998  -2.825   0.632  0.00  0.00    -0.257 N 
ATOM      4  C   UNL     1      -4.090  -2.059   0.508  0.00  0.00    +0.307 C 
ATOM      5  O   UNL     1      -4.132  -0.995   1.095  0.00  0.00    -0.252 OA
ATOM      6  N   UNL     1      -5.143  -2.429  -0.247  0.00  0.00    -0.288 N 
ATOM      7  C   UNL     1      -5.078  -3.716  -0.959  0.00  0.00    +0.144 C 
ATOM      8  H   UNL     1      -5.924  -1.859  -0.324  0.00  0.00    +0.151 HD
ENDROOT
BRANCH   7   9
ATOM      9  C   UNL     1      -5.244  -3.448  -2.432  0.00  0.00    -0.015 A 
ATOM     10  C   UNL     1      -6.127  -4.198  -3.187  0.00  0.00    +0.013 A 
ATOM     11  C   UNL     1      -6.253  -3.930  -4.510  0.00  0.00    +0.045 A 
ATOM     12  S   UNL     1      -5.102  -2.583  -4.725  0.00  0.00    -0.105 S 
ATOM     13  C   UNL     1      -4.535  -2.464  -3.037  0.00  0.00    +0.051 A 
ENDBRANCH   7   9
BRANCH   1  14
ATOM     14  C   UNL     1      -3.665  -5.793  -1.412  0.00  0.00    +0.339 C 
ATOM     15  O   UNL     1      -2.603  -6.384  -1.343  0.00  0.00    -0.245 OA
BRANCH  14  16
ATOM     16  O   UNL     1      -4.695  -6.333  -2.096  0.00  0.00    -0.462 OA
BRANCH  16  18
ATOM     17  C   UNL     1      -5.739  -8.049  -3.439  0.00  0.00    +0.048 C 
ATOM     18  C   UNL     1      -4.468  -7.601  -2.716  0.00  0.00    +0.229 C 
ENDBRANCH  16  18
ENDBRANCH  14  16
ENDBRANCH   1  14
BRANCH   3  19
ATOM     19  C   UNL     1      -1.905  -2.337   1.476  0.00  0.00    +0.141 C 
BRANCH  19  20
ATOM     20  C   UNL     1      -1.006  -1.440   0.664  0.00  0.00    -0.015 C 
ATOM     21  C   UNL     1      -0.761  -0.218   1.069  0.00  0.00    +0.005 C 
ENDBRANCH  19  20
ENDBRANCH   3  19
BRANCH   2  22
ATOM     22  C   UNL     1      -1.578  -4.819   0.224  0.00  0.00    -0.026 C 
BRANCH  22  23
ATOM     23  N   UNL     1      -1.696  -5.628   1.444  0.00  0.00    +0.384 N 
ATOM     24  C   UNL     1      -0.378  -6.171   1.766  0.00  0.00    -0.077 C 
ATOM     25  C   UNL     1      -0.269  -6.362   3.263  0.00  0.00    +0.000 C 
ATOM     26  C   UNL     1      -0.672  -7.802   3.627  0.00  0.00    +0.107 C 
ATOM     27  N   UNL     1      -1.829  -8.249   2.825  0.00  0.00    -0.287 N 
ATOM     28  C   UNL     1      -2.958  -7.386   2.546  0.00  0.00    +0.091 C 
ATOM     29  C   UNL     1      -2.705  -6.596   1.242  0.00  0.00    -0.059 C 
ATOM     30  C   UNL     1      -1.833  -9.504   2.334  0.00  0.00    +0.303 C 
ATOM     31  O   UNL     1      -0.940 -10.275   2.629  0.00  0.00    -0.253 OA
ATOM     32  N   UNL     1      -2.827  -9.905   1.517  0.00  0.00    -0.294 N 
ATOM     33  H   UNL     1      -3.499  -9.270   1.224  0.00  0.00    +0.151 HD
ATOM     34  H   UNL     1      -1.982  -5.023   2.200  0.00  0.00    -0.081 HD
BRANCH  32  35
ATOM     35  C   UNL     1      -2.893 -11.299   1.072  0.00  0.00    +0.028 C 
ATOM     36  C   UNL     1      -3.022 -12.217   2.289  0.00  0.00    +0.031 C 
ATOM     37  C   UNL     1      -4.107 -11.486   0.160  0.00  0.00    +0.031 C 
ATOM     38  C   UNL     1      -1.617 -11.649   0.302  0.00  0.00    +0.031 C 
ENDBRANCH  32  35
ENDBRANCH  22  23
ENDBRANCH   2  22
TORSDOF 9
