REMARK  Name = ZINC20833981
REMARK  15 active torsions:
REMARK  status: ('A' for Active; 'I' for Inactive)
REMARK    1  A    between atoms: C_1  and  C_2
REMARK    2  A    between atoms: C_2  and  C_25
REMARK    3  A    between atoms: N_3  and  N_4
REMARK    4  A    between atoms: C_7  and  S_10
REMARK    5  A    between atoms: S_10  and  C_11
REMARK    6  A    between atoms: C_11  and  C_12
REMARK    7  A    between atoms: N_14  and  C_15
REMARK    8  A    between atoms: C_17  and  C_23
REMARK    9  A    between atoms: C_17  and  C_24
REMARK   10  A    between atoms: C_19  and  C_21
REMARK   11  A    between atoms: C_19  and  C_22
REMARK   12  A    between atoms: C_28  and  O_33
REMARK   13  A    between atoms: C_29  and  O_31
REMARK   14  A    between atoms: O_31  and  C_32
REMARK   15  A    between atoms: O_33  and  C_34
REMARK                            x       y       z     vdW  Elec       q    Type
REMARK                         _______ _______ _______ _____ _____    ______ ____
ROOT
ATOM      1  N   UNL     1      -0.021   0.060  -2.336  0.00  0.00    -0.205 N 
ATOM      2  C   UNL     1      -0.023  -0.627  -3.541  0.00  0.00    +0.232 A 
ATOM      3  N   UNL     1      -0.043  -0.065  -4.787  0.00  0.00    -0.186 NA
ATOM      4  C   UNL     1      -0.037  -1.075  -5.706  0.00  0.00    +0.211 A 
ATOM      5  N   UNL     1      -0.016  -2.214  -5.057  0.00  0.00    -0.144 NA
ATOM      6  N   UNL     1      -0.001  -1.930  -3.685  0.00  0.00    -0.245 N 
ATOM      7  H   UNL     1      -0.036   1.160  -2.329  0.00  0.00    +0.177 HD
ATOM      8  H   UNL     1       0.024  -2.582  -2.799  0.00  0.00    +0.192 HD
ENDROOT
BRANCH   1  11
ATOM      9  C   UNL     1      -0.018   1.503   0.010  0.00  0.00    +0.068 C 
ATOM     10  C   UNL     1       0.002  -0.004   0.002  0.00  0.00    +0.063 C 
ATOM     11  N   UNL     1       0.000  -0.647  -1.126  0.00  0.00    -0.184 NA
BRANCH  10  12
ATOM     12  C   UNL     1       0.024  -0.748   1.274  0.00  0.00    +0.001 A 
ATOM     13  C   UNL     1       0.026  -0.058   2.489  0.00  0.00    +0.013 A 
ATOM     14  C   UNL     1       0.047  -0.756   3.679  0.00  0.00    +0.050 A 
ATOM     15  C   UNL     1       0.065  -2.143   3.673  0.00  0.00    +0.162 A 
ATOM     16  C   UNL     1       0.062  -2.837   2.465  0.00  0.00    +0.162 A 
ATOM     17  C   UNL     1       0.037  -2.145   1.269  0.00  0.00    +0.059 A 
BRANCH  16  18
ATOM     18  O   UNL     1       0.079  -4.197   2.464  0.00  0.00    -0.491 OA
ATOM     19  C   UNL     1       0.076  -4.845   1.190  0.00  0.00    +0.277 C 
ENDBRANCH  16  18
BRANCH  15  20
ATOM     20  O   UNL     1       0.084  -2.826   4.848  0.00  0.00    -0.491 OA
ATOM     21  C   UNL     1       0.085  -2.051   6.049  0.00  0.00    +0.277 C 
ENDBRANCH  15  20
ENDBRANCH  10  12
ENDBRANCH   1  11
BRANCH   4  22
ATOM     22  S   UNL     1      -0.056  -0.881  -7.457  0.00  0.00    -0.075 S 
BRANCH  22  23
ATOM     23  C   UNL     1      -0.039  -2.582  -8.087  0.00  0.00    +0.173 C 
BRANCH  23  24
ATOM     24  C   UNL     1      -0.053  -2.560  -9.594  0.00  0.00    +0.224 C 
ATOM     25  O   UNL     1      -0.073  -1.501 -10.185  0.00  0.00    -0.275 OA
ATOM     26  N   UNL     1      -0.044  -3.717 -10.285  0.00  0.00    -0.312 N 
ATOM     27  H   UNL     1      -0.026  -4.678  -9.749  0.00  0.00    +0.149 HD
BRANCH  26  28
ATOM     28  C   UNL     1      -0.058  -3.696 -11.753  0.00  0.00    +0.070 C 
ATOM     29  C   UNL     1      -1.504  -3.618 -12.242  0.00  0.00    +0.009 C 
ATOM     30  C   UNL     1      -1.551  -3.617 -13.768  0.00  0.00    -0.072 C 
ATOM     31  N   UNL     1      -0.754  -4.672 -14.359  0.00  0.00    +0.386 N 
ATOM     32  C   UNL     1       0.544  -5.002 -13.808  0.00  0.00    -0.072 C 
ATOM     33  C   UNL     1       0.564  -4.988 -12.282  0.00  0.00    +0.009 C 
ATOM     34  C   UNL     1       1.629  -4.060 -14.344  0.00  0.00    -0.010 C 
ATOM     35  C   UNL     1       0.913  -6.431 -14.265  0.00  0.00    -0.010 C 
ATOM     36  C   UNL     1      -1.125  -2.241 -14.293  0.00  0.00    -0.010 C 
ATOM     37  C   UNL     1      -3.022  -3.831 -14.189  0.00  0.00    -0.010 C 
ATOM     38  H   UNL     1      -1.309  -5.620 -14.311  0.00  0.00    -0.084 HD
ATOM     39  H   UNL     1      -0.539  -4.425 -15.409  0.00  0.00    -0.084 HD
ENDBRANCH  26  28
ENDBRANCH  23  24
ENDBRANCH  22  23
ENDBRANCH   4  22
TORSDOF 8
