REMARK  Name = ZINC08817459
REMARK  11 active torsions:
REMARK  status: ('A' for Active; 'I' for Inactive)
REMARK    1  A    between atoms: C_1  and  N_55
REMARK    2  A    between atoms: C_2  and  N_55
REMARK    3  A    between atoms: C_3  and  C_4
REMARK    4  A    between atoms: C_3  and  N_55
REMARK    5  A    between atoms: C_4  and  C_5
REMARK    6  A    between atoms: C_5  and  N_6
REMARK    7  A    between atoms: C_7  and  C_25
REMARK    8  A    between atoms: C_10  and  C_11
REMARK    9  A    between atoms: C_10  and  O_20
REMARK   10  A    between atoms: C_14  and  O_18
REMARK   11  A    between atoms: O_18  and  C_19
REMARK                            x       y       z     vdW  Elec       q    Type
REMARK                         _______ _______ _______ _____ _____    ______ ____
ROOT
ATOM      1  N   UNL     1      -1.179   0.953  -1.077  0.00  0.00    -0.284 N 
ATOM      2  C   UNL     1      -0.228   0.808   0.029  0.00  0.00    +0.144 C 
ATOM      3  C   UNL     1      -0.928   1.309   1.271  0.00  0.00    +0.071 C 
ATOM      4  C   UNL     1      -0.412   1.360   2.551  0.00  0.00    +0.133 C 
ATOM      5  C   UNL     1      -2.210   1.709   0.861  0.00  0.00    +0.249 C 
ATOM      6  O   UNL     1      -3.078   2.172   1.579  0.00  0.00    -0.282 OA
ATOM      7  C   UNL     1      -2.324   1.472  -0.604  0.00  0.00    +0.288 C 
ATOM      8  O   UNL     1      -3.308   1.712  -1.273  0.00  0.00    -0.266 OA
ENDROOT
BRANCH   4   9
ATOM      9  C   UNL     1      -1.174   2.014   3.626  0.00  0.00    +0.019 A 
ATOM     10  C   UNL     1      -1.671   3.311   3.446  0.00  0.00    +0.015 A 
ATOM     11  C   UNL     1      -2.387   3.916   4.453  0.00  0.00    +0.048 A 
ATOM     12  C   UNL     1      -2.609   3.248   5.652  0.00  0.00    +0.138 A 
ATOM     13  C   UNL     1      -2.113   1.960   5.838  0.00  0.00    +0.083 A 
ATOM     14  C   UNL     1      -1.400   1.344   4.834  0.00  0.00    +0.035 A 
ATOM     15 CL   UNL     1      -2.395   1.132   7.337  0.00  0.00    -0.080 Cl
BRANCH  12  16
ATOM     16  O   UNL     1      -3.312   3.852   6.643  0.00  0.00    -0.494 OA
ATOM     17  C   UNL     1      -3.792   5.173   6.386  0.00  0.00    +0.277 C 
ENDBRANCH  12  16
ENDBRANCH   4   9
BRANCH   2  18
ATOM     18  C   UNL     1       1.003   1.635  -0.238  0.00  0.00    -0.022 A 
ATOM     19  C   UNL     1       0.884   2.885  -0.817  0.00  0.00    +0.007 A 
ATOM     20  C   UNL     1       2.013   3.646  -1.057  0.00  0.00    +0.015 A 
ATOM     21  C   UNL     1       3.262   3.152  -0.728  0.00  0.00    +0.018 A 
ATOM     22  C   UNL     1       3.381   1.899  -0.154  0.00  0.00    +0.015 A 
ATOM     23  C   UNL     1       2.252   1.141   0.091  0.00  0.00    +0.007 A 
ATOM     24 BR   UNL     1       4.808   4.190  -1.063  0.00  0.00    -0.050 Br
ENDBRANCH   2  18
BRANCH   4  25
ATOM     25  O   UNL     1       0.793   0.810   2.815  0.00  0.00    -0.506 OA
ATOM     26  H   UNL     1       1.012   0.937   3.783  0.00  0.00    +0.292 HD
ENDBRANCH   4  25
BRANCH   1  27
ATOM     27  C   UNL     1      -0.923   0.590  -2.474  0.00  0.00    +0.107 C 
BRANCH  27  28
ATOM     28  C   UNL     1      -1.332  -0.866  -2.705  0.00  0.00    +0.000 C 
BRANCH  28  29
ATOM     29  C   UNL     1      -1.064  -1.246  -4.163  0.00  0.00    -0.078 C 
BRANCH  29  32
ATOM     30  C   UNL     1      -2.909  -2.812  -4.241  0.00  0.00    -0.097 C 
ATOM     31  C   UNL     1      -0.999  -3.116  -5.699  0.00  0.00    -0.097 C 
ATOM     32  N   UNL     1      -1.444  -2.660  -4.365  0.00  0.00    +0.376 N 
ATOM     33  H   UNL     1      -0.987  -3.234  -3.647  0.00  0.00    -0.083 HD
ENDBRANCH  29  32
ENDBRANCH  28  29
ENDBRANCH  27  28
ENDBRANCH   1  27
TORSDOF 8
