REMARK  Name = ZINC38725606
REMARK  14 active torsions:
REMARK  status: ('A' for Active; 'I' for Inactive)
REMARK    1  A    between atoms: C_1  and  N_2
REMARK    2  A    between atoms: N_2  and  C_3
REMARK    3  A    between atoms: N_2  and  C_4
REMARK    4  A    between atoms: C_4  and  C_5
REMARK    5  A    between atoms: C_5  and  C_6
REMARK    6  A    between atoms: C_6  and  N_7
REMARK    7  A    between atoms: C_8  and  C_25
REMARK    8  A    between atoms: C_16  and  O_23
REMARK    9  A    between atoms: O_23  and  C_24
REMARK   10  A    between atoms: C_28  and  O_33
REMARK   11  A    between atoms: C_29  and  O_31
REMARK   12  A    between atoms: O_31  and  C_32
REMARK   13  A    between atoms: O_33  and  C_34
REMARK   14  A    between atoms: C_34  and  C_35
REMARK                            x       y       z     vdW  Elec       q    Type
REMARK                         _______ _______ _______ _____ _____    ______ ____
ROOT
ATOM      1  N   UNL     1      -2.777  -4.025  -0.239  0.00  0.00    -0.284 N 
ATOM      2  C   UNL     1      -2.808  -4.783  -1.501  0.00  0.00    +0.145 C 
ATOM      3  C   UNL     1      -2.776  -6.225  -1.111  0.00  0.00    +0.072 A 
ATOM      4  C   UNL     1      -2.796  -7.446  -1.923  0.00  0.00    +0.199 A 
ATOM      5  O   UNL     1      -2.668  -7.443  -3.135  0.00  0.00    -0.287 OA
ATOM      6  C   UNL     1      -2.986  -8.684  -1.130  0.00  0.00    +0.065 A 
ATOM      7  C   UNL     1      -3.226  -9.902  -1.770  0.00  0.00    +0.019 A 
ATOM      8  C   UNL     1      -3.404 -11.034  -1.028  0.00  0.00    +0.046 A 
ATOM      9  C   UNL     1      -3.346 -10.976   0.364  0.00  0.00    +0.124 A 
ATOM     10  C   UNL     1      -3.108  -9.777   1.011  0.00  0.00    +0.092 A 
ATOM     11  C   UNL     1      -2.922  -8.612   0.272  0.00  0.00    +0.143 A 
ATOM     12  O   UNL     1      -2.680  -7.453   0.926  0.00  0.00    -0.449 OA
ATOM     13  C   UNL     1      -2.726  -6.286   0.252  0.00  0.00    +0.199 A 
ATOM     14  C   UNL     1      -2.724  -4.910   0.778  0.00  0.00    +0.283 C 
ATOM     15  O   UNL     1      -2.684  -4.615   1.956  0.00  0.00    -0.267 OA
ENDROOT
BRANCH   2  16
ATOM     16  C   UNL     1      -4.073  -4.476  -2.260  0.00  0.00    -0.019 A 
ATOM     17  C   UNL     1      -5.270  -4.340  -1.581  0.00  0.00    +0.009 A 
ATOM     18  C   UNL     1      -6.433  -4.058  -2.273  0.00  0.00    +0.050 A 
ATOM     19  C   UNL     1      -6.401  -3.912  -3.651  0.00  0.00    +0.162 A 
ATOM     20  C   UNL     1      -5.197  -4.049  -4.334  0.00  0.00    +0.162 A 
ATOM     21  C   UNL     1      -4.034  -4.327  -3.634  0.00  0.00    +0.055 A 
BRANCH  20  22
ATOM     22  O   UNL     1      -5.160  -3.906  -5.686  0.00  0.00    -0.491 OA
ATOM     23  C   UNL     1      -3.889  -4.061  -6.321  0.00  0.00    +0.277 C 
ENDBRANCH  20  22
BRANCH  19  24
ATOM     24  O   UNL     1      -7.544  -3.635  -4.333  0.00  0.00    -0.484 OA
BRANCH  24  25
ATOM     25  C   UNL     1      -8.743  -3.509  -3.566  0.00  0.00    +0.264 C 
BRANCH  25  26
ATOM     26  C   UNL     1      -9.898  -3.204  -4.485  0.00  0.00    -0.010 A 
ATOM     27  C   UNL     1     -10.218  -1.893  -4.782  0.00  0.00    +0.007 A 
ATOM     28  C   UNL     1     -11.277  -1.613  -5.625  0.00  0.00    +0.000 A 
ATOM     29  C   UNL     1     -12.016  -2.645  -6.172  0.00  0.00    +0.000 A 
ATOM     30  C   UNL     1     -11.696  -3.957  -5.876  0.00  0.00    +0.000 A 
ATOM     31  C   UNL     1     -10.634  -4.237  -5.036  0.00  0.00    +0.007 A 
ENDBRANCH  25  26
ENDBRANCH  24  25
ENDBRANCH  19  24
ENDBRANCH   2  16
BRANCH   9  32
ATOM     32  O   UNL     1      -3.527 -12.108   1.091  0.00  0.00    -0.495 OA
ATOM     33  C   UNL     1      -3.770 -13.314   0.364  0.00  0.00    +0.277 C 
ENDBRANCH   9  32
BRANCH   1  34
ATOM     34  C   UNL     1      -2.794  -2.566  -0.111  0.00  0.00    +0.107 C 
BRANCH  34  35
ATOM     35  C   UNL     1      -1.358  -2.037  -0.122  0.00  0.00    +0.000 C 
BRANCH  35  36
ATOM     36  C   UNL     1      -1.376  -0.512   0.012  0.00  0.00    -0.078 C 
BRANCH  36  38
ATOM     37  C   UNL     1      -0.018   1.465   0.010  0.00  0.00    -0.097 C 
ATOM     38  N   UNL     1       0.002  -0.004   0.002  0.00  0.00    +0.376 N 
ATOM     39  C   UNL     1       0.713  -0.491   1.192  0.00  0.00    -0.097 C 
ATOM     40  H   UNL     1       0.474  -0.330  -0.828  0.00  0.00    -0.083 HD
ENDBRANCH  36  38
ENDBRANCH  35  36
ENDBRANCH  34  35
ENDBRANCH   1  34
TORSDOF 10
