REMARK  Name = ZINC55888317
REMARK  7 active torsions:
REMARK  status: ('A' for Active; 'I' for Inactive)
REMARK    1  A    between atoms: C_1  and  C_2
REMARK    2  A    between atoms: C_7  and  C_27
REMARK    3  A    between atoms: C_10  and  C_12
REMARK    4  A    between atoms: C_12  and  N_13
REMARK    5  A    between atoms: N_13  and  C_14
REMARK    6  A    between atoms: C_19  and  N_20
REMARK    7  A    between atoms: C_23  and  O_26
REMARK                            x       y       z     vdW  Elec       q    Type
REMARK                         _______ _______ _______ _____ _____    ______ ____
ROOT
ATOM      1  C   UNL     1       3.946   0.735   4.715  0.00  0.00    +0.047 A 
ATOM      2  C   UNL     1       4.313  -0.567   5.036  0.00  0.00    +0.025 A 
ATOM      3  C   UNL     1       5.187  -0.798   6.079  0.00  0.00    +0.002 A 
ATOM      4  C   UNL     1       5.697   0.263   6.805  0.00  0.00    +0.002 A 
ATOM      5  C   UNL     1       5.334   1.559   6.488  0.00  0.00    +0.023 A 
ATOM      6  C   UNL     1       4.465   1.798   5.442  0.00  0.00    +0.035 A 
ENDROOT
BRANCH   6   7
ATOM      7  N   UNL     1       4.102   3.109   5.118  0.00  0.00    -0.392 NA
ATOM      8  C   UNL     1       5.311   3.898   4.853  0.00  0.00    +0.087 C 
ATOM      9  C   UNL     1       4.918   5.312   4.420  0.00  0.00    +0.048 C 
ATOM     10  C   UNL     1       4.109   5.976   5.537  0.00  0.00    +0.117 C 
ATOM     11  C   UNL     1       2.889   5.106   5.857  0.00  0.00    +0.048 C 
ATOM     12  C   UNL     1       3.358   3.700   6.237  0.00  0.00    +0.087 C 
ATOM     13  H   UNL     1       3.520   3.103   4.295  0.00  0.00    +0.126 HD
BRANCH  10  14
ATOM     14  O   UNL     1       3.675   7.269   5.110  0.00  0.00    -0.392 OA
ATOM     15  H   UNL     1       3.155   7.747   5.771  0.00  0.00    +0.210 HD
ENDBRANCH  10  14
ENDBRANCH   6   7
BRANCH   1  16
ATOM     16  N   UNL     1       3.063   0.972   3.659  0.00  0.00    -0.334 N 
ATOM     17  H   UNL     1       2.870   1.882   3.383  0.00  0.00    +0.147 HD
BRANCH  16  18
ATOM     18  C   UNL     1       2.426  -0.152   2.969  0.00  0.00    +0.197 C 
BRANCH  18  26
ATOM     19  C   UNL     1       0.020   1.529  -0.021  0.00  0.00    +0.028 C 
ATOM     20  C   UNL     1       0.034  -0.001  -0.025  0.00  0.00    +0.073 C 
ATOM     21  C   UNL     1      -1.397  -0.528   0.114  0.00  0.00    +0.022 C 
ATOM     22  C   UNL     1      -1.365  -2.052   0.249  0.00  0.00    +0.004 C 
ATOM     23  C   UNL     1      -0.584  -2.438   1.507  0.00  0.00    +0.022 C 
ATOM     24  C   UNL     1       0.857  -1.932   1.384  0.00  0.00    +0.073 C 
ATOM     25  N   UNL     1       0.833  -0.489   1.107  0.00  0.00    -0.295 N 
ATOM     26  C   UNL     1       1.527   0.371   1.879  0.00  0.00    +0.233 C 
ATOM     27  O   UNL     1       1.427   1.566   1.697  0.00  0.00    -0.274 OA
ATOM     28  C   UNL     1       1.561  -2.662   0.239  0.00  0.00    +0.028 C 
ENDBRANCH  18  26
ENDBRANCH  16  18
ENDBRANCH   1  16
TORSDOF 5
