REMARK  Name = ZINC03007160
REMARK  11 active torsions:
REMARK  status: ('A' for Active; 'I' for Inactive)
REMARK    1  A    between atoms: C_1  and  C_2
REMARK    2  A    between atoms: C_2  and  O_3
REMARK    3  A    between atoms: O_3  and  C_4
REMARK    4  A    between atoms: C_4  and  C_6
REMARK    5  A    between atoms: C_10  and  N_11
REMARK    6  A    between atoms: C_12  and  C_14
REMARK    7  A    between atoms: C_17  and  S_20
REMARK    8  A    between atoms: S_20  and  N_23
REMARK    9  A    between atoms: C_32  and  C_33
REMARK   10  A    between atoms: C_32  and  C_34
REMARK   11  A    between atoms: C_32  and  N_68
REMARK                            x       y       z     vdW  Elec       q    Type
REMARK                         _______ _______ _______ _____ _____    ______ ____
ROOT
ATOM      1  N   UNL     1       1.468   2.083   2.486  0.00  0.00    -0.275 N 
ATOM      2  C   UNL     1       2.215   2.522   3.518  0.00  0.00    +0.249 C 
ATOM      3  O   UNL     1       3.244   3.135   3.307  0.00  0.00    -0.270 OA
ATOM      4  H   UNL     1       0.648   1.594   2.655  0.00  0.00    +0.156 HD
ENDROOT
BRANCH   1   9
ATOM      5  C   UNL     1       1.244   1.962   0.001  0.00  0.00    +0.091 A 
ATOM      6  C   UNL     1       1.879   2.354  -1.243  0.00  0.00    -0.025 A 
ATOM      7  C   UNL     1       3.036   3.041  -1.109  0.00  0.00    -0.021 A 
ATOM      8  S   UNL     1       3.285   3.171   0.637  0.00  0.00    -0.079 S 
ATOM      9  C   UNL     1       1.872   2.330   1.185  0.00  0.00    +0.086 A 
ATOM     10  C   UNL     1       3.894   3.562  -2.220  0.00  0.00    -0.035 C 
ATOM     11  C   UNL     1       2.016   2.977  -3.634  0.00  0.00    -0.073 C 
ATOM     12  C   UNL     1       1.329   2.045  -2.631  0.00  0.00    +0.018 C 
ATOM     13  N   UNL     1       3.481   2.879  -3.470  0.00  0.00    +0.384 N 
ATOM     14  H   UNL     1       3.746   1.889  -3.414  0.00  0.00    -0.081 HD
BRANCH  13  15
ATOM     15  C   UNL     1       4.162   3.494  -4.630  0.00  0.00    -0.074 C 
ATOM     16  C   UNL     1       5.669   3.515  -4.372  0.00  0.00    -0.014 C 
ATOM     17  C   UNL     1       3.869   2.656  -5.877  0.00  0.00    -0.014 C 
ENDBRANCH  13  15
BRANCH   5  18
ATOM     18  C   UNL     1      -0.014   1.212   0.009  0.00  0.00    +0.342 C 
ATOM     19  O   UNL     1       0.002  -0.004   0.002  0.00  0.00    -0.245 OA
BRANCH  18  20
ATOM     20  O   UNL     1      -1.192   1.871   0.018  0.00  0.00    -0.461 OA
BRANCH  20  22
ATOM     21  C   UNL     1      -3.624   1.979   0.030  0.00  0.00    +0.048 C 
ATOM     22  C   UNL     1      -2.398   1.063   0.019  0.00  0.00    +0.229 C 
ENDBRANCH  20  22
ENDBRANCH  18  20
ENDBRANCH   5  18
ENDBRANCH   1   9
BRANCH   2  23
ATOM     23  C   UNL     1       1.784   2.259   4.907  0.00  0.00    +0.037 A 
ATOM     24  C   UNL     1       0.601   1.560   5.154  0.00  0.00    +0.015 A 
ATOM     25  C   UNL     1       0.207   1.313   6.452  0.00  0.00    +0.029 A 
ATOM     26  C   UNL     1       0.977   1.765   7.510  0.00  0.00    +0.106 A 
ATOM     27  C   UNL     1       2.148   2.463   7.273  0.00  0.00    +0.029 A 
ATOM     28  C   UNL     1       2.556   2.712   5.979  0.00  0.00    +0.015 A 
BRANCH  26  29
ATOM     29  S   UNL     1       0.463   1.452   9.166  0.00  0.00    +0.061 S 
ATOM     30  O   UNL     1      -0.381   0.309   9.119  0.00  0.00    -0.153 OA
ATOM     31  O   UNL     1       1.632   1.503   9.971  0.00  0.00    -0.153 OA
BRANCH  29  32
ATOM     32  N   UNL     1      -0.489   2.724   9.632  0.00  0.00    -0.177 NA
ATOM     33  C   UNL     1       0.101   3.903  10.280  0.00  0.00    +0.109 C 
ATOM     34  C   UNL     1      -0.331   5.155   9.504  0.00  0.00    +0.017 C 
ATOM     35  C   UNL     1      -1.858   5.189   9.410  0.00  0.00    +0.003 C 
ATOM     36  C   UNL     1      -2.351   3.957   8.649  0.00  0.00    +0.017 C 
ATOM     37  C   UNL     1      -1.942   2.693   9.411  0.00  0.00    +0.109 C 
ENDBRANCH  29  32
ENDBRANCH  26  29
ENDBRANCH   2  23
TORSDOF 8
