REMARK  Name = ZINC25446946
REMARK  12 active torsions:
REMARK  status: ('A' for Active; 'I' for Inactive)
REMARK    1  A    between atoms: C_1  and  C_2
REMARK    2  A    between atoms: C_2  and  C_3
REMARK    3  A    between atoms: C_3  and  C_4
REMARK    4  A    between atoms: C_4  and  C_5
REMARK    5  A    between atoms: C_5  and  C_31
REMARK    6  A    between atoms: N_8  and  C_12
REMARK    7  A    between atoms: C_12  and  C_13
REMARK    8  A    between atoms: N_15  and  C_16
REMARK    9  A    between atoms: C_17  and  C_27
REMARK   10  A    between atoms: C_22  and  C_26
REMARK   11  A    between atoms: C_27  and  O_29
REMARK   12  A    between atoms: O_29  and  C_30
REMARK                            x       y       z     vdW  Elec       q    Type
REMARK                         _______ _______ _______ _____ _____    ______ ____
ROOT
ATOM      1  C   UNL     1      -0.013   1.086   0.008  0.00  0.00    +0.214 C 
ENDROOT
BRANCH   1   5
ATOM      2  C   UNL     1      -2.084   1.743   3.020  0.00  0.00    +0.138 C 
ATOM      3  C   UNL     1      -1.684   0.883   1.837  0.00  0.00    +0.251 C 
ATOM      4  O   UNL     1      -2.154  -0.188   1.518  0.00  0.00    -0.272 OA
ATOM      5  N   UNL     1      -0.698   1.558   1.213  0.00  0.00    -0.215 N 
ATOM      6  C   UNL     1      -0.420   2.710   1.834  0.00  0.00    +0.310 C 
ATOM      7  O   UNL     1       0.435   3.489   1.460  0.00  0.00    -0.252 OA
ATOM      8  N   UNL     1      -1.194   2.912   2.915  0.00  0.00    -0.281 N 
ATOM      9  H   UNL     1      -1.262   3.723   3.655  0.00  0.00    +0.152 HD
BRANCH   2  10
ATOM     10  C   UNL     1      -3.527   2.163   2.906  0.00  0.00    -0.015 A 
ATOM     11  C   UNL     1      -4.521   1.380   3.462  0.00  0.00    +0.006 A 
ATOM     12  C   UNL     1      -5.844   1.767   3.361  0.00  0.00    +0.000 A 
ATOM     13  C   UNL     1      -6.173   2.934   2.697  0.00  0.00    +0.000 A 
ATOM     14  C   UNL     1      -5.180   3.715   2.137  0.00  0.00    +0.000 A 
ATOM     15  C   UNL     1      -3.857   3.329   2.241  0.00  0.00    +0.006 A 
ENDBRANCH   2  10
BRANCH   2  16
ATOM     16  C   UNL     1      -1.841   0.997   4.334  0.00  0.00    +0.040 C 
BRANCH  16  17
ATOM     17  C   UNL     1      -0.343   0.742   4.506  0.00  0.00    +0.003 C 
BRANCH  17  19
ATOM     18  C   UNL     1       1.399  -0.259   5.992  0.00  0.00    +0.004 C 
ATOM     19  C   UNL     1      -0.100  -0.004   5.820  0.00  0.00    -0.003 C 
ENDBRANCH  17  19
ENDBRANCH  16  17
ENDBRANCH   2  16
ENDBRANCH   1   5
BRANCH   1  20
ATOM     20  C   UNL     1      -0.742   1.585  -1.213  0.00  0.00    +0.236 C 
ATOM     21  O   UNL     1      -1.736   2.268  -1.088  0.00  0.00    -0.274 OA
ATOM     22  N   UNL     1      -0.288   1.272  -2.443  0.00  0.00    -0.278 N 
ATOM     23  H   UNL     1       0.614   0.653  -2.556  0.00  0.00    +0.155 HD
BRANCH  22  24
ATOM     24  C   UNL     1      -0.959   1.732  -3.566  0.00  0.00    +0.086 A 
ATOM     25  C   UNL     1      -0.647   1.522  -4.903  0.00  0.00    +0.091 A 
ATOM     26  C   UNL     1      -1.524   2.117  -5.898  0.00  0.00    -0.021 A 
ATOM     27  C   UNL     1      -2.559   2.828  -5.401  0.00  0.00    -0.004 A 
ATOM     28  S   UNL     1      -2.385   2.712  -3.643  0.00  0.00    -0.077 S 
ATOM     29  C   UNL     1      -3.614   3.552  -6.179  0.00  0.00    +0.046 C 
ATOM     30  C   UNL     1      -3.567   3.058  -7.632  0.00  0.00    -0.009 C 
ATOM     31  C   UNL     1      -2.113   3.073  -8.111  0.00  0.00    +0.008 C 
ATOM     32  C   UNL     1      -1.320   1.975  -7.401  0.00  0.00    +0.037 C 
ATOM     33  C   UNL     1      -4.410   3.981  -8.514  0.00  0.00    +0.008 C 
BRANCH  25  34
ATOM     34  C   UNL     1       0.520   0.730  -5.296  0.00  0.00    +0.342 C 
ATOM     35  O   UNL     1       0.412  -0.471  -5.462  0.00  0.00    -0.245 OA
BRANCH  34  36
ATOM     36  O   UNL     1       1.714   1.330  -5.474  0.00  0.00    -0.464 OA
ATOM     37  C   UNL     1       2.827   0.482  -5.863  0.00  0.00    +0.280 C 
ENDBRANCH  34  36
ENDBRANCH  25  34
ENDBRANCH  22  24
ENDBRANCH   1  20
TORSDOF 9
