REMARK  Name = ZINC42419288
REMARK  6 active torsions:
REMARK  status: ('A' for Active; 'I' for Inactive)
REMARK    1  A    between atoms: C_5  and  C_7
REMARK    2  A    between atoms: C_7  and  N_8
REMARK    3  A    between atoms: N_8  and  C_9
REMARK    4  A    between atoms: C_9  and  C_10
REMARK    5  A    between atoms: C_14  and  O_17
REMARK    6  A    between atoms: C_15  and  O_16
REMARK                            x       y       z     vdW  Elec       q    Type
REMARK                         _______ _______ _______ _____ _____    ______ ____
ROOT
ATOM      1  N   UNL     1       1.489  -2.680   1.337  0.00  0.00    +0.384 N 
ATOM      2  H   UNL     1       2.381  -2.334   1.655  0.00  0.00    -0.085 HD
ATOM      3  H   UNL     1       0.762  -2.357   1.957  0.00  0.00    -0.085 HD
ENDROOT
BRANCH   1   4
ATOM      4  C   UNL     1       1.229  -2.186  -0.022  0.00  0.00    -0.045 C 
BRANCH   4   9
ATOM      5  C   UNL     1      -0.017   1.378   0.010  0.00  0.00    +0.000 A 
ATOM      6  C   UNL     1       1.171   2.086   0.002  0.00  0.00    +0.001 A 
ATOM      7  C   UNL     1       2.377   1.412  -0.013  0.00  0.00    +0.015 A 
ATOM      8  C   UNL     1       2.397   0.029  -0.021  0.00  0.00    +0.019 A 
ATOM      9  C   UNL     1       1.208  -0.679  -0.013  0.00  0.00    -0.050 A 
ATOM     10  C   UNL     1       0.002  -0.004   0.002  0.00  0.00    +0.003 A 
ATOM     11 BR   UNL     1       4.047  -0.894  -0.042  0.00  0.00    -0.050 Br
ENDBRANCH   4   9
ENDBRANCH   1   4
BRANCH   1  12
ATOM     12  C   UNL     1       1.509  -4.149   1.328  0.00  0.00    -0.043 C 
BRANCH  12  13
ATOM     13  C   UNL     1       1.776  -4.656   2.722  0.00  0.00    -0.019 A 
ATOM     14  C   UNL     1       3.049  -5.062   3.078  0.00  0.00    +0.005 A 
ATOM     15  C   UNL     1       3.297  -5.528   4.355  0.00  0.00    +0.004 A 
ATOM     16  C   UNL     1       2.274  -5.590   5.283  0.00  0.00    +0.049 A 
ATOM     17  C   UNL     1       0.996  -5.184   4.933  0.00  0.00    +0.158 A 
ATOM     18  C   UNL     1       0.747  -4.710   3.648  0.00  0.00    +0.160 A 
BRANCH  18  19
ATOM     19  O   UNL     1      -0.504  -4.305   3.302  0.00  0.00    -0.503 OA
ATOM     20  H   UNL     1      -1.059  -5.010   2.940  0.00  0.00    +0.292 HD
ENDBRANCH  18  19
BRANCH  17  21
ATOM     21  O   UNL     1      -0.011  -5.245   5.844  0.00  0.00    -0.503 OA
ATOM     22  H   UNL     1      -0.114  -4.440   6.371  0.00  0.00    +0.292 HD
ENDBRANCH  17  21
ENDBRANCH  12  13
ENDBRANCH   1  12
TORSDOF 6
