REMARK  Name = ZINC38529231
REMARK  13 active torsions:
REMARK  status: ('A' for Active; 'I' for Inactive)
REMARK    1  A    between atoms: C_1  and  C_2
REMARK    2  A    between atoms: C_2  and  C_4
REMARK    3  A    between atoms: C_2  and  N_23
REMARK    4  A    between atoms: C_4  and  O_6
REMARK    5  A    between atoms: O_6  and  C_7
REMARK    6  A    between atoms: C_7  and  C_8
REMARK    7  A    between atoms: C_10  and  O_22
REMARK    8  A    between atoms: C_12  and  O_21
REMARK    9  A    between atoms: C_14  and  O_20
REMARK   10  A    between atoms: C_16  and  O_19
REMARK   11  A    between atoms: C_24  and  O_26
REMARK   12  A    between atoms: O_26  and  C_27
REMARK   13  A    between atoms: C_27  and  C_28
REMARK                            x       y       z     vdW  Elec       q    Type
REMARK                         _______ _______ _______ _____ _____    ______ ____
ROOT
ATOM      1  C   UNL     1      -1.412  -0.526   0.013  0.00  0.00    +0.328 C 
ATOM      2  O   UNL     1      -1.789  -1.230   0.919  0.00  0.00    -0.249 OA
ENDROOT
BRANCH   1   4
ATOM      3  C   UNL     1      -0.019   1.526   0.010  0.00  0.00    +0.040 C 
ATOM      4  C   UNL     1       0.002  -0.004   0.002  0.00  0.00    +0.182 C 
BRANCH   4   5
ATOM      5  N   UNL     1       0.711  -0.489   1.189  0.00  0.00    -0.268 N 
ATOM      6  C   UNL     1       2.054  -0.600   1.174  0.00  0.00    +0.401 C 
ATOM      7  O   UNL     1       2.677  -0.297   0.175  0.00  0.00    -0.226 OA
ATOM      8  H   UNL     1       0.213  -0.731   1.986  0.00  0.00    +0.153 HD
BRANCH   6   9
ATOM      9  O   UNL     1       2.705  -1.046   2.264  0.00  0.00    -0.446 OA
BRANCH   9  10
ATOM     10  C   UNL     1       4.128  -1.138   2.178  0.00  0.00    +0.269 C 
BRANCH  10  11
ATOM     11  C   UNL     1       4.679  -1.652   3.483  0.00  0.00    -0.010 A 
ATOM     12  C   UNL     1       5.023  -0.764   4.486  0.00  0.00    +0.007 A 
ATOM     13  C   UNL     1       5.528  -1.236   5.683  0.00  0.00    +0.000 A 
ATOM     14  C   UNL     1       5.688  -2.595   5.878  0.00  0.00    +0.000 A 
ATOM     15  C   UNL     1       5.343  -3.482   4.876  0.00  0.00    +0.000 A 
ATOM     16  C   UNL     1       4.834  -3.011   3.680  0.00  0.00    +0.007 A 
ENDBRANCH  10  11
ENDBRANCH   9  10
ENDBRANCH   6   9
ENDBRANCH   4   5
ENDBRANCH   1   4
BRANCH   1  17
ATOM     17  O   UNL     1      -2.252  -0.207  -0.984  0.00  0.00    -0.461 OA
BRANCH  17  18
ATOM     18  C   UNL     1      -3.577  -0.737  -0.910  0.00  0.00    +0.266 C 
BRANCH  18  19
ATOM     19  C   UNL     1      -4.382  -0.269  -2.124  0.00  0.00    +0.190 C 
ATOM     20  C   UNL     1      -5.761  -0.935  -2.110  0.00  0.00    +0.178 C 
ATOM     21  C   UNL     1      -6.582  -0.416  -3.294  0.00  0.00    +0.179 C 
ATOM     22  C   UNL     1      -6.673   1.110  -3.209  0.00  0.00    +0.201 C 
ATOM     23  C   UNL     1      -5.259   1.697  -3.181  0.00  0.00    +0.279 C 
ATOM     24  O   UNL     1      -4.540   1.150  -2.074  0.00  0.00    -0.340 OA
BRANCH  23  25
ATOM     25  O   UNL     1      -4.583   1.370  -4.397  0.00  0.00    -0.365 OA
ATOM     26  H   UNL     1      -3.680   1.711  -4.448  0.00  0.00    +0.213 HD
ENDBRANCH  23  25
BRANCH  22  27
ATOM     27  O   UNL     1      -7.376   1.611  -4.348  0.00  0.00    -0.384 OA
ATOM     28  H   UNL     1      -7.471   2.573  -4.359  0.00  0.00    +0.210 HD
ENDBRANCH  22  27
BRANCH  21  29
ATOM     29  O   UNL     1      -5.946  -0.792  -4.518  0.00  0.00    -0.386 OA
ATOM     30  H   UNL     1      -6.413  -0.495  -5.311  0.00  0.00    +0.210 HD
ENDBRANCH  21  29
BRANCH  20  31
ATOM     31  O   UNL     1      -5.608  -2.352  -2.217  0.00  0.00    -0.386 OA
ATOM     32  H   UNL     1      -6.444  -2.839  -2.214  0.00  0.00    +0.210 HD
ENDBRANCH  20  31
ENDBRANCH  18  19
ENDBRANCH  17  18
ENDBRANCH   1  17
TORSDOF 12
