REMARK  Name = ZINC63174692
REMARK  5 active torsions:
REMARK  status: ('A' for Active; 'I' for Inactive)
REMARK    1  A    between atoms: C_3  and  S_11
REMARK    2  A    between atoms: C_4  and  N_8
REMARK    3  A    between atoms: S_11  and  N_14
REMARK    4  A    between atoms: N_14  and  C_15
REMARK    5  A    between atoms: C_20  and  N_22
REMARK                            x       y       z     vdW  Elec       q    Type
REMARK                         _______ _______ _______ _____ _____    ______ ____
ROOT
ATOM      1  S   UNL     1       3.687   2.876  -0.067  0.00  0.00    +0.061 S 
ATOM      2  O   UNL     1       4.542   2.675  -1.184  0.00  0.00    -0.153 OA
ATOM      3  O   UNL     1       2.964   4.083   0.131  0.00  0.00    -0.153 OA
ENDROOT
BRANCH   1   6
ATOM      4  C   UNL     1       1.552  -0.339  -1.185  0.00  0.00    +0.040 A 
ATOM      5  C   UNL     1       2.485   0.681  -1.156  0.00  0.00    +0.033 A 
ATOM      6  C   UNL     1       2.498   1.577  -0.102  0.00  0.00    +0.135 A 
ATOM      7  C   UNL     1       1.579   1.452   0.923  0.00  0.00    +0.155 A 
ATOM      8  C   UNL     1       0.646   0.434   0.897  0.00  0.00    +0.073 A 
ATOM      9  C   UNL     1       0.632  -0.463  -0.158  0.00  0.00    +0.126 A 
ATOM     10  F   UNL     1      -0.280  -1.460  -0.186  0.00  0.00    -0.205 F 
BRANCH   7  11
ATOM     11  N   UNL     1       1.596   2.411   2.051  0.00  0.00    +0.058 N 
ATOM     12  O   UNL     1       0.718   2.382   2.882  0.00  0.00    -0.126 OA
ATOM     13  O   UNL     1       2.487   3.224   2.141  0.00  0.00    -0.126 OA
ENDBRANCH   7  11
ENDBRANCH   1   6
BRANCH   1  14
ATOM     14  N   UNL     1       4.616   2.653   1.286  0.00  0.00    -0.188 NA
ATOM     15  H   UNL     1       4.609   3.317   1.994  0.00  0.00    +0.148 HD
BRANCH  14  16
ATOM     16  C   UNL     1       5.448   1.454   1.414  0.00  0.00    +0.062 C 
ATOM     17  C   UNL     1       4.781   0.422   2.357  0.00  0.00    +0.019 C 
ATOM     18  C   UNL     1       5.956  -0.436   2.870  0.00  0.00    -0.000 C 
ATOM     19  C   UNL     1       7.222   0.428   2.737  0.00  0.00    -0.015 C 
ATOM     20  C   UNL     1       6.775   1.782   2.142  0.00  0.00    -0.056 C 
BRANCH  20  21
ATOM     21  N   UNL     1       7.773   2.285   1.190  0.00  0.00    +0.381 N 
ATOM     22  H   UNL     1       7.425   3.123   0.749  0.00  0.00    -0.090 HD
ATOM     23  H   UNL     1       8.630   2.493   1.679  0.00  0.00    -0.090 HD
ATOM     24  H   UNL     1       7.950   1.584   0.486  0.00  0.00    -0.090 HD
ENDBRANCH  20  21
ENDBRANCH  14  16
ENDBRANCH   1  14
TORSDOF 5
