REMARK  Name = ZINC39993948
REMARK  6 active torsions:
REMARK  status: ('A' for Active; 'I' for Inactive)
REMARK    1  A    between atoms: C_1  and  N_2
REMARK    2  A    between atoms: N_5  and  C_8
REMARK    3  A    between atoms: C_9  and  C_19
REMARK    4  A    between atoms: C_20  and  C_21
REMARK    5  A    between atoms: C_20  and  C_23
REMARK    6  A    between atoms: N_25  and  C_26
REMARK                            x       y       z     vdW  Elec       q    Type
REMARK                         _______ _______ _______ _____ _____    ______ ____
ROOT
ATOM      1  C   UNL     1       2.112  -3.566  -0.048  0.00  0.00    +0.136 A 
ATOM      2  C   UNL     1       2.691  -4.003   1.171  0.00  0.00    +0.081 A 
ATOM      3  C   UNL     1       3.671  -5.029   1.120  0.00  0.00    +0.267 A 
ATOM      4  O   UNL     1       4.195  -5.437   2.141  0.00  0.00    -0.267 OA
ATOM      5  N   UNL     1       4.011  -5.545  -0.081  0.00  0.00    -0.268 N 
ATOM      6  C   UNL     1       4.951  -6.530  -0.139  0.00  0.00    +0.096 A 
ATOM      7  C   UNL     1       5.317  -7.069  -1.324  0.00  0.00    +0.018 A 
ATOM      8  C   UNL     1       4.728  -6.617  -2.513  0.00  0.00    +0.005 A 
ATOM      9  C   UNL     1       3.787  -5.632  -2.464  0.00  0.00    +0.047 A 
ATOM     10  C   UNL     1       3.419  -5.084  -1.223  0.00  0.00    +0.142 A 
ATOM     11  N   UNL     1       2.494  -4.123  -1.187  0.00  0.00    -0.214 NA
ENDROOT
BRANCH   1  16
ATOM     12  C   UNL     1      -0.397   1.061  -1.415  0.00  0.00    -0.096 C 
ATOM     13  N   UNL     1      -0.173  -0.209  -0.711  0.00  0.00    +0.380 N 
ATOM     14  C   UNL     1      -0.122  -1.305  -1.687  0.00  0.00    -0.060 C 
ATOM     15  C   UNL     1      -0.003  -2.642  -0.947  0.00  0.00    +0.088 C 
ATOM     16  N   UNL     1       1.159  -2.575  -0.047  0.00  0.00    -0.318 N 
ATOM     17  C   UNL     1       1.271  -1.418   0.855  0.00  0.00    +0.088 C 
ATOM     18  C   UNL     1       1.093  -0.139   0.030  0.00  0.00    -0.060 C 
ATOM     19  H   UNL     1      -0.931  -0.372  -0.065  0.00  0.00    -0.082 HD
ENDBRANCH   1  16
BRANCH   2  20
ATOM     20  C   UNL     1       2.305  -3.436   2.397  0.00  0.00    +0.040 C 
ATOM     21  C   UNL     1       3.225  -2.720   3.152  0.00  0.00    +0.114 C 
BRANCH  21  22
ATOM     22  C   UNL     1       2.859  -2.232   4.485  0.00  0.00    +0.259 C 
ATOM     23  O   UNL     1       1.748  -2.454   4.930  0.00  0.00    -0.269 OA
ATOM     24  N   UNL     1       3.752  -1.538   5.218  0.00  0.00    -0.281 N 
ATOM     25  H   UNL     1       4.658  -1.420   4.893  0.00  0.00    +0.155 HD
BRANCH  24  26
ATOM     26  C   UNL     1       3.372  -0.989   6.447  0.00  0.00    +0.035 A 
ATOM     27  C   UNL     1       3.892   0.234   6.852  0.00  0.00    +0.023 A 
ATOM     28  C   UNL     1       3.515   0.775   8.066  0.00  0.00    +0.003 A 
ATOM     29  C   UNL     1       2.622   0.100   8.878  0.00  0.00    +0.015 A 
ATOM     30  C   UNL     1       2.103  -1.118   8.477  0.00  0.00    +0.020 A 
ATOM     31  C   UNL     1       2.471  -1.661   7.261  0.00  0.00    +0.038 A 
ATOM     32 BR   UNL     1       0.883  -2.038   9.592  0.00  0.00    -0.050 Br
ENDBRANCH  24  26
ENDBRANCH  21  22
BRANCH  21  33
ATOM     33  C   UNL     1       4.532  -2.460   2.629  0.00  0.00    +0.104 C 
ATOM     34  N   UNL     1       5.569  -2.253   2.213  0.00  0.00    -0.191 NA
ENDBRANCH  21  33
ENDBRANCH   2  20
TORSDOF 5
