REMARK  Name = ZINC39664359
REMARK  9 active torsions:
REMARK  status: ('A' for Active; 'I' for Inactive)
REMARK    1  A    between atoms: C_1  and  C_2
REMARK    2  A    between atoms: C_2  and  O_3
REMARK    3  A    between atoms: O_3  and  C_4
REMARK    4  A    between atoms: C_9  and  C_10
REMARK    5  A    between atoms: C_14  and  C_23
REMARK    6  A    between atoms: N_25  and  C_26
REMARK    7  A    between atoms: C_26  and  C_27
REMARK    8  A    between atoms: C_27  and  C_29
REMARK    9  A    between atoms: C_27  and  N_35
REMARK                            x       y       z     vdW  Elec       q    Type
REMARK                         _______ _______ _______ _____ _____    ______ ____
ROOT
ATOM      1  C   UNL     1       2.470   0.695  -5.686  0.00  0.00    +0.250 C 
ATOM      2  O   UNL     1       2.208   1.836  -6.013  0.00  0.00    -0.270 OA
ATOM      3  N   UNL     1       3.073  -0.135  -6.561  0.00  0.00    -0.296 N 
ATOM      4  C   UNL     1       3.389  -1.571  -6.381  0.00  0.00    +0.121 C 
ATOM      5  C   UNL     1       3.091  -2.212  -7.755  0.00  0.00    +0.100 C 
ATOM      6  C   UNL     1       3.212  -1.056  -8.762  0.00  0.00    -0.004 C 
ATOM      7  C   UNL     1       3.563   0.182  -7.924  0.00  0.00    +0.115 C 
ATOM      8  C   UNL     1       4.322  -1.346  -9.768  0.00  0.00    -0.010 C 
ATOM      9  C   UNL     1       4.385  -0.210 -10.793  0.00  0.00    -0.082 C 
ATOM     10  N   UNL     1       3.092  -0.095 -11.479  0.00  0.00    +0.379 N 
ATOM     11  C   UNL     1       2.046   0.276 -10.518  0.00  0.00    -0.082 C 
ATOM     12  C   UNL     1       1.885  -0.840  -9.481  0.00  0.00    -0.010 C 
ATOM     13  H   UNL     1       3.155   0.613 -12.195  0.00  0.00    -0.086 HD
ATOM     14  H   UNL     1       2.858  -0.980 -11.904  0.00  0.00    -0.086 HD
ENDROOT
BRANCH   1  20
ATOM     15  C   UNL     1       0.920   0.597  -3.735  0.00  0.00    +0.133 A 
ATOM     16  C   UNL     1       0.607   0.138  -2.464  0.00  0.00    +0.046 A 
ATOM     17  C   UNL     1       1.487  -0.684  -1.789  0.00  0.00    +0.004 A 
ATOM     18  C   UNL     1       2.687  -1.057  -2.374  0.00  0.00    +0.001 A 
ATOM     19  C   UNL     1       3.014  -0.611  -3.636  0.00  0.00    +0.017 A 
ATOM     20  C   UNL     1       2.130   0.217  -4.332  0.00  0.00    +0.078 A 
BRANCH  15  21
ATOM     21  O   UNL     1       0.057   1.406  -4.399  0.00  0.00    -0.491 OA
BRANCH  21  23
ATOM     22  C   UNL     1      -1.996   2.662  -4.625  0.00  0.00    +0.048 C 
ATOM     23  C   UNL     1      -1.156   1.751  -3.727  0.00  0.00    +0.226 C 
ENDBRANCH  21  23
ENDBRANCH  15  21
ENDBRANCH   1  20
BRANCH   5  24
ATOM     24  C   UNL     1       4.101  -3.287  -8.063  0.00  0.00    +0.218 C 
ATOM     25  O   UNL     1       5.223  -3.214  -7.607  0.00  0.00    -0.275 OA
ATOM     26  N   UNL     1       3.758  -4.331  -8.844  0.00  0.00    -0.313 N 
ATOM     27  H   UNL     1       2.860  -4.389  -9.208  0.00  0.00    +0.149 HD
BRANCH  26  28
ATOM     28  C   UNL     1       4.739  -5.376  -9.143  0.00  0.00    +0.127 C 
BRANCH  28  29
ATOM     29  C   UNL     1       4.099  -6.435 -10.042  0.00  0.00    +0.104 C 
BRANCH  29  30
ATOM     30  C   UNL     1       5.068  -7.571 -10.250  0.00  0.00    -0.029 A 
ATOM     31  C   UNL     1       5.302  -8.056 -11.523  0.00  0.00    +0.005 A 
ATOM     32  C   UNL     1       6.190  -9.097 -11.713  0.00  0.00    +0.000 A 
ATOM     33  C   UNL     1       6.845  -9.653 -10.631  0.00  0.00    +0.000 A 
ATOM     34  C   UNL     1       6.612  -9.168  -9.357  0.00  0.00    +0.000 A 
ATOM     35  C   UNL     1       5.727  -8.123  -9.168  0.00  0.00    +0.005 A 
ENDBRANCH  29  30
BRANCH  29  36
ATOM     36  N   UNL     1       2.877  -6.944  -9.405  0.00  0.00    -0.290 NA
ATOM     37  C   UNL     1       3.194  -7.697  -8.183  0.00  0.00    +0.113 C 
ATOM     38  C   UNL     1       1.893  -8.157  -7.521  0.00  0.00    +0.175 C 
ATOM     39  O   UNL     1       1.138  -8.934  -8.455  0.00  0.00    -0.377 OA
ATOM     40  C   UNL     1       0.811  -8.232  -9.657  0.00  0.00    +0.175 C 
ATOM     41  C   UNL     1       2.101  -7.772 -10.340  0.00  0.00    +0.113 C 
ENDBRANCH  29  36
ENDBRANCH  28  29
ENDBRANCH  26  28
ENDBRANCH   5  24
TORSDOF 8
