REMARK  Name = ZINC35465943
REMARK  15 active torsions:
REMARK  status: ('A' for Active; 'I' for Inactive)
REMARK    1  A    between atoms: C_1  and  C_2
REMARK    2  A    between atoms: C_3  and  C_10
REMARK    3  A    between atoms: C_4  and  C_8
REMARK    4  A    between atoms: C_4  and  C_9
REMARK    5  A    between atoms: C_10  and  O_12
REMARK    6  A    between atoms: O_12  and  C_13
REMARK    7  A    between atoms: C_15  and  O_41
REMARK    8  A    between atoms: C_17  and  O_40
REMARK    9  A    between atoms: C_19  and  O_39
REMARK   10  A    between atoms: C_21  and  C_24
REMARK   11  A    between atoms: C_24  and  O_25
REMARK   12  A    between atoms: O_25  and  C_26
REMARK   13  A    between atoms: C_28  and  O_38
REMARK   14  A    between atoms: C_30  and  O_37
REMARK   15  A    between atoms: C_32  and  O_36
REMARK                            x       y       z     vdW  Elec       q    Type
REMARK                         _______ _______ _______ _____ _____    ______ ____
ROOT
ATOM      1  C   UNL     1      -4.244   0.851  -0.800  0.00  0.00    +0.343 C 
ATOM      2  C   UNL     1      -5.636   0.240  -0.615  0.00  0.00    +0.214 C 
ATOM      3  C   UNL     1      -6.696   1.301  -0.925  0.00  0.00    +0.180 C 
ATOM      4  C   UNL     1      -6.476   1.827  -2.347  0.00  0.00    +0.177 C 
ATOM      5  C   UNL     1      -5.052   2.377  -2.465  0.00  0.00    +0.179 C 
ATOM      6  O   UNL     1      -4.117   1.348  -2.134  0.00  0.00    -0.331 OA
ENDROOT
BRANCH   4   7
ATOM      7  O   UNL     1      -6.658   0.763  -3.283  0.00  0.00    -0.386 OA
ATOM      8  H   UNL     1      -7.538   0.364  -3.260  0.00  0.00    +0.210 HD
ENDBRANCH   4   7
BRANCH   3   9
ATOM      9  O   UNL     1      -7.998   0.720  -0.825  0.00  0.00    -0.386 OA
ATOM     10  H   UNL     1      -8.202   0.360   0.050  0.00  0.00    +0.210 HD
ENDBRANCH   3   9
BRANCH   2  11
ATOM     11  O   UNL     1      -5.793  -0.868  -1.505  0.00  0.00    -0.383 OA
ATOM     12  H   UNL     1      -5.150  -1.577  -1.367  0.00  0.00    +0.210 HD
ENDBRANCH   2  11
BRANCH   1  13
ATOM     13  O   UNL     1      -3.250  -0.149  -0.567  0.00  0.00    -0.429 OA
BRANCH  13  14
ATOM     14  C   UNL     1      -1.971   0.268  -0.485  0.00  0.00    +0.338 C 
ATOM     15  O   UNL     1      -1.707   1.448  -0.608  0.00  0.00    -0.245 OA
BRANCH  14  18
ATOM     16  C   UNL     1       0.531   1.246  -0.063  0.00  0.00    +0.039 C 
ATOM     17  C   UNL     1       0.322  -0.246  -0.046  0.00  0.00    -0.062 C 
ATOM     18  C   UNL     1      -0.895  -0.705  -0.248  0.00  0.00    +0.041 C 
ATOM     19  C   UNL     1      -1.248  -2.164  -0.248  0.00  0.00    -0.003 C 
ATOM     20  C   UNL     1       0.015  -3.011  -0.413  0.00  0.00    +0.011 C 
ATOM     21  C   UNL     1       1.060  -2.529   0.600  0.00  0.00    +0.005 C 
ATOM     22  C   UNL     1       1.516  -1.125   0.194  0.00  0.00    +0.031 C 
ATOM     23  C   UNL     1      -1.930  -2.521   1.074  0.00  0.00    +0.016 C 
ATOM     24  C   UNL     1      -2.207  -2.453  -1.405  0.00  0.00    +0.016 C 
ENDBRANCH  14  18
ENDBRANCH  13  14
ENDBRANCH   1  13
BRANCH   5  25
ATOM     25  C   UNL     1      -4.805   2.850  -3.898  0.00  0.00    +0.197 C 
BRANCH  25  26
ATOM     26  O   UNL     1      -3.519   3.469  -3.981  0.00  0.00    -0.346 OA
BRANCH  26  27
ATOM     27  C   UNL     1      -3.188   3.948  -5.285  0.00  0.00    +0.281 C 
ATOM     28  C   UNL     1      -1.714   4.360  -5.319  0.00  0.00    +0.201 C 
ATOM     29  C   UNL     1      -1.381   4.929  -6.701  0.00  0.00    +0.178 C 
ATOM     30  C   UNL     1      -2.320   6.103  -6.997  0.00  0.00    +0.171 C 
ATOM     31  C   UNL     1      -3.770   5.624  -6.899  0.00  0.00    +0.197 C 
ATOM     32  O   UNL     1      -4.004   5.079  -5.599  0.00  0.00    -0.346 OA
BRANCH  30  33
ATOM     33  O   UNL     1      -2.094   7.146  -6.046  0.00  0.00    -0.387 OA
ATOM     34  H   UNL     1      -2.655   7.922  -6.174  0.00  0.00    +0.210 HD
ENDBRANCH  30  33
BRANCH  29  35
ATOM     35  O   UNL     1      -0.026   5.381  -6.719  0.00  0.00    -0.386 OA
ATOM     36  H   UNL     1       0.253   5.755  -7.566  0.00  0.00    +0.210 HD
ENDBRANCH  29  35
BRANCH  28  37
ATOM     37  O   UNL     1      -1.473   5.354  -4.321  0.00  0.00    -0.384 OA
ATOM     38  H   UNL     1      -1.667   5.063  -3.420  0.00  0.00    +0.210 HD
ENDBRANCH  28  37
ENDBRANCH  26  27
ENDBRANCH  25  26
ENDBRANCH   5  25
TORSDOF 12
