REMARK  Name = ZINC16012697
REMARK  5 active torsions:
REMARK  status: ('A' for Active; 'I' for Inactive)
REMARK    1  A    between atoms: C_1  and  C_2
REMARK    2  A    between atoms: C_2  and  C_3
REMARK    3  A    between atoms: N_25  and  C_28
REMARK    4  A    between atoms: C_31  and  C_35
REMARK    5  A    between atoms: C_32  and  C_34
REMARK                            x       y       z     vdW  Elec       q    Type
REMARK                         _______ _______ _______ _____ _____    ______ ____
ROOT
ATOM      1  C   UNL     1      -0.040  -0.035   0.234  0.00  0.00    -0.026 A 
ATOM      2  C   UNL     1      -0.069   1.344   0.261  0.00  0.00    +0.005 A 
ATOM      3  C   UNL     1       1.108   2.068   0.212  0.00  0.00    +0.001 A 
ATOM      4  C   UNL     1       2.321   1.406   0.136  0.00  0.00    +0.004 A 
ATOM      5  C   UNL     1       2.355   0.031   0.108  0.00  0.00    -0.027 A 
ATOM      6  C   UNL     1       1.177  -0.709   0.157  0.00  0.00    +0.039 A 
ATOM      7  N   UNL     1       1.463  -2.075   0.118  0.00  0.00    -0.286 N 
ATOM      8  C   UNL     1       2.786  -2.316   0.041  0.00  0.00    +0.212 C 
ATOM      9  O   UNL     1       3.322  -3.402  -0.008  0.00  0.00    -0.277 OA
ATOM     10  C   UNL     1       3.469  -0.975   0.030  0.00  0.00    +0.053 C 
ATOM     11  C   UNL     1       4.436  -0.832   1.210  0.00  0.00    +0.089 C 
ATOM     12  C   UNL     1       5.836  -1.145   0.614  0.00  0.00    +0.074 C 
ATOM     13  C   UNL     1       5.581  -1.447  -0.874  0.00  0.00    -0.054 C 
ATOM     14  N   UNL     1       4.275  -0.793  -1.190  0.00  0.00    +0.395 N 
ATOM     15  C   UNL     1       4.606   0.641  -1.365  0.00  0.00    -0.076 C 
ATOM     16  C   UNL     1       5.977   0.657  -2.070  0.00  0.00    -0.020 C 
ATOM     17  C   UNL     1       6.620  -0.702  -1.732  0.00  0.00    -0.016 C 
ATOM     18  C   UNL     1       6.570   0.171   0.739  0.00  0.00    +0.228 C 
ATOM     19  O   UNL     1       7.712   0.373   0.385  0.00  0.00    -0.275 OA
ATOM     20  N   UNL     1       5.764   1.078   1.302  0.00  0.00    -0.210 N 
ATOM     21  C   UNL     1       4.543   0.623   1.608  0.00  0.00    +0.229 C 
ATOM     22  O   UNL     1       3.661   1.275   2.125  0.00  0.00    -0.275 OA
ATOM     23  H   UNL     1       0.644  -2.810   0.149  0.00  0.00    +0.155 HD
ATOM     24  H   UNL     1       3.737  -1.179  -2.068  0.00  0.00    -0.079 HD
ENDROOT
BRANCH  20  25
ATOM     25  C   UNL     1       6.165   2.398   1.551  0.00  0.00    +0.044 A 
ATOM     26  C   UNL     1       7.137   2.662   2.508  0.00  0.00    +0.024 A 
ATOM     27  C   UNL     1       7.533   3.962   2.748  0.00  0.00    +0.005 A 
ATOM     28  C   UNL     1       6.956   5.004   2.043  0.00  0.00    -0.047 A 
ATOM     29  C   UNL     1       5.984   4.745   1.095  0.00  0.00    -0.046 A 
ATOM     30  C   UNL     1       5.587   3.446   0.847  0.00  0.00    +0.027 A 
ATOM     31  C   UNL     1       5.358   5.883   0.330  0.00  0.00    +0.044 C 
ATOM     32  C   UNL     1       7.387   6.423   2.311  0.00  0.00    +0.044 C 
ENDBRANCH  20  25
BRANCH   1  34
ATOM     33  C   UNL     1      -1.624  -1.212   1.736  0.00  0.00    +0.009 C 
ATOM     34  C   UNL     1      -1.328  -0.815   0.288  0.00  0.00    +0.033 C 
ENDBRANCH   1  34
TORSDOF 2
