REMARK  Name = ZINC48952843
REMARK  5 active torsions:
REMARK  status: ('A' for Active; 'I' for Inactive)
REMARK    1  A    between atoms: C_1  and  C_2
REMARK    2  A    between atoms: C_2  and  C_4
REMARK    3  A    between atoms: C_2  and  N_19
REMARK    4  A    between atoms: N_6  and  N_7
REMARK    5  A    between atoms: N_10  and  C_11
REMARK                            x       y       z     vdW  Elec       q    Type
REMARK                         _______ _______ _______ _____ _____    ______ ____
ROOT
ATOM      1  C   UNL     1       0.731  -0.503   1.223  0.00  0.00    +0.249 C 
ATOM      2  O   UNL     1       0.159  -1.213   2.023  0.00  0.00    -0.272 OA
ATOM      3  N   UNL     1       2.019  -0.161   1.426  0.00  0.00    -0.232 N 
ATOM      4  H   UNL     1       2.476   0.406   0.786  0.00  0.00    +0.173 HD
ENDROOT
BRANCH   3   5
ATOM      5  N   UNL     1       2.696  -0.625   2.561  0.00  0.00    -0.218 N 
ATOM      6  C   UNL     1       3.984  -0.283   2.764  0.00  0.00    +0.316 C 
ATOM      7  O   UNL     1       4.572  -0.686   3.749  0.00  0.00    -0.251 OA
ATOM      8  N   UNL     1       4.620   0.505   1.875  0.00  0.00    -0.294 N 
ATOM      9  H   UNL     1       2.239  -1.193   3.201  0.00  0.00    +0.174 HD
ATOM     10  H   UNL     1       4.151   0.826   1.089  0.00  0.00    +0.151 HD
BRANCH   8  11
ATOM     11  C   UNL     1       6.020   0.877   2.095  0.00  0.00    +0.097 C 
ATOM     12  C   UNL     1       6.091   2.130   2.984  0.00  0.00    +0.046 C 
ATOM     13  C   UNL     1       7.524   2.713   2.959  0.00  0.00    +0.168 C 
ATOM     14  S   UNL     1       8.145   2.192   1.309  0.00  0.00    -0.029 S 
ATOM     15  O   UNL     1       9.253   1.321   1.485  0.00  0.00    -0.174 OA
ATOM     16  O   UNL     1       8.282   3.340   0.483  0.00  0.00    -0.174 OA
ATOM     17  C   UNL     1       6.696   1.210   0.734  0.00  0.00    +0.188 C 
ENDBRANCH   8  11
ENDBRANCH   3   5
BRANCH   1  19
ATOM     18  C   UNL     1      -0.019   1.526   0.010  0.00  0.00    +0.038 C 
ATOM     19  C   UNL     1       0.002  -0.004   0.002  0.00  0.00    +0.159 C 
BRANCH  19  20
ATOM     20  N   UNL     1      -1.372  -0.511   0.012  0.00  0.00    -0.288 N 
ATOM     21  C   UNL     1      -2.051  -0.643  -1.145  0.00  0.00    +0.298 C 
ATOM     22  O   UNL     1      -1.522  -0.341  -2.197  0.00  0.00    -0.253 OA
ATOM     23  N   UNL     1      -3.315  -1.109  -1.135  0.00  0.00    -0.313 N 
ATOM     24  H   UNL     1      -1.794  -0.752   0.852  0.00  0.00    +0.151 HD
ATOM     25  H   UNL     1      -3.737  -1.350  -0.295  0.00  0.00    +0.146 HD
ATOM     26  H   UNL     1      -3.804  -1.204  -1.968  0.00  0.00    +0.146 HD
ENDBRANCH  19  20
ENDBRANCH   1  19
TORSDOF 4
