REMARK  Name = ZINC12715460
REMARK  13 active torsions:
REMARK  status: ('A' for Active; 'I' for Inactive)
REMARK    1  A    between atoms: C_1  and  C_2
REMARK    2  A    between atoms: C_5  and  C_7
REMARK    3  A    between atoms: C_7  and  C_9
REMARK    4  A    between atoms: C_7  and  N_16
REMARK    5  A    between atoms: N_11  and  C_12
REMARK    6  A    between atoms: C_12  and  C_13
REMARK    7  A    between atoms: C_12  and  C_14
REMARK    8  A    between atoms: C_12  and  C_15
REMARK    9  A    between atoms: N_16  and  C_17
REMARK   10  A    between atoms: C_17  and  C_18
REMARK   11  A    between atoms: C_24  and  C_26
REMARK   12  A    between atoms: C_27  and  N_34
REMARK   13  A    between atoms: C_28  and  C_31
REMARK                            x       y       z     vdW  Elec       q    Type
REMARK                         _______ _______ _______ _____ _____    ______ ____
ROOT
ATOM      1  N   UNL     1       1.597   1.548  -0.146  0.00  0.00    -0.276 N 
ATOM      2  C   UNL     1       2.498   0.553  -0.020  0.00  0.00    +0.258 C 
ATOM      3  O   UNL     1       2.121  -0.589   0.166  0.00  0.00    -0.269 OA
ENDROOT
BRANCH   2   4
ATOM      4  C   UNL     1       3.930   0.847  -0.106  0.00  0.00    +0.115 A 
ATOM      5  C   UNL     1       5.014  -0.032  -0.131  0.00  0.00    +0.076 A 
ATOM      6  C   UNL     1       6.238   0.631  -0.223  0.00  0.00    +0.155 A 
ATOM      7  N   UNL     1       6.256   1.945  -0.264  0.00  0.00    -0.203 NA
ATOM      8  S   UNL     1       4.755   2.423  -0.199  0.00  0.00    +0.019 S 
BRANCH   6   9
ATOM      9  C   UNL     1       7.498  -0.133  -0.267  0.00  0.00    +0.262 C 
ATOM     10  O   UNL     1       7.473  -1.348  -0.229  0.00  0.00    -0.269 OA
ATOM     11  N   UNL     1       8.676   0.515  -0.350  0.00  0.00    -0.324 N 
ATOM     12  H   UNL     1       8.696   1.484  -0.380  0.00  0.00    +0.145 HD
ATOM     13  H   UNL     1       9.505   0.012  -0.379  0.00  0.00    +0.145 HD
ENDBRANCH   6   9
BRANCH   5  14
ATOM     14  N   UNL     1       4.888  -1.414  -0.074  0.00  0.00    -0.355 N 
ATOM     15  H   UNL     1       4.008  -1.818  -0.013  0.00  0.00    +0.142 HD
ATOM     16  H   UNL     1       5.679  -1.974  -0.095  0.00  0.00    +0.142 HD
ENDBRANCH   5  14
ENDBRANCH   2   4
BRANCH   1  17
ATOM     17  C   UNL     1       0.164   1.243  -0.143  0.00  0.00    +0.228 C 
BRANCH  17  22
ATOM     18  C   UNL     1       0.446  -2.514  -3.496  0.00  0.00    +0.086 C 
ATOM     19  C   UNL     1      -0.038  -1.287  -2.768  0.00  0.00    +0.102 A 
ATOM     20  C   UNL     1      -1.125  -0.561  -3.087  0.00  0.00    +0.045 A 
ATOM     21  C   UNL     1      -1.204   0.492  -2.147  0.00  0.00    +0.047 A 
ATOM     22  C   UNL     1      -0.161   0.347  -1.310  0.00  0.00    +0.135 A 
ATOM     23  O   UNL     1       0.545  -0.730  -1.695  0.00  0.00    -0.462 OA
ENDBRANCH  17  22
BRANCH  17  24
ATOM     24  C   UNL     1      -0.198   0.545   1.142  0.00  0.00    +0.242 C 
ATOM     25  O   UNL     1       0.656   0.324   1.974  0.00  0.00    -0.273 OA
ATOM     26  N   UNL     1      -1.472   0.166   1.367  0.00  0.00    -0.309 N 
ATOM     27  H   UNL     1      -2.155   0.343   0.702  0.00  0.00    +0.149 HD
BRANCH  26  28
ATOM     28  C   UNL     1      -1.825  -0.512   2.617  0.00  0.00    +0.026 C 
ATOM     29  C   UNL     1      -1.494   0.398   3.802  0.00  0.00    +0.031 C 
ATOM     30  C   UNL     1      -3.321  -0.831   2.620  0.00  0.00    +0.031 C 
ATOM     31  C   UNL     1      -1.026  -1.812   2.735  0.00  0.00    +0.031 C 
ENDBRANCH  26  28
ENDBRANCH  17  24
ENDBRANCH   1  17
BRANCH   1  32
ATOM     32  C   UNL     1       2.051   2.934  -0.286  0.00  0.00    +0.141 C 
BRANCH  32  33
ATOM     33  C   UNL     1       2.338   3.519   1.098  0.00  0.00    +0.136 C 
ATOM     34  C   UNL     1       2.818   4.977   0.961  0.00  0.00    +0.035 C 
ATOM     35  C   UNL     1       1.793   5.792   1.786  0.00  0.00    +0.031 C 
ATOM     36  C   UNL     1       1.193   4.710   2.720  0.00  0.00    +0.160 C 
ATOM     37  O   UNL     1       1.133   3.537   1.881  0.00  0.00    -0.375 OA
ENDBRANCH  32  33
ENDBRANCH   1  32
TORSDOF 9
