REMARK  Name = ZINC01236082
REMARK  7 active torsions:
REMARK  status: ('A' for Active; 'I' for Inactive)
REMARK    1  A    between atoms: N_6  and  C_7
REMARK    2  A    between atoms: C_7  and  C_9
REMARK    3  A    between atoms: C_7  and  C_18
REMARK    4  A    between atoms: C_13  and  N_15
REMARK    5  A    between atoms: C_19  and  O_27
REMARK    6  A    between atoms: C_23  and  C_25
REMARK    7  A    between atoms: C_25  and  O_26
REMARK                            x       y       z     vdW  Elec       q    Type
REMARK                         _______ _______ _______ _____ _____    ______ ____
ROOT
ATOM      1  C   UNL     1      -0.070   5.347   0.032  0.00  0.00    +0.172 C 
ENDROOT
BRANCH   1   7
ATOM      2  C   UNL     1       0.621   5.757   4.150  0.00  0.00    +0.005 A 
ATOM      3  C   UNL     1      -0.412   6.205   4.963  0.00  0.00    +0.018 A 
ATOM      4  C   UNL     1      -1.636   6.502   4.399  0.00  0.00    +0.084 A 
ATOM      5  C   UNL     1      -0.875   5.943   2.293  0.00  0.00    +0.097 A 
ATOM      6  C   UNL     1       0.382   5.619   2.795  0.00  0.00    +0.041 A 
ATOM      7  N   UNL     1      -1.127   5.816   0.932  0.00  0.00    -0.317 N 
ATOM      8  H   UNL     1      -2.003   6.037   0.578  0.00  0.00    +0.148 HD
ATOM      9  N   UNL     1      -1.905   6.385   3.071  0.00  0.00    -0.350 N 
ATOM     10  H   UNL     1      -2.826   6.614   2.679  0.00  0.00    +0.166 HD
ENDBRANCH   1   7
BRANCH   1  11
ATOM     11  C   UNL     1      -0.336   5.854  -1.362  0.00  0.00    +0.175 A 
ATOM     12  C   UNL     1       0.675   6.387  -2.082  0.00  0.00    +0.205 A 
ATOM     13  C   UNL     1       0.409   6.857  -3.397  0.00  0.00    +0.227 A 
ATOM     14  O   UNL     1       1.297   7.341  -4.083  0.00  0.00    -0.284 OA
ATOM     15  C   UNL     1      -0.916   6.753  -3.889  0.00  0.00    +0.098 A 
ATOM     16  C   UNL     1      -1.866   6.212  -3.100  0.00  0.00    +0.134 A 
ATOM     17  O   UNL     1      -1.574   5.777  -1.869  0.00  0.00    -0.456 OA
BRANCH  12  18
ATOM     18  O   UNL     1       1.929   6.467  -1.559  0.00  0.00    -0.501 OA
ATOM     19  H   UNL     1       2.479   5.692  -1.735  0.00  0.00    +0.292 HD
ENDBRANCH  12  18
BRANCH  16  20
ATOM     20  C   UNL     1      -3.279   6.097  -3.612  0.00  0.00    +0.230 C 
BRANCH  20  21
ATOM     21  O   UNL     1      -3.445   4.840  -4.272  0.00  0.00    -0.387 OA
ATOM     22  H   UNL     1      -4.332   4.697  -4.628  0.00  0.00    +0.210 HD
ENDBRANCH  20  21
ENDBRANCH  16  20
ENDBRANCH   1  11
BRANCH   1  23
ATOM     23  C   UNL     1      -0.050   3.840   0.023  0.00  0.00    -0.018 A 
ATOM     24  C   UNL     1      -1.238   3.133   0.029  0.00  0.00    +0.006 A 
ATOM     25  C   UNL     1      -1.219   1.751   0.017  0.00  0.00    +0.003 A 
ATOM     26  C   UNL     1      -0.013   1.076   0.008  0.00  0.00    +0.033 A 
ATOM     27  C   UNL     1       1.175   1.783   0.000  0.00  0.00    +0.127 A 
ATOM     28  C   UNL     1       1.156   3.166   0.008  0.00  0.00    +0.038 A 
BRANCH  27  29
ATOM     29  N   UNL     1       2.467   1.060  -0.015  0.00  0.00    +0.056 N 
ATOM     30  O   UNL     1       2.483  -0.157  -0.022  0.00  0.00    -0.126 OA
ATOM     31  O   UNL     1       3.513   1.684  -0.022  0.00  0.00    -0.126 OA
ENDBRANCH  27  29
ENDBRANCH   1  23
TORSDOF 7
