REMARK  Name = ZINC61804837
REMARK  11 active torsions:
REMARK  status: ('A' for Active; 'I' for Inactive)
REMARK    1  A    between atoms: C_1  and  C_2
REMARK    2  A    between atoms: C_2  and  C_3
REMARK    3  A    between atoms: C_3  and  C_5
REMARK    4  A    between atoms: C_3  and  N_22
REMARK    5  A    between atoms: C_5  and  C_7
REMARK    6  A    between atoms: C_5  and  N_13
REMARK    7  A    between atoms: N_10  and  C_12
REMARK    8  A    between atoms: N_13  and  C_14
REMARK    9  A    between atoms: N_13  and  C_18
REMARK   10  A    between atoms: C_14  and  C_15
REMARK   11  A    between atoms: C_18  and  C_19
REMARK                            x       y       z     vdW  Elec       q    Type
REMARK                         _______ _______ _______ _____ _____    ______ ____
ROOT
ATOM      1  C   UNL     1       0.744  -1.994   1.336  0.00  0.00    +0.076 C 
ENDROOT
BRANCH   1   2
ATOM      2  C   UNL     1      -0.550  -1.839   2.093  0.00  0.00    +0.006 A 
ATOM      3  C   UNL     1      -0.696  -1.285   3.369  0.00  0.00    +0.139 A 
ATOM      4  N   UNL     1      -1.964  -1.323   3.688  0.00  0.00    -0.180 NA
ATOM      5  N   UNL     1      -2.667  -1.903   2.624  0.00  0.00    -0.274 N 
ATOM      6  C   UNL     1      -1.777  -2.206   1.655  0.00  0.00    +0.113 A 
ATOM      7  C   UNL     1      -4.112  -2.135   2.570  0.00  0.00    +0.172 C 
ENDBRANCH   1   2
BRANCH   1   8
ATOM      8  C   UNL     1       1.345  -0.613   1.066  0.00  0.00    -0.053 C 
BRANCH   8   9
ATOM      9  N   UNL     1       2.703  -0.767   0.528  0.00  0.00    +0.381 N 
ATOM     10  H   UNL     1       3.126   0.143   0.416  0.00  0.00    -0.090 HD
ATOM     11  H   UNL     1       3.257  -1.318   1.167  0.00  0.00    -0.090 HD
ATOM     12  H   UNL     1       2.660  -1.230  -0.367  0.00  0.00    -0.090 HD
ENDBRANCH   8   9
BRANCH   8  14
ATOM     13  C   UNL     1       1.006   1.557  -0.125  0.00  0.00    +0.002 C 
ATOM     14  C   UNL     1       0.476   0.133   0.051  0.00  0.00    -0.018 C 
ENDBRANCH   8  14
ENDBRANCH   1   8
BRANCH   1  15
ATOM     15  N   UNL     1       1.685  -2.790   2.134  0.00  0.00    -0.280 NA
BRANCH  15  16
ATOM     16  C   UNL     1       2.024  -2.105   3.388  0.00  0.00    +0.181 C 
BRANCH  16  17
ATOM     17  C   UNL     1       3.265  -2.724   3.979  0.00  0.00    +0.225 C 
ATOM     18  O   UNL     1       3.869  -3.576   3.364  0.00  0.00    -0.275 OA
ATOM     19  N   UNL     1       3.702  -2.330   5.192  0.00  0.00    -0.328 N 
ATOM     20  H   UNL     1       3.218  -1.648   5.684  0.00  0.00    +0.145 HD
ATOM     21  H   UNL     1       4.500  -2.728   5.573  0.00  0.00    +0.145 HD
ENDBRANCH  16  17
ENDBRANCH  15  16
BRANCH  15  22
ATOM     22  C   UNL     1       1.149  -4.133   2.396  0.00  0.00    +0.181 C 
BRANCH  22  23
ATOM     23  C   UNL     1       1.279  -4.977   1.154  0.00  0.00    +0.225 C 
ATOM     24  O   UNL     1       1.861  -4.541   0.183  0.00  0.00    -0.275 OA
ATOM     25  N   UNL     1       0.748  -6.215   1.123  0.00  0.00    -0.328 N 
ATOM     26  H   UNL     1       0.283  -6.563   1.899  0.00  0.00    +0.145 HD
ATOM     27  H   UNL     1       0.832  -6.758   0.323  0.00  0.00    +0.145 HD
ENDBRANCH  22  23
ENDBRANCH  15  22
ENDBRANCH   1  15
TORSDOF 9
