REMARK  Name = ZINC00989357
REMARK  11 active torsions:
REMARK  status: ('A' for Active; 'I' for Inactive)
REMARK    1  A    between atoms: C_1  and  C_2
REMARK    2  A    between atoms: C_2  and  C_3
REMARK    3  A    between atoms: C_2  and  C_4
REMARK    4  A    between atoms: C_7  and  C_10
REMARK    5  A    between atoms: C_16  and  C_33
REMARK    6  A    between atoms: C_17  and  C_24
REMARK    7  A    between atoms: C_19  and  C_22
REMARK    8  A    between atoms: C_20  and  N_21
REMARK    9  A    between atoms: C_27  and  C_30
REMARK   10  A    between atoms: C_30  and  C_31
REMARK   11  A    between atoms: C_30  and  C_32
REMARK                            x       y       z     vdW  Elec       q    Type
REMARK                         _______ _______ _______ _____ _____    ______ ____
ROOT
ATOM      1  C   UNL     1      -4.579  -3.812   1.770  0.00  0.00    +0.028 C 
ATOM      2  C   UNL     1      -3.567  -2.980   1.420  0.00  0.00    +0.079 A 
ATOM      3  C   UNL     1      -2.986  -2.723   0.096  0.00  0.00    +0.271 A 
ATOM      4  O   UNL     1      -3.409  -3.296  -0.891  0.00  0.00    -0.266 OA
ATOM      5  N   UNL     1      -1.973  -1.839  -0.000  0.00  0.00    -0.257 N 
ATOM      6  C   UNL     1      -1.544  -1.227   1.161  0.00  0.00    +0.099 A 
ATOM      7  C   UNL     1      -0.537  -0.318   1.220  0.00  0.00    +0.057 C 
ATOM      8  C   UNL     1       0.169   0.058  -0.067  0.00  0.00    +0.100 C 
ATOM      9  C   UNL     1      -0.331  -0.635  -1.318  0.00  0.00    +0.079 C 
ATOM     10  C   UNL     1      -1.346  -1.519  -1.210  0.00  0.00    +0.118 C 
ATOM     11  S   UNL     1      -2.581  -1.899   2.444  0.00  0.00    -0.065 S 
ENDROOT
BRANCH   1  15
ATOM     12  C   UNL     1      -5.469  -4.462   5.865  0.00  0.00    -0.045 A 
ATOM     13  C   UNL     1      -6.450  -4.656   4.908  0.00  0.00    +0.004 A 
ATOM     14  C   UNL     1      -6.169  -4.447   3.575  0.00  0.00    +0.008 A 
ATOM     15  C   UNL     1      -4.888  -4.037   3.190  0.00  0.00    -0.024 A 
ATOM     16  C   UNL     1      -3.900  -3.848   4.163  0.00  0.00    +0.008 A 
ATOM     17  C   UNL     1      -4.199  -4.056   5.493  0.00  0.00    +0.004 A 
BRANCH  12  19
ATOM     18  C   UNL     1      -4.869  -5.785   7.874  0.00  0.00    +0.012 C 
ATOM     19  C   UNL     1      -5.786  -4.693   7.320  0.00  0.00    +0.013 C 
ATOM     20  C   UNL     1      -5.564  -3.396   8.102  0.00  0.00    +0.012 C 
ENDBRANCH  12  19
ENDBRANCH   1  15
BRANCH   8  21
ATOM     21  C   UNL     1       0.030   1.546  -0.264  0.00  0.00    -0.035 A 
ATOM     22  C   UNL     1      -1.215   2.098  -0.505  0.00  0.00    +0.005 A 
ATOM     23  C   UNL     1      -1.343   3.463  -0.681  0.00  0.00    +0.004 A 
ATOM     24  C   UNL     1      -0.226   4.275  -0.626  0.00  0.00    -0.045 A 
ATOM     25  C   UNL     1       1.019   3.723  -0.392  0.00  0.00    +0.004 A 
ATOM     26  C   UNL     1       1.147   2.358  -0.210  0.00  0.00    +0.005 A 
BRANCH  24  27
ATOM     27  C   UNL     1      -0.365   5.762  -0.824  0.00  0.00    +0.013 C 
ATOM     28  C   UNL     1      -0.958   6.040  -2.207  0.00  0.00    +0.012 C 
ATOM     29  C   UNL     1      -1.290   6.335   0.252  0.00  0.00    +0.012 C 
ENDBRANCH  24  27
ENDBRANCH   8  21
BRANCH   7  30
ATOM     30  C   UNL     1      -0.160   0.260   2.443  0.00  0.00    +0.241 C 
ATOM     31  O   UNL     1      -0.739  -0.053   3.470  0.00  0.00    -0.271 OA
ATOM     32  N   UNL     1       0.841   1.162   2.483  0.00  0.00    -0.326 N 
ATOM     33  H   UNL     1       1.301   1.411   1.666  0.00  0.00    +0.145 HD
ATOM     34  H   UNL     1       1.101   1.561   3.328  0.00  0.00    +0.145 HD
ENDBRANCH   7  30
BRANCH  10  35
ATOM     35  N   UNL     1      -1.789  -2.140  -2.353  0.00  0.00    -0.343 N 
ATOM     36  H   UNL     1      -1.184  -2.270  -3.100  0.00  0.00    +0.144 HD
ATOM     37  H   UNL     1      -2.707  -2.448  -2.413  0.00  0.00    +0.144 HD
ENDBRANCH  10  35
BRANCH   9  38
ATOM     38  C   UNL     1       0.262  -0.357  -2.592  0.00  0.00    +0.099 C 
ATOM     39  N   UNL     1       0.732  -0.136  -3.603  0.00  0.00    -0.191 NA
ENDBRANCH   9  38
TORSDOF 7
