REMARK  Name = ZINC09302125
REMARK  9 active torsions:
REMARK  status: ('A' for Active; 'I' for Inactive)
REMARK    1  A    between atoms: C_1  and  C_2
REMARK    2  A    between atoms: C_3  and  C_28
REMARK    3  A    between atoms: C_4  and  C_23
REMARK    4  A    between atoms: C_6  and  C_21
REMARK    5  A    between atoms: C_7  and  S_9
REMARK    6  A    between atoms: S_9  and  C_10
REMARK    7  A    between atoms: C_10  and  C_11
REMARK    8  A    between atoms: N_13  and  C_14
REMARK    9  A    between atoms: N_30  and  C_31
REMARK                            x       y       z     vdW  Elec       q    Type
REMARK                         _______ _______ _______ _____ _____    ______ ____
ROOT
ATOM      1  C   UNL     1       9.180  -4.237  -1.358  0.00  0.00    +0.061 C 
ATOM      2  C   UNL     1       9.555  -2.825  -0.988  0.00  0.00    +0.014 C 
ATOM      3  C   UNL     1      10.829  -2.423  -1.120  0.00  0.00    +0.044 C 
ATOM      4  C   UNL     1      11.260  -1.031  -0.758  0.00  0.00    +0.105 C 
ATOM      5  C   UNL     1      10.072  -0.118  -0.642  0.00  0.00    +0.069 C 
ATOM      6  C   UNL     1       8.811  -0.613  -0.523  0.00  0.00    +0.080 C 
ATOM      7  N   UNL     1       8.591  -1.972  -0.523  0.00  0.00    -0.312 N 
ATOM      8  H   UNL     1       7.638  -2.373  -0.147  0.00  0.00    +0.152 HD
ENDROOT
BRANCH   4   9
ATOM      9  C   UNL     1      11.992  -1.065   0.559  0.00  0.00    +0.002 A 
ATOM     10  C   UNL     1      13.267  -0.698   0.836  0.00  0.00    +0.012 A 
ATOM     11  C   UNL     1      13.732  -0.814   2.133  0.00  0.00    +0.008 A 
ATOM     12  C   UNL     1      12.902  -1.302   3.087  0.00  0.00    +0.045 A 
ATOM     13  S   UNL     1      11.409  -1.609   2.156  0.00  0.00    -0.101 S 
ENDBRANCH   4   9
BRANCH   3  14
ATOM     14  C   UNL     1      11.792  -3.336  -1.614  0.00  0.00    +0.247 C 
ATOM     15  O   UNL     1      11.460  -4.468  -1.913  0.00  0.00    -0.270 OA
ATOM     16  N   UNL     1      13.076  -2.950  -1.754  0.00  0.00    -0.282 N 
ATOM     17  H   UNL     1      13.391  -1.953  -1.413  0.00  0.00    +0.155 HD
BRANCH  16  18
ATOM     18  C   UNL     1      14.008  -3.819  -2.331  0.00  0.00    +0.034 A 
ATOM     19  C   UNL     1      13.919  -5.186  -2.103  0.00  0.00    +0.023 A 
ATOM     20  C   UNL     1      14.837  -6.042  -2.679  0.00  0.00    +0.002 A 
ATOM     21  C   UNL     1      15.851  -5.538  -3.473  0.00  0.00    +0.000 A 
ATOM     22  C   UNL     1      15.945  -4.176  -3.698  0.00  0.00    +0.002 A 
ATOM     23  C   UNL     1      15.027  -3.316  -3.129  0.00  0.00    +0.023 A 
ENDBRANCH  16  18
ENDBRANCH   3  14
BRANCH   5  24
ATOM     24  C   UNL     1      10.272   1.300  -0.654  0.00  0.00    +0.098 C 
ATOM     25  N   UNL     1      10.431   2.425  -0.663  0.00  0.00    -0.191 NA
ENDBRANCH   5  24
BRANCH   6  26
ATOM     26  S   UNL     1       7.448   0.493  -0.374  0.00  0.00    -0.100 S 
BRANCH  26  27
ATOM     27  C   UNL     1       6.088  -0.696  -0.262  0.00  0.00    +0.171 C 
BRANCH  27  28
ATOM     28  C   UNL     1       4.783   0.044  -0.125  0.00  0.00    +0.227 C 
ATOM     29  O   UNL     1       4.773   1.257  -0.105  0.00  0.00    -0.275 OA
ATOM     30  N   UNL     1       3.627  -0.641  -0.024  0.00  0.00    -0.285 N 
ATOM     31  H   UNL     1       3.642  -1.739   0.042  0.00  0.00    +0.155 HD
BRANCH  30  32
ATOM     32  C   UNL     1       2.406   0.044  -0.004  0.00  0.00    +0.033 A 
ATOM     33  C   UNL     1       2.255   1.217  -0.733  0.00  0.00    +0.025 A 
ATOM     34  C   UNL     1       1.050   1.891  -0.711  0.00  0.00    +0.022 A 
ATOM     35  C   UNL     1      -0.006   1.400   0.036  0.00  0.00    +0.041 A 
ATOM     36  C   UNL     1       0.142   0.231   0.763  0.00  0.00    +0.022 A 
ATOM     37  C   UNL     1       1.345  -0.447   0.744  0.00  0.00    +0.025 A 
ATOM     38 CL   UNL     1      -1.517   2.254   0.067  0.00  0.00    -0.084 Cl
ENDBRANCH  30  32
ENDBRANCH  27  28
ENDBRANCH  26  27
ENDBRANCH   6  26
TORSDOF 8
