REMARK  Name = ZINC40377242
REMARK  5 active torsions:
REMARK  status: ('A' for Active; 'I' for Inactive)
REMARK    1  A    between atoms: C_3  and  S_8
REMARK    2  A    between atoms: S_8  and  N_11
REMARK    3  A    between atoms: N_11  and  C_12
REMARK    4  A    between atoms: C_12  and  C_18
REMARK    5  A    between atoms: N_19  and  O_20
REMARK                            x       y       z     vdW  Elec       q    Type
REMARK                         _______ _______ _______ _____ _____    ______ ____
ROOT
ATOM      1  C   UNL     1       4.661   1.614   2.418  0.00  0.00    +0.098 C 
ATOM      2  C   UNL     1       6.004   1.011   2.003  0.00  0.00    +0.031 C 
ATOM      3  C   UNL     1       7.061   2.115   1.937  0.00  0.00    +0.002 C 
ATOM      4  C   UNL     1       7.200   2.770   3.313  0.00  0.00    +0.000 C 
ATOM      5  C   UNL     1       5.857   3.374   3.728  0.00  0.00    +0.002 C 
ATOM      6  C   UNL     1       4.800   2.269   3.794  0.00  0.00    +0.031 C 
ENDROOT
BRANCH   1   7
ATOM      7  C   UNL     1       3.620   0.527   2.483  0.00  0.00    +0.153 C 
ATOM      8  N   UNL     1       2.377   0.832   2.655  0.00  0.00    -0.075 NA
ATOM      9  N   UNL     1       3.994  -0.793   2.359  0.00  0.00    -0.342 N 
ATOM     10  H   UNL     1       4.934  -1.028   2.303  0.00  0.00    +0.144 HD
ATOM     11  H   UNL     1       3.318  -1.488   2.327  0.00  0.00    +0.144 HD
BRANCH   8  12
ATOM     12  O   UNL     1       1.984   2.191   2.724  0.00  0.00    -0.408 OA
ATOM     13  H   UNL     1       1.035   2.320   2.854  0.00  0.00    +0.328 HD
ENDBRANCH   8  12
ENDBRANCH   1   7
BRANCH   1  14
ATOM     14  N   UNL     1       4.254   2.622   1.436  0.00  0.00    -0.177 NA
ATOM     15  H   UNL     1       4.053   3.527   1.724  0.00  0.00    +0.149 HD
BRANCH  14  16
ATOM     16  S   UNL     1       4.136   2.218  -0.165  0.00  0.00    +0.059 S 
ATOM     17  O   UNL     1       5.343   1.551  -0.505  0.00  0.00    -0.153 OA
ATOM     18  O   UNL     1       3.691   3.383  -0.847  0.00  0.00    -0.153 OA
BRANCH  16  21
ATOM     19  C   UNL     1       0.517   0.508  -0.521  0.00  0.00    +0.003 A 
ATOM     20  C   UNL     1       1.530   1.442  -0.408  0.00  0.00    +0.028 A 
ATOM     21  C   UNL     1       2.845   1.027  -0.308  0.00  0.00    +0.106 A 
ATOM     22  C   UNL     1       3.147  -0.322  -0.321  0.00  0.00    +0.043 A 
ATOM     23  C   UNL     1       2.134  -1.256  -0.433  0.00  0.00    +0.020 A 
ATOM     24  C   UNL     1       0.818  -0.841  -0.533  0.00  0.00    +0.015 A 
ATOM     25 BR   UNL     1       2.547  -3.102  -0.451  0.00  0.00    -0.050 Br
ENDBRANCH  16  21
ENDBRANCH  14  16
ENDBRANCH   1  14
TORSDOF 5
