REMARK  Name = ZINC13660199
REMARK  14 active torsions:
REMARK  status: ('A' for Active; 'I' for Inactive)
REMARK    1  A    between atoms: C_1  and  C_2
REMARK    2  A    between atoms: C_8  and  C_33
REMARK    3  A    between atoms: C_8  and  C_34
REMARK    4  A    between atoms: C_9  and  C_10
REMARK    5  A    between atoms: C_9  and  O_32
REMARK    6  A    between atoms: C_11  and  C_12
REMARK    7  A    between atoms: C_12  and  C_14
REMARK    8  A    between atoms: C_12  and  O_15
REMARK    9  A    between atoms: O_15  and  C_16
REMARK   10  A    between atoms: C_18  and  O_31
REMARK   11  A    between atoms: C_20  and  O_30
REMARK   12  A    between atoms: C_22  and  O_29
REMARK   13  A    between atoms: C_24  and  C_27
REMARK   14  A    between atoms: C_27  and  O_28
REMARK                            x       y       z     vdW  Elec       q    Type
REMARK                         _______ _______ _______ _____ _____    ______ ____
ROOT
ATOM      1  C   UNL     1       0.427  -0.415   0.909  0.00  0.00    +0.141 C 
ATOM      2  C   UNL     1       1.896  -0.552   0.503  0.00  0.00    +0.042 C 
ENDROOT
BRANCH   1   4
ATOM      3  C   UNL     1      -0.584  -1.959   2.507  0.00  0.00    +0.006 C 
ATOM      4  C   UNL     1      -0.115  -1.766   1.299  0.00  0.00    +0.002 C 
BRANCH   3  12
ATOM      5  C   UNL     1       0.206  -2.891   4.999  0.00  0.00    +0.011 C 
ATOM      6  C   UNL     1      -0.214  -3.920   3.950  0.00  0.00    +0.029 C 
ATOM      7  C   UNL     1      -0.793  -5.160   4.622  0.00  0.00    +0.080 C 
ATOM      8  C   UNL     1      -2.225  -4.888   5.019  0.00  0.00    +0.134 C 
ATOM      9  O   UNL     1      -2.603  -5.043   6.154  0.00  0.00    -0.297 OA
ATOM     10  C   UNL     1      -3.163  -4.418   3.933  0.00  0.00    +0.083 C 
ATOM     11  C   UNL     1      -2.587  -3.153   3.297  0.00  0.00    +0.004 C 
ATOM     12  C   UNL     1      -1.129  -3.321   2.900  0.00  0.00    +0.093 C 
ATOM     13  C   UNL     1      -2.774  -1.967   4.246  0.00  0.00    +0.014 C 
ATOM     14  C   UNL     1      -3.399  -2.858   2.018  0.00  0.00    +0.014 C 
BRANCH  12  15
ATOM     15  O   UNL     1      -1.077  -4.153   1.725  0.00  0.00    -0.384 OA
ATOM     16  H   UNL     1      -0.187  -4.272   1.366  0.00  0.00    +0.211 HD
ENDBRANCH  12  15
ENDBRANCH   3  12
ENDBRANCH   1   4
BRANCH   1  17
ATOM     17  O   UNL     1      -0.325   0.100  -0.192  0.00  0.00    -0.342 OA
BRANCH  17  18
ATOM     18  C   UNL     1      -0.403   1.526  -0.227  0.00  0.00    +0.282 C 
ATOM     19  C   UNL     1      -1.120   1.968  -1.505  0.00  0.00    +0.201 C 
ATOM     20  C   UNL     1      -2.552   1.424  -1.492  0.00  0.00    +0.179 C 
ATOM     21  C   UNL     1      -3.262   1.917  -0.228  0.00  0.00    +0.177 C 
ATOM     22  C   UNL     1      -2.463   1.478   1.002  0.00  0.00    +0.178 C 
ATOM     23  O   UNL     1      -1.132   1.991   0.911  0.00  0.00    -0.341 OA
BRANCH  21  24
ATOM     24  O   UNL     1      -3.351   3.343  -0.255  0.00  0.00    -0.386 OA
ATOM     25  H   UNL     1      -3.841   3.692  -1.012  0.00  0.00    +0.210 HD
ENDBRANCH  21  24
BRANCH  20  26
ATOM     26  O   UNL     1      -3.252   1.892  -2.647  0.00  0.00    -0.386 OA
ATOM     27  H   UNL     1      -2.852   1.622  -3.485  0.00  0.00    +0.210 HD
ENDBRANCH  20  26
BRANCH  19  28
ATOM     28  O   UNL     1      -0.425   1.455  -2.644  0.00  0.00    -0.384 OA
ATOM     29  H   UNL     1       0.492   1.755  -2.713  0.00  0.00    +0.210 HD
ENDBRANCH  19  28
BRANCH  22  30
ATOM     30  C   UNL     1      -3.133   2.018   2.266  0.00  0.00    +0.190 C 
BRANCH  30  31
ATOM     31  O   UNL     1      -2.455   1.512   3.418  0.00  0.00    -0.392 OA
ATOM     32  H   UNL     1      -2.828   1.814   4.258  0.00  0.00    +0.210 HD
ENDBRANCH  30  31
ENDBRANCH  22  30
ENDBRANCH  17  18
ENDBRANCH   1  17
TORSDOF 10
