REMARK  Name = ZINC52834012
REMARK  2 active torsions:
REMARK  status: ('A' for Active; 'I' for Inactive)
REMARK    1  A    between atoms: N_4  and  C_7
REMARK    2  A    between atoms: N_14  and  O_15
REMARK                            x       y       z     vdW  Elec       q    Type
REMARK                         _______ _______ _______ _____ _____    ______ ____
ROOT
ATOM      1  C   UNL     1       3.004  -0.478   2.270  0.00  0.00    -0.066 C 
ATOM      2  C   UNL     1       4.428   0.077   2.345  0.00  0.00    +0.004 C 
ATOM      3  C   UNL     1       5.170  -0.587   3.509  0.00  0.00    +0.106 C 
ATOM      4  N   UNL     1       5.099  -2.046   3.345  0.00  0.00    -0.301 N 
ATOM      5  C   UNL     1       3.781  -2.673   3.173  0.00  0.00    +0.106 C 
ATOM      6  C   UNL     1       3.055  -1.986   2.012  0.00  0.00    +0.004 C 
ATOM      7  C   UNL     1       6.247  -2.811   3.352  0.00  0.00    +0.218 C 
ATOM      8  N   UNL     1       6.240  -3.989   3.904  0.00  0.00    -0.055 NA
ATOM      9  N   UNL     1       7.402  -2.327   2.772  0.00  0.00    -0.328 N 
ATOM     10  H   UNL     1       7.386  -1.488   2.285  0.00  0.00    +0.145 HD
ATOM     11  H   UNL     1       8.230  -2.826   2.851  0.00  0.00    +0.145 HD
ENDROOT
BRANCH   1  15
ATOM     12  C   UNL     1       0.124   1.787   0.094  0.00  0.00    -0.004 C 
ATOM     13  C   UNL     1       1.548   2.328   0.247  0.00  0.00    -0.019 C 
ATOM     14  C   UNL     1       2.231   1.627   1.423  0.00  0.00    -0.078 C 
ATOM     15  N   UNL     1       2.279   0.181   1.175  0.00  0.00    +0.382 N 
ATOM     16  C   UNL     1       0.916  -0.357   1.099  0.00  0.00    -0.078 C 
ATOM     17  C   UNL     1       0.182   0.267  -0.090  0.00  0.00    -0.019 C 
ATOM     18  H   UNL     1       2.758   0.006   0.304  0.00  0.00    -0.081 HD
ENDBRANCH   1  15
BRANCH   8  19
ATOM     19  O   UNL     1       5.098  -4.431   4.614  0.00  0.00    -0.407 OA
ATOM     20  H   UNL     1       5.186  -5.318   4.989  0.00  0.00    +0.328 HD
ENDBRANCH   8  19
TORSDOF 2
