REMARK  Name = ZINC06760124
REMARK  9 active torsions:
REMARK  status: ('A' for Active; 'I' for Inactive)
REMARK    1  A    between atoms: C_1  and  C_2
REMARK    2  A    between atoms: C_2  and  N_3
REMARK    3  A    between atoms: C_11  and  C_13
REMARK    4  A    between atoms: C_11  and  C_14
REMARK    5  A    between atoms: N_17  and  C_20
REMARK    6  A    between atoms: C_20  and  C_21
REMARK    7  A    between atoms: N_23  and  C_24
REMARK    8  A    between atoms: C_24  and  C_25
REMARK    9  A    between atoms: C_25  and  N_50
REMARK                            x       y       z     vdW  Elec       q    Type
REMARK                         _______ _______ _______ _____ _____    ______ ____
ROOT
ATOM      1  N   UNL     1      -0.749   3.044   1.275  0.00  0.00    -0.287 N 
ATOM      2  C   UNL     1      -1.793   3.712   0.694  0.00  0.00    +0.097 A 
ATOM      3  C   UNL     1      -1.847   5.106   0.682  0.00  0.00    +0.074 A 
ATOM      4  C   UNL     1      -3.016   5.689   0.029  0.00  0.00    -0.018 A 
ATOM      5  C   UNL     1      -3.905   4.812  -0.484  0.00  0.00    +0.021 A 
ATOM      6  S   UNL     1      -3.229   3.219  -0.123  0.00  0.00    -0.073 S 
ATOM      7  C   UNL     1      -5.176   5.159  -1.196  0.00  0.00    +0.203 C 
ATOM      8  O   UNL     1      -5.447   6.550  -0.961  0.00  0.00    -0.368 OA
ATOM      9  C   UNL     1      -4.319   7.400  -1.190  0.00  0.00    +0.068 C 
ATOM     10  C   UNL     1      -3.268   7.187  -0.095  0.00  0.00    +0.071 C 
ATOM     11  C   UNL     1      -4.775   8.860  -1.178  0.00  0.00    +0.041 C 
ATOM     12  C   UNL     1      -3.707   7.070  -2.552  0.00  0.00    +0.041 C 
ATOM     13  C   UNL     1      -0.711   5.796   1.333  0.00  0.00    +0.266 A 
ATOM     14  O   UNL     1      -0.670   7.012   1.371  0.00  0.00    -0.267 OA
ATOM     15  N   UNL     1       0.276   5.065   1.880  0.00  0.00    -0.251 N 
ATOM     16  C   UNL     1       0.258   3.722   1.859  0.00  0.00    +0.333 A 
ATOM     17  O   UNL     1       1.172   3.106   2.372  0.00  0.00    -0.246 OA
ENDROOT
BRANCH   1  19
ATOM     18  C   UNL     1      -0.013   1.086   0.008  0.00  0.00    +0.027 C 
ATOM     19  C   UNL     1      -0.729   1.579   1.267  0.00  0.00    +0.124 C 
ENDBRANCH   1  19
BRANCH  15  20
ATOM     20  C   UNL     1       1.399   5.752   2.522  0.00  0.00    +0.225 C 
BRANCH  20  21
ATOM     21  C   UNL     1       1.086   5.972   3.980  0.00  0.00    +0.233 C 
ATOM     22  O   UNL     1       0.029   5.592   4.437  0.00  0.00    -0.274 OA
ATOM     23  N   UNL     1       1.981   6.591   4.776  0.00  0.00    -0.316 N 
ATOM     24  H   UNL     1       2.826   6.894   4.410  0.00  0.00    +0.149 HD
BRANCH  23  25
ATOM     25  C   UNL     1       1.676   6.804   6.193  0.00  0.00    +0.085 C 
BRANCH  25  26
ATOM     26  C   UNL     1       2.849   7.522   6.864  0.00  0.00    -0.067 C 
BRANCH  26  29
ATOM     27  H   UNL     1       2.325   6.864   8.743  0.00  0.00    -0.090 HD
ATOM     28  H   UNL     1       3.304   8.209   8.750  0.00  0.00    -0.090 HD
ATOM     29  N   UNL     1       2.524   7.751   8.283  0.00  0.00    +0.379 N 
ATOM     30  H   UNL     1       1.695   8.354   8.345  0.00  0.00    -0.090 HD
ENDBRANCH  26  29
ENDBRANCH  25  26
ENDBRANCH  23  25
ENDBRANCH  20  21
ENDBRANCH  15  20
TORSDOF 6
