REMARK  Name = ZINC05395609
REMARK  8 active torsions:
REMARK  status: ('A' for Active; 'I' for Inactive)
REMARK    1  A    between atoms: C_4  and  C_7
REMARK    2  A    between atoms: C_7  and  C_8
REMARK    3  A    between atoms: C_8  and  N_9
REMARK    4  A    between atoms: N_17  and  C1*_20
REMARK    5  A    between atoms: C2*_22  and  O2*_32
REMARK    6  A    between atoms: C3*_24  and  O3*_31
REMARK    7  A    between atoms: C4*_26  and  C5*_29
REMARK    8  A    between atoms: C5*_29  and  O5*_30
REMARK                            x       y       z     vdW  Elec       q    Type
REMARK                         _______ _______ _______ _____ _____    ______ ____
ROOT
ATOM      1  N   UNL     1       0.002  -0.004   0.002  0.00  0.00    -0.327 N 
ATOM      2  C   UNL     1      -0.017   1.379   0.009  0.00  0.00    +0.153 A 
ATOM      3  C   UNL     1       1.182   2.114   0.008  0.00  0.00    +0.146 A 
ATOM      4  C   UNL     1       1.103   3.516   0.022  0.00  0.00    +0.148 A 
ATOM      5  N   UNL     1      -0.093   4.097   0.037  0.00  0.00    -0.290 N 
ATOM      6  C   UNL     1      -1.195   3.368   0.033  0.00  0.00    +0.349 A 
ATOM      7  N   UNL     1      -1.168   2.042   0.018  0.00  0.00    -0.176 NA
ATOM      8  O   UNL     1      -2.395   3.997   0.048  0.00  0.00    -0.245 OA
ATOM      9  N   UNL     1       2.398   3.969   0.017  0.00  0.00    -0.287 N 
ATOM     10  C   UNL     1       3.213   2.875   0.001  0.00  0.00    +0.203 A 
ATOM     11  N   UNL     1       2.498   1.788  -0.005  0.00  0.00    -0.231 NA
ATOM     12  H   UNL     1       0.537  -0.243   0.812  0.00  0.00    +0.148 HD
ATOM     13  H   UNL     1      -0.160   5.095   0.051  0.00  0.00    +0.172 HD
ENDROOT
BRANCH   9  14
ATOM     14  C1* UNL     1       2.826   5.369   0.026  0.00  0.00    +0.253 C 
ATOM     15  C2* UNL     1       2.877   5.892   1.475  0.00  0.00    +0.195 C 
ATOM     16  C3* UNL     1       4.371   6.247   1.695  0.00  0.00    +0.178 C 
ATOM     17  C4* UNL     1       5.071   5.409   0.595  0.00  0.00    +0.177 C 
ATOM     18  O4* UNL     1       4.153   5.478  -0.517  0.00  0.00    -0.346 OA
BRANCH  16  19
ATOM     19  O3* UNL     1       4.597   7.644   1.492  0.00  0.00    -0.386 OA
ATOM     20  H3* UNL     1       5.528   7.901   1.530  0.00  0.00    +0.210 HD
ENDBRANCH  16  19
BRANCH  15  21
ATOM     21  O2* UNL     1       2.464   4.874   2.389  0.00  0.00    -0.385 OA
ATOM     22  H2* UNL     1       2.477   5.149   3.316  0.00  0.00    +0.210 HD
ENDBRANCH  15  21
BRANCH  17  23
ATOM     23  C5* UNL     1       6.420   6.025   0.220  0.00  0.00    +0.190 C 
BRANCH  23  24
ATOM     24  O5* UNL     1       7.047   5.223  -0.784  0.00  0.00    -0.392 OA
ATOM     25  H5* UNL     1       7.908   5.555  -1.071  0.00  0.00    +0.210 HD
ENDBRANCH  23  24
ENDBRANCH  17  23
ENDBRANCH   9  14
BRANCH   1  26
ATOM     26  C   UNL     1      -1.256  -0.754   0.010  0.00  0.00    +0.107 C 
BRANCH  26  27
ATOM     27  C   UNL     1      -0.957  -2.254  -0.001  0.00  0.00    +0.054 C 
BRANCH  27  31
ATOM     28  C   UNL     1      -4.626  -4.440   0.022  0.00  0.00    +0.000 A 
ATOM     29  C   UNL     1      -4.044  -4.080  -1.179  0.00  0.00    +0.000 A 
ATOM     30  C   UNL     1      -2.856  -3.373  -1.186  0.00  0.00    +0.004 A 
ATOM     31  C   UNL     1      -2.251  -3.025   0.007  0.00  0.00    -0.046 A 
ATOM     32  C   UNL     1      -2.831  -3.390   1.208  0.00  0.00    +0.004 A 
ATOM     33  C   UNL     1      -4.021  -4.094   1.215  0.00  0.00    +0.000 A 
ENDBRANCH  27  31
ENDBRANCH  26  27
ENDBRANCH   1  26
TORSDOF 8
