REMARK  Name = ZINC05415683
REMARK  5 active torsions:
REMARK  status: ('A' for Active; 'I' for Inactive)
REMARK    1  A    between atoms: C_4  and  C_7
REMARK    2  A    between atoms: C_14  and  C_16
REMARK    3  A    between atoms: N_18  and  C_19
REMARK    4  A    between atoms: C_27  and  C_29
REMARK    5  A    between atoms: C_29  and  N_59
REMARK                            x       y       z     vdW  Elec       q    Type
REMARK                         _______ _______ _______ _____ _____    ______ ____
ROOT
ATOM      1  C   UNL     1      -2.191  -0.342  -0.135  0.00  0.00    +0.219 C 
ATOM      2  O   UNL     1      -1.122  -0.748   0.269  0.00  0.00    -0.275 OA
ATOM      3  N   UNL     1      -2.373   0.976  -0.354  0.00  0.00    -0.287 N 
ATOM      4  C   UNL     1      -3.700   1.499  -0.707  0.00  0.00    +0.127 C 
ATOM      5  C   UNL     1      -3.584   2.282  -2.021  0.00  0.00    +0.126 C 
ATOM      6  N   UNL     1      -2.459   3.220  -1.911  0.00  0.00    -0.299 N 
ATOM      7  C   UNL     1      -1.132   2.696  -1.559  0.00  0.00    +0.139 C 
ATOM      8  C   UNL     1      -1.247   1.914  -0.245  0.00  0.00    +0.179 C 
ATOM      9  C   UNL     1      -2.640   4.538  -2.130  0.00  0.00    +0.198 C 
ATOM     10  O   UNL     1      -1.704   5.303  -2.037  0.00  0.00    -0.278 OA
ENDROOT
BRANCH   1  14
ATOM     11  C   UNL     1      -5.076  -3.474   0.506  0.00  0.00    +0.000 C 
ATOM     12  C   UNL     1      -3.946  -3.727  -0.493  0.00  0.00    +0.001 C 
ATOM     13  C   UNL     1      -2.803  -2.743  -0.231  0.00  0.00    +0.013 C 
ATOM     14  C   UNL     1      -3.316  -1.311  -0.393  0.00  0.00    +0.075 C 
ATOM     15  C   UNL     1      -4.447  -1.058   0.606  0.00  0.00    +0.013 C 
ATOM     16  C   UNL     1      -5.589  -2.041   0.344  0.00  0.00    +0.001 C 
ENDBRANCH   1  14
BRANCH   8  17
ATOM     17  C   UNL     1       0.028   1.149   0.002  0.00  0.00    +0.236 C 
ATOM     18  O   UNL     1       0.413   0.336  -0.811  0.00  0.00    -0.274 OA
ATOM     19  N   UNL     1       0.742   1.372   1.123  0.00  0.00    -0.302 N 
ATOM     20  H   UNL     1       0.433   2.022   1.773  0.00  0.00    +0.150 HD
BRANCH  19  21
ATOM     21  C   UNL     1       1.984   0.632   1.359  0.00  0.00    +0.159 C 
ATOM     22  C   UNL     1       2.889   1.443   2.289  0.00  0.00    +0.033 C 
ATOM     23  C   UNL     1       4.047   0.546   2.742  0.00  0.00    +0.021 C 
ATOM     24  C   UNL     1       3.489  -0.558   3.640  0.00  0.00    +0.104 C 
ATOM     25  N   UNL     1       2.361  -1.220   2.995  0.00  0.00    -0.314 N 
ATOM     26  C   UNL     1       1.663  -0.694   1.988  0.00  0.00    +0.233 C 
ATOM     27  O   UNL     1       0.718  -1.320   1.556  0.00  0.00    -0.274 OA
ATOM     28  H   UNL     1       2.103  -2.097   3.318  0.00  0.00    +0.149 HD
ENDBRANCH  19  21
ENDBRANCH   8  17
BRANCH   9  29
ATOM     29  C   UNL     1      -4.007   5.060  -2.491  0.00  0.00    +0.011 C 
BRANCH  29  32
ATOM     30  H   UNL     1      -3.251   6.761  -3.370  0.00  0.00    -0.089 HD
ATOM     31  H   UNL     1      -4.846   6.891  -2.919  0.00  0.00    -0.089 HD
ATOM     32  N   UNL     1      -3.934   6.523  -2.653  0.00  0.00    +0.384 N 
ATOM     33  H   UNL     1      -3.649   6.947  -1.763  0.00  0.00    -0.089 HD
ENDBRANCH  29  32
ENDBRANCH   9  29
TORSDOF 5
