REMARK  Name = ZINC11385824
REMARK  8 active torsions:
REMARK  status: ('A' for Active; 'I' for Inactive)
REMARK    1  A    between atoms: C_1  and  C_2
REMARK    2  A    between atoms: C_3  and  C_7
REMARK    3  A    between atoms: C_10  and  S_13
REMARK    4  A    between atoms: N_11  and  N_12
REMARK    5  A    between atoms: S_13  and  C_14
REMARK    6  A    between atoms: C_14  and  C_15
REMARK    7  A    between atoms: N_17  and  C_18
REMARK    8  A    between atoms: C_19  and  C_27
REMARK                            x       y       z     vdW  Elec       q    Type
REMARK                         _______ _______ _______ _____ _____    ______ ____
ROOT
ATOM      1  C   UNL     1      -0.016   1.344   0.009  0.00  0.00    +0.228 C 
ATOM      2  O   UNL     1       1.026   1.964   0.003  0.00  0.00    -0.275 OA
ATOM      3  N   UNL     1       0.002  -0.004   0.002  0.00  0.00    -0.279 N 
ATOM      4  H   UNL     1      -0.831  -0.500   0.007  0.00  0.00    +0.155 HD
ENDROOT
BRANCH   3   5
ATOM      5  C   UNL     1       1.212  -0.681  -0.013  0.00  0.00    +0.084 A 
ATOM      6  C   UNL     1       1.434  -2.051  -0.017  0.00  0.00    +0.068 A 
ATOM      7  C   UNL     1       2.813  -2.508  -0.037  0.00  0.00    -0.023 A 
ATOM      8  C   UNL     1       3.743  -1.529  -0.041  0.00  0.00    -0.004 A 
ATOM      9  S   UNL     1       2.814  -0.022  -0.024  0.00  0.00    -0.077 S 
ATOM     10  C   UNL     1       5.231  -1.697  -0.054  0.00  0.00    +0.043 C 
ATOM     11  C   UNL     1       5.557  -3.152   0.314  0.00  0.00    +0.005 C 
ATOM     12  C   UNL     1       4.671  -4.082  -0.519  0.00  0.00    +0.005 C 
ATOM     13  C   UNL     1       3.219  -3.976  -0.049  0.00  0.00    +0.037 C 
BRANCH   6  14
ATOM     14  C   UNL     1       0.318  -3.002  -0.005  0.00  0.00    +0.244 C 
ATOM     15  O   UNL     1      -0.157  -3.396  -1.054  0.00  0.00    -0.270 OA
ATOM     16  N   UNL     1      -0.182  -3.439   1.168  0.00  0.00    -0.325 N 
ATOM     17  H   UNL     1       0.197  -3.125   2.004  0.00  0.00    +0.145 HD
ATOM     18  H   UNL     1      -0.920  -4.069   1.176  0.00  0.00    +0.145 HD
ENDBRANCH   6  14
ENDBRANCH   3   5
BRANCH   1  19
ATOM     19  C   UNL     1      -1.331   2.079   0.020  0.00  0.00    +0.173 C 
BRANCH  19  20
ATOM     20  S   UNL     1      -1.025   3.863   0.028  0.00  0.00    -0.075 S 
BRANCH  20  24
ATOM     21  C   UNL     1      -4.450   5.744   0.054  0.00  0.00    +0.185 A 
ATOM     22  N   UNL     1      -4.812   4.483   0.050  0.00  0.00    -0.127 NA
ATOM     23  N   UNL     1      -3.773   3.727   0.041  0.00  0.00    -0.121 NA
ATOM     24  C   UNL     1      -2.683   4.458   0.039  0.00  0.00    +0.209 A 
ATOM     25  N   UNL     1      -3.075   5.768   0.053  0.00  0.00    -0.224 N 
BRANCH  21  28
ATOM     26  C   UNL     1      -7.584   5.682   0.056  0.00  0.00    +0.087 C 
ATOM     27  C   UNL     1      -6.710   6.910   0.065  0.00  0.00    +0.112 A 
ATOM     28  C   UNL     1      -5.350   6.918   0.064  0.00  0.00    +0.061 A 
ATOM     29  C   UNL     1      -4.960   8.334   0.070  0.00  0.00    +0.053 A 
ATOM     30  C   UNL     1      -6.106   9.034   0.078  0.00  0.00    +0.196 A 
ATOM     31  O   UNL     1      -7.141   8.180   0.078  0.00  0.00    -0.467 OA
ENDBRANCH  21  28
BRANCH  25  32
ATOM     32  N   UNL     1      -2.268   6.871   0.062  0.00  0.00    -0.295 N 
ATOM     33  H   UNL     1      -2.058   7.173  -0.877  0.00  0.00    +0.163 HD
ATOM     34  H   UNL     1      -2.684   7.619   0.598  0.00  0.00    +0.163 HD
ENDBRANCH  25  32
ENDBRANCH  20  24
ENDBRANCH  19  20
ENDBRANCH   1  19
TORSDOF 7
