REMARK  Name = ZINC63375930
REMARK  5 active torsions:
REMARK  status: ('A' for Active; 'I' for Inactive)
REMARK    1  A    between atoms: C_2  and  C_3
REMARK    2  A    between atoms: C_3  and  N_4
REMARK    3  A    between atoms: C_5  and  C_7
REMARK    4  A    between atoms: C_12  and  N_13
REMARK    5  A    between atoms: C_29  and  C_34
REMARK                            x       y       z     vdW  Elec       q    Type
REMARK                         _______ _______ _______ _____ _____    ______ ____
ROOT
ATOM      1  N   UNL     1       4.724  -4.106   1.757  0.00  0.00    -0.192 N 
ATOM      2  C   UNL     1       5.767  -3.268   1.926  0.00  0.00    +0.248 C 
ATOM      3  O   UNL     1       5.920  -2.459   2.815  0.00  0.00    -0.273 OA
ATOM      4  C   UNL     1       6.708  -3.549   0.774  0.00  0.00    +0.169 C 
ATOM      5  C   UNL     1       6.916  -2.269  -0.055  0.00  0.00    +0.065 C 
ATOM      6  C   UNL     1       7.312  -2.718  -1.442  0.00  0.00    -0.034 C 
ATOM      7  C   UNL     1       7.473  -2.024  -2.564  0.00  0.00    -0.001 A 
ATOM      8  C   UNL     1       7.413  -0.580  -2.838  0.00  0.00    +0.010 A 
ATOM      9  C   UNL     1       7.615  -0.206  -4.129  0.00  0.00    +0.001 A 
ATOM     10  C   UNL     1       7.866  -1.114  -5.162  0.00  0.00    +0.002 A 
ATOM     11  C   UNL     1       7.945  -2.459  -5.000  0.00  0.00    +0.026 A 
ATOM     12  C   UNL     1       7.756  -2.973  -3.684  0.00  0.00    +0.043 A 
ATOM     13  N   UNL     1       7.795  -4.196  -3.244  0.00  0.00    -0.375 N 
ATOM     14  C   UNL     1       7.596  -4.173  -1.793  0.00  0.00    +0.131 C 
ATOM     15  C   UNL     1       6.361  -4.985  -1.382  0.00  0.00    +0.135 C 
ATOM     16  N   UNL     1       5.963  -4.531  -0.040  0.00  0.00    -0.264 N 
ATOM     17  C   UNL     1       4.859  -4.849   0.649  0.00  0.00    +0.317 C 
ATOM     18  O   UNL     1       4.071  -5.708   0.308  0.00  0.00    -0.252 OA
ATOM     19  H   UNL     1       7.931  -4.989  -3.786  0.00  0.00    +0.160 HD
ENDROOT
BRANCH  15  20
ATOM     20  C   UNL     1       5.247  -4.762  -2.372  0.00  0.00    -0.023 A 
ATOM     21  C   UNL     1       4.476  -3.617  -2.298  0.00  0.00    +0.005 A 
ATOM     22  C   UNL     1       3.454  -3.412  -3.205  0.00  0.00    +0.002 A 
ATOM     23  C   UNL     1       3.202  -4.352  -4.188  0.00  0.00    +0.020 A 
ATOM     24  C   UNL     1       3.973  -5.498  -4.262  0.00  0.00    +0.041 A 
ATOM     25  C   UNL     1       5.000  -5.700  -3.357  0.00  0.00    +0.025 A 
ATOM     26 CL   UNL     1       3.658  -6.678  -5.495  0.00  0.00    -0.084 Cl
ENDBRANCH  15  20
BRANCH   1  32
ATOM     27  C   UNL     1       2.507  -3.389   2.433  0.00  0.00    +0.059 A 
ATOM     28  C   UNL     1       1.426  -3.490   3.311  0.00  0.00    +0.015 A 
ATOM     29  C   UNL     1       1.479  -4.373   4.369  0.00  0.00    +0.001 A 
ATOM     30  C   UNL     1       2.601  -5.162   4.565  0.00  0.00    +0.002 A 
ATOM     31  C   UNL     1       3.677  -5.073   3.704  0.00  0.00    +0.025 A 
ATOM     32  C   UNL     1       3.639  -4.194   2.631  0.00  0.00    +0.058 A 
BRANCH  27  34
ATOM     33  N   UNL     1       1.367  -1.676   1.111  0.00  0.00    -0.308 N 
ATOM     34  C   UNL     1       2.457  -2.447   1.299  0.00  0.00    +0.246 C 
ATOM     35  O   UNL     1       3.398  -2.366   0.533  0.00  0.00    -0.270 OA
ATOM     36  H   UNL     1       0.617  -1.740   1.722  0.00  0.00    +0.149 HD
BRANCH  33  37
ATOM     37  C   UNL     1       1.317  -0.740  -0.015  0.00  0.00    +0.131 C 
BRANCH  37  39
ATOM     38  C   UNL     1      -0.016   1.306   0.009  0.00  0.00    +0.005 C 
ATOM     39  C   UNL     1       0.002  -0.004   0.002  0.00  0.00    -0.016 C 
ENDBRANCH  37  39
ENDBRANCH  33  37
ENDBRANCH  27  34
ENDBRANCH   1  32
TORSDOF 5
