REMARK  Name = ZINC02257209
REMARK  11 active torsions:
REMARK  status: ('A' for Active; 'I' for Inactive)
REMARK    1  A    between atoms: C_1  and  C_2
REMARK    2  A    between atoms: N_8  and  C_9
REMARK    3  A    between atoms: C_9  and  C_10
REMARK    4  A    between atoms: C_10  and  N_52
REMARK    5  A    between atoms: C_11  and  N_52
REMARK    6  A    between atoms: C_12  and  N_52
REMARK    7  A    between atoms: C_13  and  C_21
REMARK    8  A    between atoms: C_15  and  C_19
REMARK    9  A    between atoms: C_16  and  N_18
REMARK   10  A    between atoms: C_24  and  O_27
REMARK   11  A    between atoms: O_27  and  C_28
REMARK                            x       y       z     vdW  Elec       q    Type
REMARK                         _______ _______ _______ _____ _____    ______ ____
ROOT
ATOM      1  C   UNL     1       5.697   2.522  -1.735  0.00  0.00    +0.064 C 
ATOM      2  C   UNL     1       4.530   1.704  -1.243  0.00  0.00    +0.022 A 
ATOM      3  C   UNL     1       3.463   2.327  -0.700  0.00  0.00    +0.068 A 
ATOM      4  C   UNL     1       2.368   1.566  -0.238  0.00  0.00    +0.141 A 
ATOM      5  C   UNL     1       2.414   0.193  -0.353  0.00  0.00    +0.072 A 
ATOM      6  C   UNL     1       3.542  -0.409  -0.923  0.00  0.00    +0.259 A 
ATOM      7  O   UNL     1       3.596  -1.625  -1.032  0.00  0.00    -0.267 OA
ATOM      8  N   UNL     1       4.567   0.350  -1.353  0.00  0.00    -0.314 N 
ATOM      9  C   UNL     1       1.269  -0.657   0.127  0.00  0.00    +0.103 C 
ATOM     10  C   UNL     1       0.042   0.190   0.320  0.00  0.00    +0.098 C 
ATOM     11  C   UNL     1       0.124   1.539   0.397  0.00  0.00    +0.199 C 
ATOM     12  O   UNL     1       1.299   2.186   0.305  0.00  0.00    -0.441 OA
ENDROOT
BRANCH   9  13
ATOM     13  C   UNL     1       1.641  -1.302   1.437  0.00  0.00    -0.034 A 
ATOM     14  C   UNL     1       1.950  -0.515   2.532  0.00  0.00    +0.008 A 
ATOM     15  C   UNL     1       2.286  -1.105   3.735  0.00  0.00    +0.046 A 
ATOM     16  C   UNL     1       2.325  -2.487   3.842  0.00  0.00    +0.120 A 
ATOM     17  C   UNL     1       2.021  -3.275   2.740  0.00  0.00    +0.046 A 
ATOM     18  C   UNL     1       1.680  -2.680   1.541  0.00  0.00    +0.008 A 
BRANCH  16  19
ATOM     19  O   UNL     1       2.662  -3.070   5.022  0.00  0.00    -0.495 OA
ATOM     20  C   UNL     1       2.962  -2.197   6.114  0.00  0.00    +0.277 C 
ENDBRANCH  16  19
ENDBRANCH   9  13
BRANCH  11  21
ATOM     21  N   UNL     1      -1.026   2.268   0.568  0.00  0.00    -0.328 N 
ATOM     22  H   UNL     1      -1.882   1.816   0.632  0.00  0.00    +0.145 HD
ATOM     23  H   UNL     1      -0.983   3.235   0.625  0.00  0.00    +0.145 HD
ENDBRANCH  11  21
BRANCH  10  24
ATOM     24  C   UNL     1      -1.239  -0.443   0.425  0.00  0.00    +0.101 C 
ATOM     25  N   UNL     1      -2.254  -0.945   0.508  0.00  0.00    -0.191 NA
ENDBRANCH  10  24
BRANCH   8  26
ATOM     26  C   UNL     1       5.741  -0.293  -1.948  0.00  0.00    +0.106 C 
BRANCH  26  27
ATOM     27  C   UNL     1       5.516  -0.476  -3.450  0.00  0.00    -0.058 C 
BRANCH  27  30
ATOM     28  C   UNL     1       6.851  -2.494  -3.547  0.00  0.00    -0.097 C 
ATOM     29  C   UNL     1       6.618  -1.101  -5.514  0.00  0.00    -0.097 C 
ATOM     30  N   UNL     1       6.716  -1.107  -4.039  0.00  0.00    +0.377 N 
ATOM     31  H   UNL     1       7.546  -0.571  -3.758  0.00  0.00    -0.083 HD
ENDBRANCH  27  30
ENDBRANCH  26  27
ENDBRANCH   8  26
TORSDOF 7
