REMARK  Name = ZINC34061037
REMARK  6 active torsions:
REMARK  status: ('A' for Active; 'I' for Inactive)
REMARK    1  A    between atoms: C_1  and  C_2
REMARK    2  A    between atoms: C_2  and  O_3
REMARK    3  A    between atoms: O_3  and  C_4
REMARK    4  A    between atoms: C_4  and  C_6
REMARK    5  A    between atoms: C_11  and  N_16
REMARK    6  A    between atoms: C_13  and  O_15
REMARK                            x       y       z     vdW  Elec       q    Type
REMARK                         _______ _______ _______ _____ _____    ______ ____
ROOT
ATOM      1  C   UNL     1       2.154   0.032  -1.268  0.00  0.00    +0.125 C 
ATOM      2  C   UNL     1       2.133   1.562  -1.259  0.00  0.00    +0.017 C 
ATOM      3  C   UNL     1       1.417   2.055  -0.000  0.00  0.00    -0.001 C 
ATOM      4  C   UNL     1      -0.019   1.526   0.010  0.00  0.00    -0.014 C 
ATOM      5  C   UNL     1       0.002  -0.004   0.002  0.00  0.00    -0.045 C 
ATOM      6  C   UNL     1       0.718  -0.497  -1.257  0.00  0.00    +0.114 C 
ENDROOT
BRANCH   5   7
ATOM      7  N   UNL     1       0.713  -0.491   1.192  0.00  0.00    +0.382 N 
ATOM      8  H   UNL     1       0.728  -1.591   1.186  0.00  0.00    -0.090 HD
ATOM      9  H   UNL     1       0.198  -0.136   2.097  0.00  0.00    -0.090 HD
ATOM     10  H   UNL     1       1.745  -0.110   1.184  0.00  0.00    -0.090 HD
ENDBRANCH   5   7
BRANCH   1  11
ATOM     11  C   UNL     1       2.859  -0.454  -2.507  0.00  0.00    +0.313 C 
ATOM     12  O   UNL     1       2.274  -1.152  -3.301  0.00  0.00    -0.250 OA
BRANCH  11  13
ATOM     13  O   UNL     1       4.138  -0.111  -2.730  0.00  0.00    -0.465 OA
BRANCH  13  15
ATOM     14  C   UNL     1       6.200  -0.124  -4.025  0.00  0.00    +0.048 C 
ATOM     15  C   UNL     1       4.753  -0.615  -3.945  0.00  0.00    +0.229 C 
ENDBRANCH  13  15
ENDBRANCH  11  13
ENDBRANCH   1  11
BRANCH   6  16
ATOM     16  O   UNL     1       0.738  -1.926  -1.265  0.00  0.00    -0.393 OA
ATOM     17  H   UNL     1      -0.207  -2.489  -1.259  0.00  0.00    +0.210 HD
ENDBRANCH   6  16
TORSDOF 5
