REMARK  Name = ZINC13100668
REMARK  11 active torsions:
REMARK  status: ('A' for Active; 'I' for Inactive)
REMARK    1  A    between atoms: C_1  and  C_2
REMARK    2  A    between atoms: C_7  and  N_8
REMARK    3  A    between atoms: C_21  and  S_22
REMARK    4  A    between atoms: S_22  and  C_23
REMARK    5  A    between atoms: C_23  and  C_24
REMARK    6  A    between atoms: N_26  and  C_27
REMARK    7  A    between atoms: C_27  and  C_28
REMARK    8  A    between atoms: C_28  and  C_30
REMARK    9  A    between atoms: C_28  and  N_65
REMARK   10  A    between atoms: C_36  and  N_65
REMARK   11  A    between atoms: C_37  and  N_65
REMARK                            x       y       z     vdW  Elec       q    Type
REMARK                         _______ _______ _______ _____ _____    ______ ____
ROOT
ATOM      1  N   UNL     1       4.120   0.911  -5.273  0.00  0.00    -0.245 N 
ATOM      2  C   UNL     1       3.364   1.485  -6.232  0.00  0.00    +0.268 A 
ATOM      3  O   UNL     1       3.734   1.488  -7.391  0.00  0.00    -0.267 OA
ATOM      4  C   UNL     1       2.082   2.106  -5.854  0.00  0.00    +0.064 A 
ATOM      5  C   UNL     1       1.263   2.712  -6.805  0.00  0.00    +0.015 A 
ATOM      6  C   UNL     1       0.071   3.284  -6.413  0.00  0.00    +0.001 A 
ATOM      7  C   UNL     1      -0.315   3.258  -5.082  0.00  0.00    +0.002 A 
ATOM      8  C   UNL     1       0.488   2.661  -4.131  0.00  0.00    +0.027 A 
ATOM      9  C   UNL     1       1.690   2.081  -4.506  0.00  0.00    +0.064 A 
ATOM     10  N   UNL     1       2.517   1.468  -3.573  0.00  0.00    -0.255 N 
ATOM     11  C   UNL     1       3.706   0.902  -3.950  0.00  0.00    +0.245 A 
ATOM     12  N   UNL     1       4.258   0.416  -2.864  0.00  0.00    -0.109 NA
ATOM     13  N   UNL     1       3.506   0.642  -1.847  0.00  0.00    -0.120 NA
ATOM     14  C   UNL     1       2.426   1.287  -2.219  0.00  0.00    +0.198 A 
ENDROOT
BRANCH   1  21
ATOM     15  C   UNL     1       6.462   2.528  -5.235  0.00  0.00    +0.046 C 
ATOM     16  C   UNL     1       6.506   1.070  -5.614  0.00  0.00    -0.026 A 
ATOM     17  C   UNL     1       7.709   0.479  -5.951  0.00  0.00    +0.005 A 
ATOM     18  C   UNL     1       7.749  -0.857  -6.304  0.00  0.00    +0.000 A 
ATOM     19  C   UNL     1       6.588  -1.608  -6.316  0.00  0.00    +0.002 A 
ATOM     20  C   UNL     1       5.383  -1.025  -5.975  0.00  0.00    +0.026 A 
ATOM     21  C   UNL     1       5.339   0.317  -5.620  0.00  0.00    +0.056 A 
ENDBRANCH   1  21
BRANCH  14  22
ATOM     22  S   UNL     1       1.106   1.812  -1.177  0.00  0.00    -0.076 S 
BRANCH  22  23
ATOM     23  C   UNL     1       1.605   1.256   0.477  0.00  0.00    +0.173 C 
BRANCH  23  24
ATOM     24  C   UNL     1       0.549   1.647   1.478  0.00  0.00    +0.223 C 
ATOM     25  O   UNL     1      -0.443   2.243   1.112  0.00  0.00    -0.275 OA
ATOM     26  N   UNL     1       0.706   1.336   2.780  0.00  0.00    -0.316 N 
ATOM     27  H   UNL     1       1.499   0.860   3.072  0.00  0.00    +0.149 HD
BRANCH  26  28
ATOM     28  C   UNL     1      -0.321   1.716   3.753  0.00  0.00    +0.093 C 
BRANCH  28  29
ATOM     29  C   UNL     1       0.035   1.136   5.123  0.00  0.00    -0.021 C 
BRANCH  29  30
ATOM     30  C   UNL     1       0.025  -0.369   5.049  0.00  0.00    -0.059 A 
ATOM     31  C   UNL     1      -1.173  -1.056   5.114  0.00  0.00    +0.002 A 
ATOM     32  C   UNL     1      -1.183  -2.436   5.042  0.00  0.00    +0.000 A 
ATOM     33  C   UNL     1       0.005  -3.131   4.914  0.00  0.00    +0.000 A 
ATOM     34  C   UNL     1       1.204  -2.444   4.854  0.00  0.00    +0.000 A 
ATOM     35  C   UNL     1       1.213  -1.064   4.922  0.00  0.00    +0.002 A 
ENDBRANCH  29  30
BRANCH  29  38
ATOM     36  C   UNL     1      -0.610   1.087   7.456  0.00  0.00    -0.096 C 
ATOM     37  C   UNL     1      -1.072   3.048   6.113  0.00  0.00    -0.096 C 
ATOM     38  N   UNL     1      -0.975   1.573   6.109  0.00  0.00    +0.382 N 
ATOM     39  H   UNL     1      -1.887   1.180   5.848  0.00  0.00    -0.082 HD
ENDBRANCH  29  38
ENDBRANCH  28  29
ENDBRANCH  26  28
ENDBRANCH  23  24
ENDBRANCH  22  23
ENDBRANCH  14  22
TORSDOF 8
