REMARK  Name = ZINC38551113
REMARK  9 active torsions:
REMARK  status: ('A' for Active; 'I' for Inactive)
REMARK    1  A    between atoms: C_1  and  C_2
REMARK    2  A    between atoms: N_8  and  C_9
REMARK    3  A    between atoms: C_9  and  C_11
REMARK    4  A    between atoms: C_9  and  C_20
REMARK    5  A    between atoms: C_14  and  C_17
REMARK    6  A    between atoms: C_17  and  C_18
REMARK    7  A    between atoms: C_17  and  C_19
REMARK    8  A    between atoms: C_24  and  N_25
REMARK    9  A    between atoms: C_26  and  C_28
REMARK                            x       y       z     vdW  Elec       q    Type
REMARK                         _______ _______ _______ _____ _____    ______ ____
ROOT
ATOM      1  C   UNL     1      -0.088  -2.028   3.592  0.00  0.00    +0.135 C 
ENDROOT
BRANCH   1   9
ATOM      2  C   UNL     1      -2.565  -6.446   4.387  0.00  0.00    +0.044 C 
ATOM      3  C   UNL     1      -1.830  -5.828   3.225  0.00  0.00    -0.046 A 
ATOM      4  C   UNL     1      -1.686  -6.518   2.029  0.00  0.00    +0.021 A 
ATOM      5  C   UNL     1      -1.008  -5.925   0.983  0.00  0.00    +0.084 A 
ATOM      6  N   UNL     1      -0.497  -4.714   1.108  0.00  0.00    -0.350 N 
ATOM      7  C   UNL     1      -0.613  -4.025   2.232  0.00  0.00    +0.097 A 
ATOM      8  C   UNL     1      -1.289  -4.559   3.324  0.00  0.00    +0.045 A 
ATOM      9  N   UNL     1      -0.060  -2.753   2.320  0.00  0.00    -0.320 N 
ATOM     10  H   UNL     1       0.345  -2.345   1.538  0.00  0.00    +0.148 HD
ATOM     11  H   UNL     1      -0.026  -4.320   0.357  0.00  0.00    +0.166 HD
ENDBRANCH   1   9
BRANCH   1  12
ATOM     12  C   UNL     1      -1.446  -1.402   3.784  0.00  0.00    +0.009 A 
ATOM     13  C   UNL     1      -2.063  -1.442   5.035  0.00  0.00    -0.030 A 
ATOM     14  C   UNL     1      -3.287  -0.857   5.129  0.00  0.00    -0.005 A 
ATOM     15  S   UNL     1      -3.594  -0.246   3.493  0.00  0.00    -0.078 S 
ATOM     16  C   UNL     1      -2.069  -0.793   2.741  0.00  0.00    +0.078 A 
ATOM     17  C   UNL     1      -4.160  -0.759   6.338  0.00  0.00    +0.043 C 
ATOM     18  C   UNL     1      -3.635  -1.744   7.393  0.00  0.00    +0.005 C 
ATOM     19  C   UNL     1      -2.119  -1.571   7.515  0.00  0.00    +0.005 C 
ATOM     20  C   UNL     1      -1.428  -2.099   6.257  0.00  0.00    +0.036 C 
BRANCH  16  21
ATOM     21  N   UNL     1      -1.632  -0.638   1.424  0.00  0.00    -0.273 N 
ATOM     22  C   UNL     1      -2.348   0.109   0.560  0.00  0.00    +0.284 C 
ATOM     23  O   UNL     1      -3.324   0.722   0.950  0.00  0.00    -0.266 OA
ATOM     24  H   UNL     1      -0.813  -1.068   1.131  0.00  0.00    +0.156 HD
BRANCH  22  25
ATOM     25  C   UNL     1      -1.949   0.183  -0.849  0.00  0.00    +0.189 A 
ATOM     26  C   UNL     1      -2.521   0.975  -1.804  0.00  0.00    +0.054 A 
ATOM     27  C   UNL     1      -1.829   0.728  -3.000  0.00  0.00    +0.042 A 
ATOM     28  C   UNL     1      -0.878  -0.192  -2.727  0.00  0.00    +0.196 A 
ATOM     29  O   UNL     1      -0.950  -0.514  -1.429  0.00  0.00    -0.458 OA
ENDBRANCH  22  25
ENDBRANCH  16  21
ENDBRANCH   1  12
BRANCH   1  30
ATOM     30  C   UNL     1       0.965  -0.949   3.580  0.00  0.00    -0.023 A 
ATOM     31  C   UNL     1       1.249  -0.274   2.407  0.00  0.00    +0.006 A 
ATOM     32  C   UNL     1       2.214   0.715   2.396  0.00  0.00    +0.004 A 
ATOM     33  C   UNL     1       2.895   1.030   3.557  0.00  0.00    -0.045 A 
ATOM     34  C   UNL     1       2.610   0.356   4.729  0.00  0.00    +0.004 A 
ATOM     35  C   UNL     1       1.642  -0.631   4.742  0.00  0.00    +0.006 A 
BRANCH  33  36
ATOM     36  C   UNL     1       3.948   2.108   3.544  0.00  0.00    +0.013 C 
ATOM     37  C   UNL     1       3.555   3.217   4.521  0.00  0.00    +0.012 C 
ATOM     38  C   UNL     1       5.293   1.512   3.964  0.00  0.00    +0.012 C 
ENDBRANCH  33  36
ENDBRANCH   1  30
TORSDOF 6
