REMARK  Name = ZINC05351504
REMARK  12 active torsions:
REMARK  status: ('A' for Active; 'I' for Inactive)
REMARK    1  A    between atoms: C_1  and  C_2
REMARK    2  A    between atoms: C_2  and  C_4
REMARK    3  A    between atoms: C_4  and  O_34
REMARK    4  A    between atoms: C_8  and  O_25
REMARK    5  A    between atoms: C_11  and  O_12
REMARK    6  A    between atoms: C_19  and  O_23
REMARK    7  A    between atoms: O_23  and  C_24
REMARK    8  A    between atoms: C_26  and  O_29
REMARK    9  A    between atoms: O_29  and  C_30
REMARK   10  A    between atoms: C_30  and  C_32
REMARK   11  A    between atoms: C_32  and  C_33
REMARK   12  A    between atoms: C_33  and  N_57
REMARK                            x       y       z     vdW  Elec       q    Type
REMARK                         _______ _______ _______ _____ _____    ______ ____
ROOT
ATOM      1  C   UNL     1       0.090   0.120   0.183  0.00  0.00    +0.131 C 
ATOM      2  C   UNL     1       0.133  -0.398  -1.253  0.00  0.00    +0.082 C 
ATOM      3  C   UNL     1      -1.195  -0.187  -1.934  0.00  0.00    +0.008 A 
ATOM      4  C   UNL     1      -2.352   0.058  -1.238  0.00  0.00    +0.042 A 
ATOM      5  C   UNL     1      -3.560   0.239  -1.925  0.00  0.00    +0.136 A 
ATOM      6  C   UNL     1      -3.599   0.178  -3.317  0.00  0.00    +0.078 A 
ATOM      7  C   UNL     1      -2.410  -0.069  -4.032  0.00  0.00    +0.078 A 
ATOM      8  C   UNL     1      -1.218  -0.249  -3.334  0.00  0.00    +0.132 A 
ATOM      9  C   UNL     1      -2.435  -0.135  -5.503  0.00  0.00    +0.198 C 
ATOM     10  O   UNL     1      -1.409  -0.346  -6.120  0.00  0.00    -0.286 OA
ATOM     11  C   UNL     1      -3.709   0.057  -6.227  0.00  0.00    +0.037 A 
ATOM     12  C   UNL     1      -3.742  -0.007  -7.616  0.00  0.00    +0.012 A 
ATOM     13  C   UNL     1      -4.939   0.173  -8.290  0.00  0.00    +0.004 A 
ATOM     14  C   UNL     1      -6.106   0.416  -7.595  0.00  0.00    +0.046 A 
ATOM     15  C   UNL     1      -6.096   0.483  -6.205  0.00  0.00    +0.132 A 
ATOM     16  C   UNL     1      -4.895   0.303  -5.511  0.00  0.00    +0.075 A 
ATOM     17  C   UNL     1      -4.869   0.371  -4.039  0.00  0.00    +0.202 C 
ATOM     18  O   UNL     1      -5.895   0.586  -3.421  0.00  0.00    -0.286 OA
ATOM     19  C   UNL     1      -2.389   0.151   0.266  0.00  0.00    +0.214 C 
ATOM     20  C   UNL     1      -1.140  -0.480   0.876  0.00  0.00    +0.092 C 
ENDROOT
BRANCH   1  22
ATOM     21  C   UNL     1       0.459   2.416   1.369  0.00  0.00    +0.089 C 
ATOM     22  C   UNL     1      -0.014   1.624   0.177  0.00  0.00    +0.162 C 
ATOM     23  O   UNL     1      -0.470   2.194  -0.784  0.00  0.00    -0.295 OA
ENDBRANCH   1  22
BRANCH   8  24
ATOM     24  O   UNL     1      -0.069  -0.488  -4.015  0.00  0.00    -0.506 OA
ATOM     25  H   UNL     1       0.107  -1.426  -4.171  0.00  0.00    +0.292 HD
ENDBRANCH   8  24
BRANCH  15  26
ATOM     26  O   UNL     1      -7.245   0.723  -5.526  0.00  0.00    -0.494 OA
ATOM     27  C   UNL     1      -8.432   0.897  -6.302  0.00  0.00    +0.277 C 
ENDBRANCH  15  26
BRANCH   5  28
ATOM     28  O   UNL     1      -4.700   0.475  -1.230  0.00  0.00    -0.506 OA
ATOM     29  H   UNL     1      -5.150  -0.326  -0.928  0.00  0.00    +0.292 HD
ENDBRANCH   5  28
BRANCH   1  30
ATOM     30  O   UNL     1       1.275  -0.278   0.874  0.00  0.00    -0.381 OA
ATOM     31  H   UNL     1       2.092   0.060   0.482  0.00  0.00    +0.211 HD
ENDBRANCH   1  30
BRANCH  19  32
ATOM     32  O   UNL     1      -3.565  -0.545   0.759  0.00  0.00    -0.456 OA
BRANCH  32  33
ATOM     33  C   UNL     1      -4.152  -0.045   1.857  0.00  0.00    +0.306 C 
ATOM     34  O   UNL     1      -3.647   0.882   2.444  0.00  0.00    -0.251 OA
BRANCH  33  35
ATOM     35  C   UNL     1      -5.443  -0.640   2.358  0.00  0.00    +0.101 C 
BRANCH  35  36
ATOM     36  C   UNL     1      -5.896   0.108   3.614  0.00  0.00    -0.075 C 
BRANCH  36  39
ATOM     37  H   UNL     1      -7.054  -1.462   4.271  0.00  0.00    -0.090 HD
ATOM     38  H   UNL     1      -7.474   0.005   4.932  0.00  0.00    -0.090 HD
ATOM     39  N   UNL     1      -7.169  -0.468   4.083  0.00  0.00    +0.378 N 
ATOM     40  H   UNL     1      -7.883  -0.344   3.356  0.00  0.00    -0.090 HD
ENDBRANCH  36  39
ENDBRANCH  35  36
ENDBRANCH  33  35
ENDBRANCH  32  33
ENDBRANCH  19  32
TORSDOF 10
