REMARK  Name = ZINC39325029
REMARK  7 active torsions:
REMARK  status: ('A' for Active; 'I' for Inactive)
REMARK    1  A    between atoms: C_1  and  C_2
REMARK    2  A    between atoms: C_2  and  C_3
REMARK    3  A    between atoms: C_10  and  C_15
REMARK    4  A    between atoms: C_15  and  N_16
REMARK    5  A    between atoms: N_16  and  C_17
REMARK    6  A    between atoms: N_16  and  S_23
REMARK    7  A    between atoms: S_23  and  C_26
REMARK                            x       y       z     vdW  Elec       q    Type
REMARK                         _______ _______ _______ _____ _____    ______ ____
ROOT
ATOM      1  N   UNL     1      -7.956  -1.674  -2.891  0.00  0.00    -0.172 NA
ENDROOT
BRANCH   1   2
ATOM      2  C   UNL     1      -8.877  -1.787  -1.758  0.00  0.00    +0.080 C 
ATOM      3  C   UNL     1      -9.546  -0.434  -1.508  0.00  0.00    +0.020 C 
ATOM      4  C   UNL     1     -10.509  -0.551  -0.325  0.00  0.00    +0.002 C 
ATOM      5  C   UNL     1      -9.732  -0.974   0.924  0.00  0.00    +0.000 C 
ATOM      6  C   UNL     1      -9.063  -2.327   0.675  0.00  0.00    +0.002 C 
ATOM      7  C   UNL     1      -8.101  -2.210  -0.509  0.00  0.00    +0.020 C 
ENDBRANCH   1   2
BRANCH   1   8
ATOM      8  S   UNL     1      -8.086  -2.717  -4.171  0.00  0.00    +0.062 S 
ATOM      9  O   UNL     1      -9.469  -3.011  -4.316  0.00  0.00    -0.153 OA
ATOM     10  O   UNL     1      -7.311  -2.165  -5.226  0.00  0.00    -0.153 OA
BRANCH   8  11
ATOM     11  C   UNL     1      -7.298  -4.221  -3.700  0.00  0.00    +0.119 A 
ATOM     12  C   UNL     1      -8.047  -5.370  -3.530  0.00  0.00    +0.029 A 
ATOM     13  C   UNL     1      -7.428  -6.550  -3.161  0.00  0.00    +0.002 A 
ATOM     14  C   UNL     1      -6.060  -6.581  -2.962  0.00  0.00    +0.001 A 
ATOM     15  C   UNL     1      -5.311  -5.433  -3.132  0.00  0.00    +0.017 A 
ATOM     16  C   UNL     1      -5.929  -4.253  -3.506  0.00  0.00    +0.044 A 
ATOM     17 BR   UNL     1      -4.903  -2.683  -3.746  0.00  0.00    -0.048 Br
ENDBRANCH   8  11
ENDBRANCH   1   8
BRANCH   1  18
ATOM     18  C   UNL     1      -6.919  -0.639  -2.892  0.00  0.00    +0.126 C 
BRANCH  18  26
ATOM     19  C   UNL     1      -4.734   4.267  -5.173  0.00  0.00    -0.047 A 
ATOM     20  C   UNL     1      -5.279   3.985  -6.425  0.00  0.00    +0.005 A 
ATOM     21  C   UNL     1      -6.202   3.007  -6.620  0.00  0.00    +0.024 A 
ATOM     22  C   UNL     1      -6.652   2.225  -5.540  0.00  0.00    +0.040 A 
ATOM     23  N   UNL     1      -7.557   1.267  -5.742  0.00  0.00    -0.284 N 
ATOM     24  C   UNL     1      -8.022   0.497  -4.773  0.00  0.00    +0.225 C 
ATOM     25  O   UNL     1      -8.848  -0.361  -5.019  0.00  0.00    -0.275 OA
ATOM     26  C   UNL     1      -7.523   0.687  -3.359  0.00  0.00    +0.114 C 
ATOM     27  C   UNL     1      -6.493   1.774  -3.123  0.00  0.00    -0.003 C 
ATOM     28  C   UNL     1      -6.093   2.501  -4.205  0.00  0.00    -0.007 A 
ATOM     29  C   UNL     1      -5.098   3.566  -4.068  0.00  0.00    +0.013 A 
ATOM     30  H   UNL     1      -7.890   1.129  -6.643  0.00  0.00    +0.155 HD
BRANCH  19  32
ATOM     31  C   UNL     1      -2.312   4.795  -5.253  0.00  0.00    +0.009 C 
ATOM     32  C   UNL     1      -3.715   5.370  -5.043  0.00  0.00    +0.032 C 
ENDBRANCH  19  32
ENDBRANCH  18  26
ENDBRANCH   1  18
TORSDOF 6
