REMARK  Name = ZINC37767392
REMARK  7 active torsions:
REMARK  status: ('A' for Active; 'I' for Inactive)
REMARK    1  A    between atoms: C_1  and  C_2
REMARK    2  A    between atoms: C_2  and  C_3
REMARK    3  A    between atoms: C_2  and  C_6
REMARK    4  A    between atoms: C_2  and  N_21
REMARK    5  A    between atoms: N_8  and  C_9
REMARK    6  A    between atoms: C_12  and  O_16
REMARK    7  A    between atoms: O_16  and  C_17
REMARK                            x       y       z     vdW  Elec       q    Type
REMARK                         _______ _______ _______ _____ _____    ______ ____
ROOT
ATOM      1  C   UNL     1      -1.411  -0.527   0.013  0.00  0.00    +0.206 C 
ATOM      2  O   UNL     1      -1.935  -0.836   1.062  0.00  0.00    -0.277 OA
ATOM      3  N   UNL     1      -2.090  -0.657  -1.144  0.00  0.00    -0.287 N 
ATOM      4  H   UNL     1      -1.697  -0.348  -1.975  0.00  0.00    +0.155 HD
ENDROOT
BRANCH   3   5
ATOM      5  C   UNL     1      -3.365  -1.239  -1.147  0.00  0.00    +0.036 A 
ATOM      6  C   UNL     1      -3.765  -2.028  -2.217  0.00  0.00    +0.047 A 
ATOM      7  C   UNL     1      -5.023  -2.603  -2.219  0.00  0.00    +0.086 A 
ATOM      8  C   UNL     1      -5.885  -2.390  -1.152  0.00  0.00    +0.163 A 
ATOM      9  C   UNL     1      -5.484  -1.601  -0.083  0.00  0.00    +0.086 A 
ATOM     10  C   UNL     1      -4.225  -1.032  -0.077  0.00  0.00    +0.047 A 
ATOM     11 CL   UNL     1      -6.563  -1.335   1.251  0.00  0.00    -0.080 Cl
ATOM     12 CL   UNL     1      -5.524  -3.589  -3.556  0.00  0.00    -0.080 Cl
BRANCH   8  13
ATOM     13  O   UNL     1      -7.122  -2.955  -1.155  0.00  0.00    -0.431 OA
BRANCH  13  14
ATOM     14  C   UNL     1      -7.243  -4.254  -0.572  0.00  0.00    +0.541 C 
ATOM     15  F   UNL     1      -6.419  -5.152  -1.258  0.00  0.00    -0.166 F 
ATOM     16  F   UNL     1      -6.857  -4.200   0.772  0.00  0.00    -0.166 F 
ENDBRANCH  13  14
ENDBRANCH   8  13
ENDBRANCH   3   5
BRANCH   1  18
ATOM     17  C   UNL     1      -0.029   1.531   0.018  0.00  0.00    -0.001 C 
ATOM     18  C   UNL     1       0.000   0.002   0.002  0.00  0.00    +0.007 C 
BRANCH  18  19
ATOM     19  N   UNL     1       0.689  -0.463  -1.209  0.00  0.00    +0.388 N 
ATOM     20  H   UNL     1       1.633  -0.109  -1.216  0.00  0.00    -0.089 HD
ATOM     21  H   UNL     1       0.708  -1.472  -1.219  0.00  0.00    -0.089 HD
ATOM     22  H   UNL     1       0.198  -0.128  -2.025  0.00  0.00    -0.089 HD
ENDBRANCH  18  19
BRANCH  18  23
ATOM     23  C   UNL     1       0.744  -0.507   1.239  0.00  0.00    -0.014 C 
ATOM     24  C   UNL     1       1.013   0.495   2.363  0.00  0.00    +0.003 C 
ATOM     25  C   UNL     1       2.163   0.016   1.474  0.00  0.00    +0.003 C 
ENDBRANCH  18  23
ENDBRANCH   1  18
TORSDOF 6
