REMARK  Name = ZINC35863321
REMARK  9 active torsions:
REMARK  status: ('A' for Active; 'I' for Inactive)
REMARK    1  A    between atoms: C_1  and  C_2
REMARK    2  A    between atoms: C_2  and  C_3
REMARK    3  A    between atoms: C_11  and  O_23
REMARK    4  A    between atoms: C_14  and  C_16
REMARK    5  A    between atoms: O_23  and  C_24
REMARK    6  A    between atoms: C_24  and  C_25
REMARK    7  A    between atoms: C_28  and  C_30
REMARK    8  A    between atoms: N_35  and  C_38
REMARK    9  A    between atoms: C_38  and  C_39
REMARK                            x       y       z     vdW  Elec       q    Type
REMARK                         _______ _______ _______ _____ _____    ______ ____
ROOT
ATOM      1  C   UNL     1      -1.177  -0.518  -0.406  0.00  0.00    +0.216 C 
ATOM      2  O   UNL     1      -2.143   0.211  -0.328  0.00  0.00    -0.276 OA
ATOM      3  N   UNL     1      -1.305  -1.837  -0.160  0.00  0.00    -0.290 N 
ATOM      4  C   UNL     1      -0.171  -2.761  -0.326  0.00  0.00    +0.113 C 
ATOM      5  C   UNL     1       0.168  -3.339   1.047  0.00  0.00    +0.054 C 
ATOM      6  C   UNL     1      -1.076  -3.814   1.752  0.00  0.00    -0.040 A 
ATOM      7  C   UNL     1      -0.919  -4.730   2.786  0.00  0.00    +0.007 A 
ATOM      8  C   UNL     1      -2.013  -5.199   3.480  0.00  0.00    +0.046 A 
ATOM      9  C   UNL     1      -3.284  -4.754   3.146  0.00  0.00    +0.121 A 
ATOM     10  C   UNL     1      -3.441  -3.845   2.113  0.00  0.00    +0.051 A 
ATOM     11  C   UNL     1      -2.338  -3.378   1.413  0.00  0.00    -0.016 A 
ATOM     12  C   UNL     1      -2.579  -2.408   0.289  0.00  0.00    +0.137 C 
ENDROOT
BRANCH  12  13
ATOM     13  C   UNL     1      -3.484  -1.302   0.768  0.00  0.00    -0.020 A 
ATOM     14  C   UNL     1      -3.024  -0.387   1.697  0.00  0.00    +0.006 A 
ATOM     15  C   UNL     1      -3.853   0.628   2.138  0.00  0.00    +0.003 A 
ATOM     16  C   UNL     1      -5.142   0.729   1.650  0.00  0.00    +0.038 A 
ATOM     17  C   UNL     1      -5.603  -0.187   0.720  0.00  0.00    +0.124 A 
ATOM     18  C   UNL     1      -4.770  -1.200   0.275  0.00  0.00    +0.044 A 
ATOM     19  F   UNL     1      -6.864  -0.089   0.243  0.00  0.00    -0.205 F 
ENDBRANCH  12  13
BRANCH   1  21
ATOM     20  C   UNL     1       0.039   1.560  -1.001  0.00  0.00    +0.013 C 
ATOM     21  C   UNL     1       0.168   0.052  -0.777  0.00  0.00    +0.092 C 
ENDBRANCH   1  21
BRANCH   9  22
ATOM     22  O   UNL     1      -4.369  -5.208   3.827  0.00  0.00    -0.484 OA
BRANCH  22  23
ATOM     23  C   UNL     1      -4.129  -6.145   4.879  0.00  0.00    +0.303 C 
BRANCH  23  24
ATOM     24  C   UNL     1      -5.439  -6.532   5.516  0.00  0.00    +0.143 A 
ATOM     25  C   UNL     1      -6.222  -7.566   5.137  0.00  0.00    +0.049 A 
ATOM     26  C   UNL     1      -7.338  -7.571   5.988  0.00  0.00    +0.055 A 
ATOM     27  C   UNL     1      -7.177  -6.527   6.854  0.00  0.00    +0.190 A 
ATOM     28  O   UNL     1      -6.015  -5.912   6.554  0.00  0.00    -0.452 OA
BRANCH  27  29
ATOM     29  C   UNL     1      -8.103  -6.145   7.925  0.00  0.00    +0.282 C 
ATOM     30  O   UNL     1      -9.056  -6.855   8.187  0.00  0.00    -0.267 OA
ATOM     31  N   UNL     1      -7.898  -5.009   8.620  0.00  0.00    -0.299 N 
ATOM     32  C   UNL     1      -6.713  -4.173   8.369  0.00  0.00    +0.089 C 
ATOM     33  C   UNL     1      -7.175  -2.726   8.163  0.00  0.00    -0.059 C 
ATOM     34  N   UNL     1      -7.984  -2.303   9.313  0.00  0.00    +0.384 N 
ATOM     35  C   UNL     1      -9.213  -3.103   9.382  0.00  0.00    -0.059 C 
ATOM     36  C   UNL     1      -8.855  -4.565   9.645  0.00  0.00    +0.089 C 
ATOM     37  H   UNL     1      -7.452  -2.430  10.161  0.00  0.00    -0.081 HD
BRANCH  34  38
ATOM     38  C   UNL     1      -8.333  -0.883   9.167  0.00  0.00    -0.052 C 
BRANCH  38  39
ATOM     39  C   UNL     1      -9.058  -0.415  10.403  0.00  0.00    -0.053 C 
ATOM     40  C   UNL     1      -8.615   0.624  11.068  0.00  0.00    +0.002 C 
ENDBRANCH  38  39
ENDBRANCH  34  38
ENDBRANCH  27  29
ENDBRANCH  23  24
ENDBRANCH  22  23
ENDBRANCH   9  22
TORSDOF 8
