REMARK  Name = ZINC09109428
REMARK  8 active torsions:
REMARK  status: ('A' for Active; 'I' for Inactive)
REMARK    1  A    between atoms: C_1  and  C_2
REMARK    2  A    between atoms: C_2  and  C_4
REMARK    3  A    between atoms: C_2  and  N_10
REMARK    4  A    between atoms: C_13  and  C_19
REMARK    5  A    between atoms: C_14  and  O_18
REMARK    6  A    between atoms: C_16  and  O_17
REMARK    7  A    between atoms: C_25  and  O_31
REMARK    8  A    between atoms: O_31  and  C_32
REMARK                            x       y       z     vdW  Elec       q    Type
REMARK                         _______ _______ _______ _____ _____    ______ ____
ROOT
ATOM      1  N   UNL     1      -0.179   1.125   0.119  0.00  0.00    -0.255 N 
ATOM      2  C   UNL     1       1.088   1.585   0.186  0.00  0.00    +0.263 A 
ATOM      3  O   UNL     1       1.315   2.784   0.169  0.00  0.00    -0.267 OA
ATOM      4  C   UNL     1       2.137   0.661   0.275  0.00  0.00    +0.070 A 
ATOM      5  C   UNL     1       1.834  -0.689   0.291  0.00  0.00    +0.224 A 
ATOM      6  N   UNL     1       0.558  -1.084   0.222  0.00  0.00    -0.161 NA
ATOM      7  C   UNL     1      -0.421  -0.212   0.139  0.00  0.00    +0.302 A 
ENDROOT
BRANCH   4   8
ATOM      8  C   UNL     1       3.568   1.129   0.351  0.00  0.00    +0.018 C 
ATOM      9  C   UNL     1       3.940   1.833  -0.933  0.00  0.00    +0.011 A 
ATOM     10  C   UNL     1       4.638   2.991  -0.962  0.00  0.00    -0.022 A 
ATOM     11  C   UNL     1       4.801   3.358  -2.351  0.00  0.00    +0.006 A 
ATOM     12  C   UNL     1       5.426   4.440  -2.981  0.00  0.00    +0.056 A 
ATOM     13  C   UNL     1       5.385   4.464  -4.367  0.00  0.00    +0.121 A 
ATOM     14  C   UNL     1       4.755   3.465  -5.099  0.00  0.00    +0.047 A 
ATOM     15  C   UNL     1       4.132   2.389  -4.493  0.00  0.00    +0.030 A 
ATOM     16  C   UNL     1       4.158   2.340  -3.101  0.00  0.00    +0.047 A 
ATOM     17  N   UNL     1       3.650   1.436  -2.209  0.00  0.00    -0.359 N 
ATOM     18  H   UNL     1       3.158   0.634  -2.446  0.00  0.00    +0.166 HD
ATOM     19  C   UNL     1       5.122   3.702   0.277  0.00  0.00    +0.018 C 
ATOM     20  C   UNL     1       5.043   2.716   1.451  0.00  0.00    -0.076 C 
ATOM     21  N   UNL     1       3.711   2.077   1.477  0.00  0.00    +0.388 N 
ATOM     22  H   UNL     1       3.597   1.569   2.362  0.00  0.00    -0.084 HD
ATOM     23  H   UNL     1       2.987   2.801   1.403  0.00  0.00    -0.084 HD
BRANCH  13  24
ATOM     24  O   UNL     1       5.977   5.495  -5.027  0.00  0.00    -0.495 OA
ATOM     25  C   UNL     1       5.908   5.476  -6.455  0.00  0.00    +0.277 C 
ENDBRANCH  13  24
ENDBRANCH   4   8
BRANCH   1  27
ATOM     26  C   UNL     1      -0.778   3.494   0.222  0.00  0.00    +0.036 C 
ATOM     27  C   UNL     1      -1.296   2.068   0.019  0.00  0.00    +0.122 C 
BRANCH  27  28
ATOM     28  C   UNL     1      -1.931   1.953  -1.342  0.00  0.00    -0.025 A 
ATOM     29  C   UNL     1      -1.138   1.909  -2.474  0.00  0.00    +0.005 A 
ATOM     30  C   UNL     1      -1.720   1.798  -3.722  0.00  0.00    +0.000 A 
ATOM     31  C   UNL     1      -3.096   1.742  -3.840  0.00  0.00    +0.000 A 
ATOM     32  C   UNL     1      -3.890   1.790  -2.709  0.00  0.00    +0.000 A 
ATOM     33  C   UNL     1      -3.307   1.896  -1.460  0.00  0.00    +0.005 A 
ENDBRANCH  27  28
ENDBRANCH   1  27
BRANCH   7  34
ATOM     34  O   UNL     1      -1.694  -0.654   0.072  0.00  0.00    -0.479 OA
ATOM     35  H   UNL     1      -1.828  -1.611   0.088  0.00  0.00    +0.295 HD
ENDBRANCH   7  34
BRANCH   5  36
ATOM     36  O   UNL     1       2.826  -1.606   0.376  0.00  0.00    -0.492 OA
ATOM     37  H   UNL     1       2.515  -2.522   0.380  0.00  0.00    +0.294 HD
ENDBRANCH   5  36
TORSDOF 6
