REMARK  Name = ZINC44689570
REMARK  5 active torsions:
REMARK  status: ('A' for Active; 'I' for Inactive)
REMARK    1  A    between atoms: C_3  and  N_12
REMARK    2  A    between atoms: C_4  and  C_8
REMARK    3  A    between atoms: C_6  and  N_7
REMARK    4  A    between atoms: N_12  and  C_13
REMARK    5  A    between atoms: N_17  and  C_19
REMARK                            x       y       z     vdW  Elec       q    Type
REMARK                         _______ _______ _______ _____ _____    ______ ____
ROOT
ATOM      1  C   UNL     1      -0.017   1.384   0.010  0.00  0.00    +0.024 A 
ATOM      2  C   UNL     1       1.170   2.091   0.002  0.00  0.00    +0.025 A 
ATOM      3  C   UNL     1       2.381   1.413  -0.013  0.00  0.00    +0.039 A 
ATOM      4  C   UNL     1       2.400   0.025  -0.021  0.00  0.00    +0.077 A 
ATOM      5  C   UNL     1       1.214  -0.682  -0.014  0.00  0.00    +0.037 A 
ATOM      6  C   UNL     1       0.002  -0.004   0.002  0.00  0.00    +0.025 A 
ENDROOT
BRANCH   4   7
ATOM      7  C   UNL     1       3.715  -0.711  -0.037  0.00  0.00    +0.419 C 
ATOM      8  F   UNL     1       3.478  -2.090  -0.042  0.00  0.00    -0.166 F 
ATOM      9  F   UNL     1       4.433  -0.357  -1.185  0.00  0.00    -0.166 F 
ATOM     10  F   UNL     1       4.455  -0.369   1.100  0.00  0.00    -0.166 F 
ENDBRANCH   4   7
BRANCH   6  11
ATOM     11  N   UNL     1      -1.201  -0.721   0.010  0.00  0.00    -0.358 N 
ATOM     12  H   UNL     1      -2.047  -0.247   0.021  0.00  0.00    +0.142 HD
ATOM     13  H   UNL     1      -1.188  -1.690   0.005  0.00  0.00    +0.142 HD
ENDBRANCH   6  11
BRANCH   3  14
ATOM     14  N   UNL     1       3.584   2.130  -0.021  0.00  0.00    -0.342 N 
ATOM     15  H   UNL     1       4.431   1.656  -0.032  0.00  0.00    +0.146 HD
BRANCH  14  16
ATOM     16  C   UNL     1       3.564   3.594  -0.014  0.00  0.00    +0.052 C 
ATOM     17  C   UNL     1       3.531   4.157  -1.459  0.00  0.00    +0.002 C 
ATOM     18  C   UNL     1       4.180   5.549  -1.305  0.00  0.00    -0.077 C 
ATOM     19  N   UNL     1       5.000   5.516  -0.080  0.00  0.00    +0.383 N 
ATOM     20  C   UNL     1       4.904   4.165   0.515  0.00  0.00    -0.056 C 
ATOM     21  H   UNL     1       4.656   6.200   0.577  0.00  0.00    -0.081 HD
BRANCH  19  22
ATOM     22  C   UNL     1       6.399   5.812  -0.412  0.00  0.00    -0.069 C 
ATOM     23  C   UNL     1       7.111   6.884   0.416  0.00  0.00    -0.017 C 
ATOM     24  C   UNL     1       6.704   7.179  -1.029  0.00  0.00    -0.017 C 
ENDBRANCH  19  22
ENDBRANCH  14  16
ENDBRANCH   3  14
TORSDOF 5
