REMARK  Name = ZINC37622603
REMARK  8 active torsions:
REMARK  status: ('A' for Active; 'I' for Inactive)
REMARK    1  A    between atoms: C_1  and  C_2
REMARK    2  A    between atoms: C_2  and  C_3
REMARK    3  A    between atoms: C_3  and  C_4
REMARK    4  A    between atoms: C_4  and  C_5
REMARK    5  A    between atoms: C_4  and  C_6
REMARK    6  A    between atoms: C_4  and  N_19
REMARK    7  A    between atoms: N_8  and  C_9
REMARK    8  A    between atoms: C_12  and  C_15
REMARK                            x       y       z     vdW  Elec       q    Type
REMARK                         _______ _______ _______ _____ _____    ______ ____
ROOT
ATOM      1  C   UNL     1       1.444  -2.513  -2.505  0.00  0.00    +0.202 C 
ATOM      2  O   UNL     1       2.259  -1.804  -3.057  0.00  0.00    -0.277 OA
ATOM      3  N   UNL     1       1.170  -3.736  -3.001  0.00  0.00    -0.314 N 
ATOM      4  H   UNL     1       0.519  -4.304  -2.559  0.00  0.00    +0.149 HD
ENDROOT
BRANCH   3   5
ATOM      5  C   UNL     1       1.856  -4.209  -4.206  0.00  0.00    +0.073 C 
ATOM      6  C   UNL     1       1.116  -3.702  -5.445  0.00  0.00    +0.023 C 
ATOM      7  C   UNL     1       1.832  -4.196  -6.704  0.00  0.00    +0.014 C 
ATOM      8  C   UNL     1       1.853  -5.725  -6.713  0.00  0.00    +0.093 C 
ATOM      9  C   UNL     1       2.593  -6.232  -5.473  0.00  0.00    +0.014 C 
ATOM     10  C   UNL     1       1.877  -5.739  -4.214  0.00  0.00    +0.023 C 
BRANCH   8  11
ATOM     11  C   UNL     1       2.569  -6.219  -7.971  0.00  0.00    +0.393 C 
ATOM     12  F   UNL     1       3.882  -5.734  -7.981  0.00  0.00    -0.170 F 
ATOM     13  F   UNL     1       2.588  -7.618  -7.979  0.00  0.00    -0.170 F 
ATOM     14  F   UNL     1       1.893  -5.755  -9.105  0.00  0.00    -0.170 F 
ENDBRANCH   8  11
ENDBRANCH   3   5
BRANCH   1  15
ATOM     15  C   UNL     1       0.739  -2.027  -1.265  0.00  0.00    +0.004 C 
ATOM     16  C   UNL     1       1.479  -2.534  -0.026  0.00  0.00    -0.001 C 
BRANCH  15  17
ATOM     17  N   UNL     1      -0.639  -2.536  -1.255  0.00  0.00    +0.387 N 
ATOM     18  H   UNL     1      -1.127  -2.201  -2.072  0.00  0.00    -0.089 HD
ATOM     19  H   UNL     1      -0.625  -3.545  -1.260  0.00  0.00    -0.089 HD
ATOM     20  H   UNL     1      -1.111  -2.210  -0.425  0.00  0.00    -0.089 HD
ENDBRANCH  15  17
BRANCH  15  21
ATOM     21  C   UNL     1       0.718  -0.497  -1.257  0.00  0.00    -0.004 C 
BRANCH  21  23
ATOM     22  C   UNL     1      -0.019   1.526   0.010  0.00  0.00    +0.004 C 
ATOM     23  C   UNL     1       0.002  -0.004   0.002  0.00  0.00    -0.004 C 
ENDBRANCH  21  23
ENDBRANCH  15  21
ENDBRANCH   1  15
TORSDOF 6
