REMARK  Name = ZINC39352528
REMARK  10 active torsions:
REMARK  status: ('A' for Active; 'I' for Inactive)
REMARK    1  A    between atoms: C_1  and  C_2
REMARK    2  A    between atoms: C_7  and  C_8
REMARK    3  A    between atoms: C_11  and  C_35
REMARK    4  A    between atoms: C_20  and  C_22
REMARK    5  A    between atoms: C_25  and  C_28
REMARK    6  A    between atoms: C_31  and  N_34
REMARK    7  A    between atoms: C_35  and  C_36
REMARK    8  A    between atoms: C_36  and  C_37
REMARK    9  A    between atoms: C_37  and  C_38
REMARK   10  A    between atoms: C_37  and  C_39
REMARK                            x       y       z     vdW  Elec       q    Type
REMARK                         _______ _______ _______ _____ _____    ______ ____
ROOT
ATOM      1  C   UNL     1       0.170  -0.101   2.578  0.00  0.00    +0.031 C 
ATOM      2  N   UNL     1      -0.795   1.025   2.642  0.00  0.00    +0.395 N 
ATOM      3  C   UNL     1      -1.694   0.757   3.800  0.00  0.00    -0.050 C 
ATOM      4  C   UNL     1      -0.848  -0.187   4.670  0.00  0.00    +0.059 C 
ATOM      5  N   UNL     1      -0.211  -1.043   3.628  0.00  0.00    -0.308 NA
ATOM      6  C   UNL     1       0.837  -1.850   4.231  0.00  0.00    +0.102 C 
ATOM      7  C   UNL     1       0.165  -2.839   5.199  0.00  0.00    +0.123 C 
ATOM      8  N   UNL     1      -0.744  -2.120   6.101  0.00  0.00    -0.297 N 
ATOM      9  C   UNL     1      -1.680  -1.099   5.567  0.00  0.00    +0.125 C 
ATOM     10  C   UNL     1      -0.727  -2.375   7.424  0.00  0.00    +0.246 C 
ATOM     11  O   UNL     1      -1.478  -1.779   8.166  0.00  0.00    -0.273 OA
ATOM     12  H   UNL     1      -0.302   1.894   2.782  0.00  0.00    -0.083 HD
ATOM     13  H   UNL     1      -1.335   1.065   1.790  0.00  0.00    -0.083 HD
ENDROOT
BRANCH   1  20
ATOM     14  C   UNL     1       1.781   0.871   0.385  0.00  0.00    +0.044 C 
ATOM     15  C   UNL     1       0.863  -0.306   0.181  0.00  0.00    -0.048 A 
ATOM     16  C   UNL     1       0.796  -0.925  -1.053  0.00  0.00    +0.003 A 
ATOM     17  C   UNL     1      -0.047  -2.005  -1.240  0.00  0.00    +0.000 A 
ATOM     18  C   UNL     1      -0.821  -2.467  -0.192  0.00  0.00    +0.000 A 
ATOM     19  C   UNL     1      -0.753  -1.849   1.042  0.00  0.00    +0.003 A 
ATOM     20  C   UNL     1       0.092  -0.771   1.230  0.00  0.00    -0.045 A 
ENDBRANCH   1  20
BRANCH  10  21
ATOM     21  C   UNL     1       0.227  -3.400   7.981  0.00  0.00    +0.238 C 
ATOM     22  C   UNL     1      -0.339  -4.800   7.825  0.00  0.00    +0.040 C 
ATOM     23  C   UNL     1      -0.456  -5.244   9.091  0.00  0.00    +0.092 C 
ATOM     24  N   UNL     1      -0.035  -4.295   9.967  0.00  0.00    -0.153 NA
ATOM     25  N   UNL     1       0.359  -3.248   9.440  0.00  0.00    -0.170 NA
BRANCH  23  26
ATOM     26  C   UNL     1      -0.971  -6.581   9.475  0.00  0.00    +0.002 A 
ATOM     27  C   UNL     1      -1.372  -7.484   8.491  0.00  0.00    +0.012 A 
ATOM     28  C   UNL     1      -1.850  -8.726   8.850  0.00  0.00    +0.023 A 
ATOM     29  C   UNL     1      -1.933  -9.079  10.192  0.00  0.00    +0.025 A 
ATOM     30  C   UNL     1      -1.534  -8.180  11.175  0.00  0.00    +0.023 A 
ATOM     31  C   UNL     1      -1.050  -6.939  10.820  0.00  0.00    +0.012 A 
BRANCH  29  32
ATOM     32  N   UNL     1      -2.417 -10.337  10.553  0.00  0.00    -0.358 N 
ATOM     33  H   UNL     1      -2.696 -10.964   9.868  0.00  0.00    +0.142 HD
ATOM     34  H   UNL     1      -2.475 -10.584  11.489  0.00  0.00    +0.142 HD
ENDBRANCH  29  32
ENDBRANCH  23  26
ENDBRANCH  10  21
BRANCH   3  35
ATOM     35  C   UNL     1      -2.013   2.052   4.550  0.00  0.00    -0.014 C 
BRANCH  35  36
ATOM     36  C   UNL     1      -2.848   2.968   3.653  0.00  0.00    +0.001 C 
BRANCH  36  37
ATOM     37  C   UNL     1      -3.167   4.263   4.403  0.00  0.00    -0.017 C 
ATOM     38  C   UNL     1      -3.895   5.229   3.466  0.00  0.00    +0.007 C 
ATOM     39  C   UNL     1      -4.060   3.950   5.606  0.00  0.00    +0.007 C 
ENDBRANCH  36  37
ENDBRANCH  35  36
ENDBRANCH   3  35
TORSDOF 7
