REMARK  Name = ZINC43735718
REMARK  16 active torsions:
REMARK  status: ('A' for Active; 'I' for Inactive)
REMARK    1  A    between atoms: C_1  and  C_2
REMARK    2  A    between atoms: C_13  and  C_22
REMARK    3  A    between atoms: C_15  and  O_21
REMARK    4  A    between atoms: C_17  and  O_20
REMARK    5  A    between atoms: C_23  and  O_40
REMARK    6  A    between atoms: C_26  and  C_28
REMARK    7  A    between atoms: C_28  and  C_29
REMARK    8  A    between atoms: C_28  and  C_30
REMARK    9  A    between atoms: C_28  and  O_39
REMARK   10  A    between atoms: C_30  and  C_32
REMARK   11  A    between atoms: C_30  and  O_38
REMARK   12  A    between atoms: C_32  and  C_33
REMARK   13  A    between atoms: C_33  and  C_34
REMARK   14  A    between atoms: C_34  and  C_35
REMARK   15  A    between atoms: C_34  and  C_36
REMARK   16  A    between atoms: C_34  and  O_37
REMARK                            x       y       z     vdW  Elec       q    Type
REMARK                         _______ _______ _______ _____ _____    ______ ____
ROOT
ATOM      1  C   UNL     1       0.010  -0.816   1.045  0.00  0.00    +0.015 C 
ATOM      2  C   UNL     1      -0.968  -1.982   0.927  0.00  0.00    +0.006 C 
ATOM      3  C   UNL     1      -0.605  -2.876  -0.219  0.00  0.00    +0.011 C 
ATOM      4  C   UNL     1       0.503  -3.878   0.131  0.00  0.00    +0.009 C 
ATOM      5  C   UNL     1       1.228  -3.547   1.423  0.00  0.00    +0.025 C 
ATOM      6  C   UNL     1       0.255  -3.404   2.555  0.00  0.00    -0.031 C 
ATOM      7  C   UNL     1       0.488  -3.861   3.783  0.00  0.00    +0.049 C 
ATOM      8  C   UNL     1       1.719  -4.615   4.045  0.00  0.00    +0.160 C 
ATOM      9  O   UNL     1       2.216  -4.685   5.149  0.00  0.00    -0.292 OA
ATOM     10  C   UNL     1       2.307  -5.353   2.858  0.00  0.00    +0.069 C 
ATOM     11  C   UNL     1       2.452  -4.381   1.695  0.00  0.00    -0.013 C 
ATOM     12  C   UNL     1       2.973  -5.094   0.454  0.00  0.00    +0.041 C 
ATOM     13  C   UNL     1       2.165  -6.335   0.098  0.00  0.00    +0.144 C 
ATOM     14  C   UNL     1       2.031  -7.267   1.302  0.00  0.00    +0.144 C 
ATOM     15  C   UNL     1       1.384  -6.506   2.463  0.00  0.00    +0.046 C 
ATOM     16  C   UNL     1       3.557  -3.384   2.107  0.00  0.00    +0.012 C 
ATOM     17  C   UNL     1      -1.075  -2.791   2.243  0.00  0.00    +0.093 C 
ATOM     18  C   UNL     1      -1.586  -1.718   3.214  0.00  0.00    +0.040 C 
ATOM     19  C   UNL     1      -2.629  -0.944   2.358  0.00  0.00    +0.010 C 
ATOM     20  C   UNL     1      -2.373  -1.350   0.883  0.00  0.00    +0.032 C 
ENDROOT
BRANCH  14  21
ATOM     21  O   UNL     1       1.214  -8.386   0.953  0.00  0.00    -0.389 OA
ATOM     22  H   UNL     1       1.562  -8.915   0.222  0.00  0.00    +0.210 HD
ENDBRANCH  14  21
BRANCH  13  23
ATOM     23  O   UNL     1       2.836  -7.042  -0.956  0.00  0.00    -0.389 OA
ATOM     24  H   UNL     1       2.382  -7.847  -1.241  0.00  0.00    +0.210 HD
ENDBRANCH  13  23
BRANCH  20  25
ATOM     25  C   UNL     1      -2.357  -0.118  -0.018  0.00  0.00    +0.092 C 
ATOM     26  C   UNL     1      -3.751   0.513  -0.043  0.00  0.00    +0.044 C 
BRANCH  25  27
ATOM     27  O   UNL     1      -1.414   0.829   0.486  0.00  0.00    -0.386 OA
ATOM     28  H   UNL     1      -0.559   0.813   0.034  0.00  0.00    +0.210 HD
ENDBRANCH  25  27
BRANCH  25  29
ATOM     29  C   UNL     1      -1.958  -0.529  -1.437  0.00  0.00    +0.146 C 
BRANCH  29  30
ATOM     30  O   UNL     1      -0.537  -0.457  -1.572  0.00  0.00    -0.389 OA
ATOM     31  H   UNL     1      -0.201   0.437  -1.719  0.00  0.00    +0.210 HD
ENDBRANCH  29  30
BRANCH  29  32
ATOM     32  C   UNL     1      -2.615   0.415  -2.445  0.00  0.00    +0.037 C 
BRANCH  32  33
ATOM     33  C   UNL     1      -2.318  -0.069  -3.866  0.00  0.00    +0.037 C 
BRANCH  33  34
ATOM     34  C   UNL     1      -2.975   0.875  -4.875  0.00  0.00    +0.061 C 
ATOM     35  C   UNL     1      -2.784   0.324  -6.289  0.00  0.00    +0.041 C 
ATOM     36  C   UNL     1      -4.470   0.989  -4.569  0.00  0.00    +0.041 C 
BRANCH  34  37
ATOM     37  O   UNL     1      -2.370   2.167  -4.782  0.00  0.00    -0.389 OA
ATOM     38  H   UNL     1      -1.420   2.170  -4.964  0.00  0.00    +0.210 HD
ENDBRANCH  34  37
ENDBRANCH  33  34
ENDBRANCH  32  33
ENDBRANCH  29  32
ENDBRANCH  25  29
ENDBRANCH  20  25
BRANCH  17  39
ATOM     39  O   UNL     1      -2.070  -3.829   2.116  0.00  0.00    -0.384 OA
ATOM     40  H   UNL     1      -2.180  -4.368   2.912  0.00  0.00    +0.211 HD
ENDBRANCH  17  39
TORSDOF 11
