REMARK  Name = ZINC31167887
REMARK  12 active torsions:
REMARK  status: ('A' for Active; 'I' for Inactive)
REMARK    1  A    between atoms: C_4  and  C_7
REMARK    2  A    between atoms: C_7  and  O_9
REMARK    3  A    between atoms: O_9  and  C_10
REMARK    4  A    between atoms: C_12  and  O_34
REMARK    5  A    between atoms: C_14  and  O_33
REMARK    6  A    between atoms: C_16  and  C_31
REMARK    7  A    between atoms: C_19  and  O_21
REMARK    8  A    between atoms: O_21  and  C_22
REMARK    9  A    between atoms: C_25  and  O_30
REMARK   10  A    between atoms: C_27  and  C_28
REMARK   11  A    between atoms: C_28  and  O_29
REMARK   12  A    between atoms: C_31  and  O_32
REMARK                            x       y       z     vdW  Elec       q    Type
REMARK                         _______ _______ _______ _____ _____    ______ ____
ROOT
ATOM      1  C   UNL     1      -0.013   1.086   0.008  0.00  0.00    +0.276 C 
ATOM      2  C   UNL     1       1.424   1.617  -0.003  0.00  0.00    +0.192 C 
ATOM      3  C   UNL     1       2.109   1.179  -1.301  0.00  0.00    +0.178 C 
ATOM      4  C   UNL     1       1.293   1.684  -2.494  0.00  0.00    +0.179 C 
ATOM      5  O   UNL     1      -0.040   1.179  -2.407  0.00  0.00    -0.330 OA
ATOM      6  C   UNL     1      -0.746   1.594  -1.236  0.00  0.00    +0.352 C 
ENDROOT
BRANCH   3   7
ATOM      7  O   UNL     1       3.426   1.730  -1.355  0.00  0.00    -0.386 OA
ATOM      8  H   UNL     1       4.074   1.523  -2.220  0.00  0.00    +0.210 HD
ENDBRANCH   3   7
BRANCH   2   9
ATOM      9  O   UNL     1       2.138   1.088   1.116  0.00  0.00    -0.385 OA
ATOM     10  H   UNL     1       3.192   1.360   1.275  0.00  0.00    +0.210 HD
ENDBRANCH   2   9
BRANCH   1  11
ATOM     11  O   UNL     1      -0.695   1.555   1.201  0.00  0.00    -0.449 OA
BRANCH  11  12
ATOM     12  C   UNL     1      -1.662   0.764   1.704  0.00  0.00    +0.340 C 
ATOM     13  O   UNL     1      -1.929  -0.289   1.161  0.00  0.00    -0.245 OA
BRANCH  12  17
ATOM     14  C   UNL     1      -3.780   1.952   5.188  0.00  0.00    +0.000 A 
ATOM     15  C   UNL     1      -4.086   0.751   4.572  0.00  0.00    +0.001 A 
ATOM     16  C   UNL     1      -3.402   0.359   3.439  0.00  0.00    +0.015 A 
ATOM     17  C   UNL     1      -2.399   1.177   2.916  0.00  0.00    +0.059 A 
ATOM     18  C   UNL     1      -2.091   2.385   3.546  0.00  0.00    +0.015 A 
ATOM     19  C   UNL     1      -2.786   2.767   4.674  0.00  0.00    +0.001 A 
ENDBRANCH  12  17
ENDBRANCH  11  12
ENDBRANCH   1  11
BRANCH   6  20
ATOM     20  O   UNL     1      -2.070   1.057  -1.262  0.00  0.00    -0.459 OA
BRANCH  20  21
ATOM     21  C   UNL     1      -2.895   1.494  -2.251  0.00  0.00    +0.130 A 
ATOM     22  C   UNL     1      -2.437   2.421  -3.176  0.00  0.00    +0.049 A 
ATOM     23  C   UNL     1      -3.275   2.865  -4.180  0.00  0.00    +0.049 A 
ATOM     24  C   UNL     1      -4.573   2.384  -4.264  0.00  0.00    +0.117 A 
ATOM     25  C   UNL     1      -5.030   1.457  -3.339  0.00  0.00    +0.055 A 
ATOM     26  C   UNL     1      -4.191   1.009  -2.337  0.00  0.00    +0.023 A 
BRANCH  24  27
ATOM     27  O   UNL     1      -5.398   2.821  -5.253  0.00  0.00    -0.507 OA
ATOM     28  H   UNL     1      -6.428   2.440  -5.319  0.00  0.00    +0.292 HD
ENDBRANCH  24  27
BRANCH  26  29
ATOM     29  C   UNL     1      -4.686  -0.002  -1.336  0.00  0.00    +0.194 C 
BRANCH  29  30
ATOM     30  O   UNL     1      -6.041  -0.344  -1.633  0.00  0.00    -0.390 OA
ATOM     31  H   UNL     1      -6.575  -1.073  -1.006  0.00  0.00    +0.210 HD
ENDBRANCH  29  30
ENDBRANCH  26  29
ENDBRANCH  20  21
ENDBRANCH   6  20
BRANCH   4  32
ATOM     32  C   UNL     1       1.938   1.200  -3.795  0.00  0.00    +0.190 C 
BRANCH  32  33
ATOM     33  O   UNL     1       1.246   1.766  -4.909  0.00  0.00    -0.392 OA
ATOM     34  H   UNL     1       1.569   1.531  -5.934  0.00  0.00    +0.210 HD
ENDBRANCH  32  33
ENDBRANCH   4  32
TORSDOF 12
