REMARK  Name = ZINC39491690
REMARK  14 active torsions:
REMARK  status: ('A' for Active; 'I' for Inactive)
REMARK    1  A    between atoms: C_1  and  C_2
REMARK    2  A    between atoms: C_2  and  C_3
REMARK    3  A    between atoms: C_2  and  C_4
REMARK    4  A    between atoms: C_4  and  N_5
REMARK    5  A    between atoms: N_5  and  C_6
REMARK    6  A    between atoms: C_6  and  C_7
REMARK    7  A    between atoms: N_9  and  C_20
REMARK    8  A    between atoms: C_13  and  C_16
REMARK    9  A    between atoms: C_16  and  O_18
REMARK   10  A    between atoms: O_18  and  C_19
REMARK   11  A    between atoms: C_20  and  C_21
REMARK   12  A    between atoms: C_21  and  C_23
REMARK   13  A    between atoms: C_21  and  C_29
REMARK   14  A    between atoms: C_34  and  O_35
REMARK                            x       y       z     vdW  Elec       q    Type
REMARK                         _______ _______ _______ _____ _____    ______ ____
ROOT
ATOM      1  C   UNL     1      -2.570  -4.127  -0.211  0.00  0.00    -0.039 A 
ATOM      2  C   UNL     1      -2.725  -4.881  -1.310  0.00  0.00    +0.088 A 
ATOM      3  N   UNL     1      -2.843  -6.199  -0.961  0.00  0.00    -0.346 N 
ATOM      4  C   UNL     1      -2.765  -6.331   0.404  0.00  0.00    +0.049 A 
ATOM      5  C   UNL     1      -2.585  -5.039   0.936  0.00  0.00    +0.002 A 
ATOM      6  C   UNL     1      -2.466  -4.863   2.312  0.00  0.00    +0.025 A 
ATOM      7  C   UNL     1      -2.525  -5.973   3.151  0.00  0.00    +0.060 A 
ATOM      8  C   UNL     1      -2.701  -7.254   2.609  0.00  0.00    +0.017 A 
ATOM      9  C   UNL     1      -2.826  -7.428   1.262  0.00  0.00    +0.027 A 
ENDROOT
BRANCH   7  10
ATOM     10  C   UNL     1      -2.400  -5.801   4.611  0.00  0.00    +0.339 C 
ATOM     11  O   UNL     1      -2.247  -4.691   5.081  0.00  0.00    -0.245 OA
BRANCH  10  12
ATOM     12  O   UNL     1      -2.457  -6.875   5.423  0.00  0.00    -0.464 OA
ATOM     13  C   UNL     1      -2.329  -6.635   6.826  0.00  0.00    +0.280 C 
ENDBRANCH  10  12
ENDBRANCH   7  10
BRANCH   1  14
ATOM     14  C   UNL     1      -2.406  -2.630  -0.166  0.00  0.00    -0.045 C 
BRANCH  14  15
ATOM     15  N   UNL     1      -0.984  -2.297  -0.009  0.00  0.00    +0.382 N 
ATOM     16  H   UNL     1      -0.464  -2.669  -0.790  0.00  0.00    -0.085 HD
ATOM     17  H   UNL     1      -0.637  -2.700   0.848  0.00  0.00    -0.085 HD
BRANCH  15  18
ATOM     18  C   UNL     1      -0.825  -0.838   0.035  0.00  0.00    -0.079 C 
BRANCH  18  20
ATOM     19  C   UNL     1       0.837   1.026   0.119  0.00  0.00    +0.005 C 
ATOM     20  C   UNL     1       0.657  -0.491   0.198  0.00  0.00    -0.034 C 
ATOM     21  C   UNL     1       1.152  -0.994   1.556  0.00  0.00    +0.005 C 
ENDBRANCH  18  20
ENDBRANCH  15  18
ENDBRANCH  14  15
ENDBRANCH   1  14
BRANCH   3  22
ATOM     22  C   UNL     1      -3.026  -7.306  -1.903  0.00  0.00    +0.134 C 
BRANCH  22  23
ATOM     23  C   UNL     1      -4.517  -7.618  -2.040  0.00  0.00    +0.072 C 
BRANCH  23  24
ATOM     24  C   UNL     1      -5.046  -8.125  -0.723  0.00  0.00    -0.038 A 
ATOM     25  C   UNL     1      -4.610  -9.337  -0.223  0.00  0.00    +0.004 A 
ATOM     26  C   UNL     1      -5.095  -9.802   0.985  0.00  0.00    +0.000 A 
ATOM     27  C   UNL     1      -6.017  -9.054   1.694  0.00  0.00    +0.000 A 
ATOM     28  C   UNL     1      -6.453  -7.841   1.194  0.00  0.00    +0.000 A 
ATOM     29  C   UNL     1      -5.965  -7.375  -0.012  0.00  0.00    +0.004 A 
ENDBRANCH  23  24
BRANCH  23  30
ATOM     30  C   UNL     1      -4.715  -8.672  -3.099  0.00  0.00    +0.003 A 
ATOM     31  C   UNL     1      -3.991  -9.847  -3.049  0.00  0.00    +0.008 A 
ATOM     32  C   UNL     1      -4.171 -10.814  -4.021  0.00  0.00    +0.001 A 
ATOM     33  C   UNL     1      -5.077 -10.607  -5.045  0.00  0.00    +0.004 A 
ATOM     34  C   UNL     1      -5.803  -9.434  -5.099  0.00  0.00    +0.046 A 
ATOM     35  C   UNL     1      -5.628  -8.464  -4.122  0.00  0.00    +0.121 A 
BRANCH  35  36
ATOM     36  O   UNL     1      -6.346  -7.311  -4.170  0.00  0.00    -0.506 OA
ATOM     37  H   UNL     1      -5.920  -6.604  -4.674  0.00  0.00    +0.292 HD
ENDBRANCH  35  36
ENDBRANCH  23  30
ENDBRANCH  22  23
ENDBRANCH   3  22
TORSDOF 11
