REMARK  Name = ZINC08914334
REMARK  4 active torsions:
REMARK  status: ('A' for Active; 'I' for Inactive)
REMARK    1  A    between atoms: C_4  and  C_7
REMARK    2  A    between atoms: C_7  and  C_9
REMARK    3  A    between atoms: C_11  and  C_33
REMARK    4  A    between atoms: C_33  and  C_35
REMARK                            x       y       z     vdW  Elec       q    Type
REMARK                         _______ _______ _______ _____ _____    ______ ____
ROOT
ATOM      1  C   UNL     1       1.485   5.647  -0.014  0.00  0.00    +0.108 C 
ATOM      2  C   UNL     1       1.994   4.443  -0.851  0.00  0.00    +0.140 C 
ATOM      3  C   UNL     1       1.777   1.920  -0.438  0.00  0.00    +0.054 C 
ATOM      4  C   UNL     1       0.754   1.042  -0.407  0.00  0.00    +0.022 C 
ATOM      5  C   UNL     1      -0.617   1.534  -0.163  0.00  0.00    -0.019 A 
ATOM      6  C   UNL     1      -1.718   0.742  -0.490  0.00  0.00    +0.008 A 
ATOM      7  C   UNL     1      -2.995   1.209  -0.253  0.00  0.00    +0.001 A 
ATOM      8  C   UNL     1      -3.188   2.459   0.308  0.00  0.00    +0.000 A 
ATOM      9  C   UNL     1      -2.099   3.252   0.646  0.00  0.00    +0.006 A 
ATOM     10  C   UNL     1      -0.822   2.799   0.407  0.00  0.00    -0.020 A 
ATOM     11  C   UNL     1       0.380   3.643   0.740  0.00  0.00    +0.107 C 
ATOM     12  C   UNL     1       0.123   5.126   0.489  0.00  0.00    +0.107 C 
ATOM     13  C   UNL     1      -0.344   5.851   1.702  0.00  0.00    -0.008 A 
ATOM     14  C   UNL     1       0.212   6.015   2.953  0.00  0.00    +0.006 A 
ATOM     15  C   UNL     1      -0.508   6.770   3.872  0.00  0.00    +0.000 A 
ATOM     16  C   UNL     1      -1.726   7.331   3.544  0.00  0.00    +0.002 A 
ATOM     17  C   UNL     1      -2.293   7.171   2.289  0.00  0.00    +0.023 A 
ATOM     18  C   UNL     1      -1.580   6.417   1.357  0.00  0.00    +0.038 A 
ATOM     19  N   UNL     1      -1.905   6.104   0.048  0.00  0.00    -0.284 N 
ATOM     20  C   UNL     1      -0.953   5.345  -0.541  0.00  0.00    +0.231 C 
ATOM     21  O   UNL     1      -0.965   4.922  -1.678  0.00  0.00    -0.274 OA
ATOM     22  H   UNL     1      -2.718   6.394  -0.394  0.00  0.00    +0.155 HD
ATOM     23  N   UNL     1       1.632   3.340   0.088  0.00  0.00    -0.384 NA
ATOM     24  H   UNL     1       2.332   3.395   0.837  0.00  0.00    +0.127 HD
ENDROOT
BRANCH   1  25
ATOM     25  C   UNL     1       2.413   5.933   1.139  0.00  0.00    +0.170 C 
ATOM     26  O   UNL     1       2.960   5.019   1.719  0.00  0.00    -0.292 OA
BRANCH  25  30
ATOM     27  C   UNL     1       3.115   9.936   2.354  0.00  0.00    +0.000 A 
ATOM     28  C   UNL     1       3.791   8.900   2.974  0.00  0.00    +0.001 A 
ATOM     29  C   UNL     1       3.568   7.596   2.585  0.00  0.00    +0.011 A 
ATOM     30  C   UNL     1       2.656   7.322   1.560  0.00  0.00    +0.018 A 
ATOM     31  C   UNL     1       1.981   8.374   0.935  0.00  0.00    +0.011 A 
ATOM     32  C   UNL     1       2.211   9.673   1.339  0.00  0.00    +0.001 A 
ENDBRANCH  25  30
ENDBRANCH   1  25
BRANCH   2  33
ATOM     33  C   UNL     1       3.500   4.400  -0.840  0.00  0.00    +0.183 C 
ATOM     34  O   UNL     1       4.079   3.615  -0.119  0.00  0.00    -0.290 OA
BRANCH  33  35
ATOM     35  C   UNL     1       4.269   5.311  -1.703  0.00  0.00    +0.019 A 
ATOM     36  C   UNL     1       3.608   6.135  -2.620  0.00  0.00    +0.011 A 
ATOM     37  C   UNL     1       4.334   6.990  -3.421  0.00  0.00    +0.001 A 
ATOM     38  C   UNL     1       5.715   7.026  -3.328  0.00  0.00    +0.000 A 
ATOM     39  C   UNL     1       6.376   6.210  -2.428  0.00  0.00    +0.001 A 
ATOM     40  C   UNL     1       5.664   5.354  -1.615  0.00  0.00    +0.011 A 
ENDBRANCH  33  35
ENDBRANCH   2  33
TORSDOF 4
