REMARK  Name = ZINC06442302
REMARK  7 active torsions:
REMARK  status: ('A' for Active; 'I' for Inactive)
REMARK    1  A    between atoms: C_1  and  C_2
REMARK    2  A    between atoms: C_7  and  C_15
REMARK    3  A    between atoms: C_13  and  C_14
REMARK    4  A    between atoms: C_15  and  C_17
REMARK    5  A    between atoms: C_15  and  N_74
REMARK    6  A    between atoms: N_21  and  C_22
REMARK    7  A    between atoms: C_22  and  C_23
REMARK                            x       y       z     vdW  Elec       q    Type
REMARK                         _______ _______ _______ _____ _____    ______ ____
ROOT
ATOM      1  C   UNL     1      -0.013   1.086   0.008  0.00  0.00    +0.039 C 
ENDROOT
BRANCH   1   8
ATOM      2  C   UNL     1      -3.938   2.715   6.758  0.00  0.00    +0.044 C 
ATOM      3  C   UNL     1      -3.245   2.184   5.530  0.00  0.00    -0.046 A 
ATOM      4  C   UNL     1      -3.220   0.816   5.293  0.00  0.00    +0.004 A 
ATOM      5  C   UNL     1      -2.596   0.314   4.186  0.00  0.00    +0.010 A 
ATOM      6  C   UNL     1      -1.978   1.185   3.283  0.00  0.00    -0.001 A 
ATOM      7  C   UNL     1      -1.300   0.680   2.087  0.00  0.00    +0.017 A 
ATOM      8  C   UNL     1      -0.718   1.572   1.248  0.00  0.00    +0.011 A 
ATOM      9  C   UNL     1      -0.765   2.953   1.534  0.00  0.00    +0.251 A 
ATOM     10  O   UNL     1      -0.231   3.737   0.769  0.00  0.00    -0.268 OA
ATOM     11  N   UNL     1      -1.389   3.426   2.627  0.00  0.00    -0.322 N 
ATOM     12  H   UNL     1      -1.406   4.382   2.792  0.00  0.00    +0.169 HD
ATOM     13  C   UNL     1      -2.001   2.572   3.520  0.00  0.00    +0.052 A 
ATOM     14  C   UNL     1      -2.643   3.061   4.654  0.00  0.00    -0.024 A 
ATOM     15  C   UNL     1      -2.678   4.543   4.923  0.00  0.00    +0.046 C 
ENDBRANCH   1   8
BRANCH   1  26
ATOM     16  C   UNL     1       2.040   1.313   1.271  0.00  0.00    -0.077 C 
ATOM     17  C   UNL     1       3.417   1.981   1.280  0.00  0.00    -0.018 C 
ATOM     18  C   UNL     1       4.247   1.441   0.112  0.00  0.00    +0.003 C 
ATOM     19  C   UNL     1       3.500   1.704  -1.199  0.00  0.00    -0.044 C 
ATOM     20  C   UNL     1       2.121   1.045  -1.136  0.00  0.00    -0.071 C 
ATOM     21  C   UNL     1       3.337   3.212  -1.399  0.00  0.00    +0.005 C 
ATOM     22  C   UNL     1       2.592   3.476  -2.709  0.00  0.00    +0.000 C 
ATOM     23  C   UNL     1       3.390   2.889  -3.875  0.00  0.00    +0.000 C 
ATOM     24  C   UNL     1       3.551   1.381  -3.676  0.00  0.00    +0.000 C 
ATOM     25  C   UNL     1       4.295   1.116  -2.365  0.00  0.00    +0.005 C 
ATOM     26  N   UNL     1       1.363   1.624  -0.006  0.00  0.00    +0.390 N 
ATOM     27  H   UNL     1       1.321   2.643  -0.121  0.00  0.00    -0.080 HD
ENDBRANCH   1  26
BRANCH   1  28
ATOM     28  C   UNL     1      -0.742   1.585  -1.213  0.00  0.00    +0.143 A 
ATOM     29  N   UNL     1      -0.731   2.808  -1.685  0.00  0.00    -0.115 NA
ATOM     30  N   UNL     1      -1.472   2.834  -2.739  0.00  0.00    -0.023 NA
ATOM     31  N   UNL     1      -1.962   1.661  -2.946  0.00  0.00    -0.044 NA
ATOM     32  N   UNL     1      -1.534   0.863  -2.027  0.00  0.00    -0.228 N 
BRANCH  32  33
ATOM     33  C   UNL     1      -1.852  -0.561  -1.894  0.00  0.00    +0.178 C 
BRANCH  33  34
ATOM     34  C   UNL     1      -3.103  -0.726  -1.029  0.00  0.00    +0.140 C 
ATOM     35  C   UNL     1      -3.380  -2.225  -0.788  0.00  0.00    +0.035 C 
ATOM     36  C   UNL     1      -4.928  -2.295  -0.885  0.00  0.00    +0.031 C 
ATOM     37  C   UNL     1      -5.204  -1.215  -1.962  0.00  0.00    +0.160 C 
ATOM     38  O   UNL     1      -4.239  -0.180  -1.710  0.00  0.00    -0.375 OA
ENDBRANCH  33  34
ENDBRANCH  32  33
ENDBRANCH   1  28
TORSDOF 5
