REMARK  Name = ZINC20504797
REMARK  7 active torsions:
REMARK  status: ('A' for Active; 'I' for Inactive)
REMARK    1  A    between atoms: C_5  and  N_8
REMARK    2  A    between atoms: C_9  and  C_11
REMARK    3  A    between atoms: C_11  and  C_12
REMARK    4  A    between atoms: C_12  and  C_13
REMARK    5  A    between atoms: C_13  and  C_14
REMARK    6  A    between atoms: C_14  and  C_15
REMARK    7  A    between atoms: C_15  and  N_16
REMARK                            x       y       z     vdW  Elec       q    Type
REMARK                         _______ _______ _______ _____ _____    ______ ____
ROOT
ATOM      1  N   UNL     1       2.357   3.890   0.001  0.00  0.00    -0.284 N 
ATOM      2  C   UNL     1       2.369   5.179  -0.392  0.00  0.00    +0.217 C 
ATOM      3  O   UNL     1       1.327   5.744  -0.651  0.00  0.00    -0.275 OA
ATOM      4  H   UNL     1       3.292   3.402   0.315  0.00  0.00    +0.155 HD
ENDROOT
BRANCH   1   9
ATOM      5  C   UNL     1      -0.439   1.777  -1.117  0.00  0.00    +0.032 A 
ATOM      6  C   UNL     1      -1.223   1.755   0.023  0.00  0.00    +0.020 A 
ATOM      7  C   UNL     1      -0.816   2.433   1.159  0.00  0.00    +0.032 A 
ATOM      8  C   UNL     1       0.369   3.143   1.154  0.00  0.00    +0.041 A 
ATOM      9  C   UNL     1       1.155   3.172   0.009  0.00  0.00    +0.062 A 
ATOM     10  C   UNL     1       0.747   2.486  -1.128  0.00  0.00    +0.041 A 
ATOM     11 BR   UNL     1       1.814   2.521  -2.689  0.00  0.00    -0.048 Br
ATOM     12 BR   UNL     1       0.921   4.075   2.704  0.00  0.00    -0.048 Br
ATOM     13 BR   UNL     1      -2.850   0.791   0.031  0.00  0.00    -0.050 Br
ENDBRANCH   1   9
BRANCH   2  14
ATOM     14  C   UNL     1       3.676   5.920  -0.507  0.00  0.00    +0.096 C 
BRANCH  14  15
ATOM     15  C   UNL     1       3.411   7.355  -0.967  0.00  0.00    +0.009 C 
BRANCH  15  16
ATOM     16  C   UNL     1       4.738   8.106  -1.085  0.00  0.00    -0.001 C 
BRANCH  16  17
ATOM     17  C   UNL     1       4.473   9.541  -1.545  0.00  0.00    -0.020 C 
BRANCH  17  18
ATOM     18  C   UNL     1       5.800  10.293  -1.663  0.00  0.00    -0.086 C 
BRANCH  18  19
ATOM     19  N   UNL     1       5.545  11.671  -2.104  0.00  0.00    +0.378 N 
ATOM     20  H   UNL     1       6.500  12.211  -2.189  0.00  0.00    -0.090 HD
ATOM     21  H   UNL     1       4.901  12.177  -1.371  0.00  0.00    -0.090 HD
ATOM     22  H   UNL     1       5.045  11.655  -3.084  0.00  0.00    -0.090 HD
ENDBRANCH  18  19
ENDBRANCH  17  18
ENDBRANCH  16  17
ENDBRANCH  15  16
ENDBRANCH  14  15
ENDBRANCH   2  14
TORSDOF 7
