REMARK  Name = ZINC23483435
REMARK  12 active torsions:
REMARK  status: ('A' for Active; 'I' for Inactive)
REMARK    1  A    between atoms: C_1  and  C_2
REMARK    2  A    between atoms: C_4  and  N_13
REMARK    3  A    between atoms: N_5  and  C_7
REMARK    4  A    between atoms: C_14  and  C_16
REMARK    5  A    between atoms: C_16  and  S_17
REMARK    6  A    between atoms: S_17  and  C_18
REMARK    7  A    between atoms: C_21  and  C_30
REMARK    8  A    between atoms: N_22  and  C_23
REMARK    9  A    between atoms: C_30  and  C_32
REMARK   10  A    between atoms: C_30  and  N_33
REMARK   11  A    between atoms: N_33  and  C_34
REMARK   12  A    between atoms: N_33  and  C_35
REMARK                            x       y       z     vdW  Elec       q    Type
REMARK                         _______ _______ _______ _____ _____    ______ ____
ROOT
ATOM      1  S   UNL     1      -4.631   5.452  -1.593  0.00  0.00    -0.076 S 
ENDROOT
BRANCH   1   2
ATOM      2  C   UNL     1      -3.289   4.431  -1.081  0.00  0.00    +0.197 A 
ATOM      3  N   UNL     1      -2.626   3.580  -1.830  0.00  0.00    -0.122 NA
ATOM      4  N   UNL     1      -1.709   3.008  -1.134  0.00  0.00    -0.135 NA
ATOM      5  C   UNL     1      -1.735   3.449   0.092  0.00  0.00    +0.125 A 
ATOM      6  N   UNL     1      -2.741   4.375   0.171  0.00  0.00    -0.275 N 
BRANCH   6   7
ATOM      7  C   UNL     1      -3.128   5.112   1.300  0.00  0.00    +0.050 A 
ATOM      8  C   UNL     1      -3.666   4.462   2.402  0.00  0.00    +0.028 A 
ATOM      9  C   UNL     1      -4.041   5.189   3.515  0.00  0.00    +0.022 A 
ATOM     10  C   UNL     1      -3.893   6.565   3.527  0.00  0.00    +0.041 A 
ATOM     11  C   UNL     1      -3.362   7.215   2.427  0.00  0.00    +0.022 A 
ATOM     12  C   UNL     1      -2.980   6.492   1.314  0.00  0.00    +0.028 A 
ATOM     13 CL   UNL     1      -4.372   7.477   4.924  0.00  0.00    -0.084 Cl
ENDBRANCH   6   7
BRANCH   5  14
ATOM     14  C   UNL     1      -0.822   3.023   1.213  0.00  0.00    -0.003 C 
ATOM     15  C   UNL     1       0.559   3.650   1.013  0.00  0.00    -0.005 C 
BRANCH  14  16
ATOM     16  N   UNL     1      -0.700   1.560   1.217  0.00  0.00    +0.382 N 
ATOM     17  C   UNL     1      -0.013   1.086   0.008  0.00  0.00    -0.096 C 
ATOM     18  C   UNL     1      -0.016   1.091   2.429  0.00  0.00    -0.096 C 
ATOM     19  H   UNL     1      -1.715   1.136   1.216  0.00  0.00    -0.082 HD
ENDBRANCH  14  16
ENDBRANCH   5  14
ENDBRANCH   1   2
BRANCH   1  20
ATOM     20  C   UNL     1      -4.755   4.961  -3.331  0.00  0.00    +0.173 C 
BRANCH  20  22
ATOM     21  N   UNL     1      -6.149   5.526  -5.294  0.00  0.00    -0.270 N 
ATOM     22  C   UNL     1      -5.871   5.729  -3.991  0.00  0.00    +0.229 C 
ATOM     23  O   UNL     1      -6.519   6.529  -3.350  0.00  0.00    -0.275 OA
ATOM     24  H   UNL     1      -5.561   4.801  -5.876  0.00  0.00    +0.156 HD
BRANCH  21  28
ATOM     25  C   UNL     1      -9.956   8.665  -6.047  0.00  0.00    +0.067 C 
ATOM     26  C   UNL     1      -8.884   7.629  -6.273  0.00  0.00    +0.062 A 
ATOM     27  C   UNL     1      -7.986   7.160  -5.311  0.00  0.00    +0.068 A 
ATOM     28  C   UNL     1      -7.181   6.236  -5.905  0.00  0.00    +0.129 A 
ATOM     29  N   UNL     1      -7.567   6.138  -7.207  0.00  0.00    -0.218 N 
ATOM     30  N   UNL     1      -8.638   7.018  -7.404  0.00  0.00    -0.170 NA
BRANCH  29  31
ATOM     31  C   UNL     1      -6.995   5.302  -8.177  0.00  0.00    +0.067 A 
ATOM     32  C   UNL     1      -5.629   5.052  -8.162  0.00  0.00    +0.028 A 
ATOM     33  C   UNL     1      -5.070   4.224  -9.115  0.00  0.00    +0.002 A 
ATOM     34  C   UNL     1      -5.866   3.653 -10.090  0.00  0.00    +0.000 A 
ATOM     35  C   UNL     1      -7.226   3.904 -10.111  0.00  0.00    +0.002 A 
ATOM     36  C   UNL     1      -7.792   4.727  -9.157  0.00  0.00    +0.028 A 
ENDBRANCH  29  31
ENDBRANCH  21  28
ENDBRANCH  20  22
ENDBRANCH   1  20
TORSDOF 8
