REMARK  Name = ZINC38986120
REMARK  5 active torsions:
REMARK  status: ('A' for Active; 'I' for Inactive)
REMARK    1  A    between atoms: C_1  and  C_2
REMARK    2  A    between atoms: C_5  and  C_8
REMARK    3  A    between atoms: C_10  and  C_21
REMARK    4  A    between atoms: N_23  and  N_24
REMARK    5  A    between atoms: C_25  and  C_26
REMARK                            x       y       z     vdW  Elec       q    Type
REMARK                         _______ _______ _______ _____ _____    ______ ____
ROOT
ATOM      1  C   UNL     1       0.059  -4.275  -0.021  0.00  0.00    +0.167 C 
ATOM      2  C   UNL     1       1.475  -4.808   0.285  0.00  0.00    +0.243 C 
ATOM      3  N   UNL     1       1.304  -5.572   1.528  0.00  0.00    -0.156 NA
ATOM      4  N   UNL     1       0.139  -5.546   1.911  0.00  0.00    -0.076 NA
ATOM      5  N   UNL     1      -0.736  -4.816   1.097  0.00  0.00    -0.173 N 
ATOM      6  C   UNL     1      -2.101  -4.632   1.304  0.00  0.00    +0.228 A 
ATOM      7  C   UNL     1      -2.880  -5.170   2.424  0.00  0.00    +0.204 A 
ATOM      8  N   UNL     1      -4.120  -4.790   2.280  0.00  0.00    -0.032 NA
ATOM      9  O   UNL     1      -4.202  -4.012   1.099  0.00  0.00    -0.239 OA
ATOM     10  N   UNL     1      -2.903  -3.946   0.538  0.00  0.00    -0.030 NA
ATOM     11  N   UNL     1      -2.383  -5.952   3.460  0.00  0.00    -0.338 N 
ATOM     12  H   UNL     1      -1.442  -6.186   3.483  0.00  0.00    +0.144 HD
ATOM     13  H   UNL     1      -2.978  -6.264   4.161  0.00  0.00    +0.144 HD
ENDROOT
BRANCH   1  18
ATOM     14  C   UNL     1      -0.018   1.503   0.010  0.00  0.00    +0.044 C 
ATOM     15  C   UNL     1       0.002  -0.004   0.002  0.00  0.00    -0.050 A 
ATOM     16  C   UNL     1       0.006  -0.689  -1.199  0.00  0.00    +0.004 A 
ATOM     17  C   UNL     1       0.025  -2.071  -1.206  0.00  0.00    +0.006 A 
ATOM     18  C   UNL     1       0.040  -2.768  -0.013  0.00  0.00    -0.022 A 
ATOM     19  C   UNL     1       0.037  -2.084   1.188  0.00  0.00    +0.006 A 
ATOM     20  C   UNL     1       0.023  -0.702   1.195  0.00  0.00    +0.004 A 
ENDBRANCH   1  18
BRANCH   2  21
ATOM     21  C   UNL     1       2.436  -3.665   0.492  0.00  0.00    +0.261 C 
ATOM     22  O   UNL     1       2.739  -3.324   1.616  0.00  0.00    -0.272 OA
ATOM     23  N   UNL     1       2.958  -3.023  -0.571  0.00  0.00    -0.205 N 
ATOM     24  H   UNL     1       2.716  -3.296  -1.470  0.00  0.00    +0.177 HD
BRANCH  23  25
ATOM     25  N   UNL     1       3.852  -1.961  -0.378  0.00  0.00    -0.188 NA
ATOM     26  C   UNL     1       4.359  -1.337  -1.411  0.00  0.00    +0.136 C 
BRANCH  26  27
ATOM     27  C   UNL     1       5.253  -0.274  -1.219  0.00  0.00    +0.000 C 
ATOM     28  C   UNL     1       5.874   0.493  -2.202  0.00  0.00    +0.004 A 
ATOM     29  C   UNL     1       5.819   0.462  -3.613  0.00  0.00    +0.010 A 
ATOM     30  C   UNL     1       6.548   1.350  -4.334  0.00  0.00    +0.001 A 
ATOM     31  C   UNL     1       7.361   2.305  -3.716  0.00  0.00    +0.002 A 
ATOM     32  C   UNL     1       7.462   2.393  -2.368  0.00  0.00    +0.026 A 
ATOM     33  C   UNL     1       6.729   1.497  -1.545  0.00  0.00    +0.043 A 
ATOM     34  N   UNL     1       6.657   1.377  -0.236  0.00  0.00    -0.380 N 
ATOM     35  C   UNL     1       5.740   0.284   0.101  0.00  0.00    +0.150 C 
ATOM     36  H   UNL     1       7.132   1.929   0.405  0.00  0.00    +0.160 HD
ENDBRANCH  26  27
ENDBRANCH  23  25
ENDBRANCH   2  21
TORSDOF 4
