REMARK  Name = ZINC05291066
REMARK  7 active torsions:
REMARK  status: ('A' for Active; 'I' for Inactive)
REMARK    1  A    between atoms: C_1  and  C_2
REMARK    2  A    between atoms: C_2  and  C_3
REMARK    3  A    between atoms: C_2  and  N_13
REMARK    4  A    between atoms: C_6  and  S_9
REMARK    5  A    between atoms: S_9  and  N_12
REMARK    6  A    between atoms: C_14  and  C_15
REMARK    7  A    between atoms: C_20  and  O_21
REMARK                            x       y       z     vdW  Elec       q    Type
REMARK                         _______ _______ _______ _____ _____    ______ ____
ROOT
ATOM      1  C   UNL     1      -0.036   1.516   0.006  0.00  0.00    +0.035 C 
ATOM      2  C   UNL     1      -0.004  -0.014   0.004  0.00  0.00    +0.106 C 
ENDROOT
BRANCH   2   3
ATOM      3  C   UNL     1      -1.413  -0.547   0.021  0.00  0.00    -0.025 A 
ATOM      4  C   UNL     1      -2.147  -0.600  -1.149  0.00  0.00    +0.007 A 
ATOM      5  C   UNL     1      -3.439  -1.089  -1.133  0.00  0.00    +0.029 A 
ATOM      6  C   UNL     1      -3.999  -1.524   0.054  0.00  0.00    +0.105 A 
ATOM      7  C   UNL     1      -3.265  -1.472   1.224  0.00  0.00    +0.029 A 
ATOM      8  C   UNL     1      -1.971  -0.987   1.207  0.00  0.00    +0.007 A 
BRANCH   6   9
ATOM      9  S   UNL     1      -5.647  -2.146   0.075  0.00  0.00    +0.056 S 
ATOM     10  O   UNL     1      -6.127  -1.981   1.402  0.00  0.00    -0.153 OA
ATOM     11  O   UNL     1      -6.309  -1.583  -1.050  0.00  0.00    -0.153 OA
BRANCH   9  12
ATOM     12  N   UNL     1      -5.559  -3.777  -0.197  0.00  0.00    -0.204 NA
ATOM     13  H   UNL     1      -6.227  -4.370   0.183  0.00  0.00    +0.144 HD
ATOM     14  H   UNL     1      -4.839  -4.141  -0.736  0.00  0.00    +0.144 HD
ENDBRANCH   9  12
ENDBRANCH   6   9
ENDBRANCH   2   3
BRANCH   2  15
ATOM     15  N   UNL     1       0.682  -0.485  -1.202  0.00  0.00    -0.383 N 
ATOM     16  C   UNL     1       1.751  -1.207  -1.099  0.00  0.00    +0.090 C 
ATOM     17  H   UNL     1       0.334  -0.257  -2.079  0.00  0.00    +0.160 HD
BRANCH  16  18
ATOM     18  C   UNL     1       2.378  -1.774  -2.306  0.00  0.00    +0.032 A 
ATOM     19  C   UNL     1       3.462  -2.647  -2.191  0.00  0.00    +0.013 A 
ATOM     20  C   UNL     1       4.044  -3.173  -3.325  0.00  0.00    +0.001 A 
ATOM     21  C   UNL     1       3.558  -2.841  -4.578  0.00  0.00    +0.004 A 
ATOM     22  C   UNL     1       2.486  -1.979  -4.706  0.00  0.00    +0.046 A 
ATOM     23  C   UNL     1       1.885  -1.444  -3.576  0.00  0.00    +0.125 A 
BRANCH  23  24
ATOM     24  O   UNL     1       0.828  -0.602  -3.700  0.00  0.00    -0.506 OA
ATOM     25  H   UNL     1       1.075   0.330  -3.772  0.00  0.00    +0.292 HD
ENDBRANCH  23  24
ENDBRANCH  16  18
ENDBRANCH   2  15
TORSDOF 6
