REMARK  Name = ZINC05890346
REMARK  11 active torsions:
REMARK  status: ('A' for Active; 'I' for Inactive)
REMARK    1  A    between atoms: C_1  and  C_2
REMARK    2  A    between atoms: C_4  and  O_33
REMARK    3  A    between atoms: C_5  and  C_17
REMARK    4  A    between atoms: C_11  and  C_13
REMARK    5  A    between atoms: C_13  and  C_14
REMARK    6  A    between atoms: C_14  and  C_16
REMARK    7  A    between atoms: C_19  and  O_32
REMARK    8  A    between atoms: C_21  and  O_31
REMARK    9  A    between atoms: C_23  and  O_30
REMARK   10  A    between atoms: C_25  and  C_28
REMARK   11  A    between atoms: C_28  and  O_29
REMARK                            x       y       z     vdW  Elec       q    Type
REMARK                         _______ _______ _______ _____ _____    ______ ____
ROOT
ATOM      1  C   UNL     1      -0.825   1.307   0.247  0.00  0.00    +0.045 C 
ATOM      2  C   UNL     1      -0.654  -0.189   0.184  0.00  0.00    -0.033 A 
ATOM      3  C   UNL     1      -0.637  -0.827  -1.024  0.00  0.00    +0.050 A 
ATOM      4  C   UNL     1      -0.480  -2.210  -1.089  0.00  0.00    +0.126 A 
ATOM      5  C   UNL     1      -0.338  -2.957   0.069  0.00  0.00    +0.068 A 
ATOM      6  C   UNL     1      -0.352  -2.324   1.303  0.00  0.00    +0.148 A 
ATOM      7  C   UNL     1      -0.506  -0.927   1.358  0.00  0.00    +0.067 A 
ATOM      8  C   UNL     1      -0.512  -0.278   2.681  0.00  0.00    +0.193 A 
ATOM      9  O   UNL     1      -0.647   0.929   2.796  0.00  0.00    -0.287 OA
ATOM     10  C   UNL     1      -0.355  -1.116   3.817  0.00  0.00    +0.093 A 
ATOM     11  C   UNL     1      -0.209  -2.442   3.649  0.00  0.00    +0.116 A 
ATOM     12  O   UNL     1      -0.217  -3.027   2.446  0.00  0.00    -0.459 OA
ENDROOT
BRANCH   5  13
ATOM     13  C   UNL     1      -0.169  -4.452  -0.012  0.00  0.00    +0.187 C 
ATOM     14  C   UNL     1      -1.515  -5.101  -0.346  0.00  0.00    +0.179 C 
ATOM     15  C   UNL     1      -1.323  -6.614  -0.486  0.00  0.00    +0.177 C 
ATOM     16  C   UNL     1      -0.265  -6.886  -1.559  0.00  0.00    +0.176 C 
ATOM     17  C   UNL     1       1.033  -6.169  -1.179  0.00  0.00    +0.175 C 
ATOM     18  O   UNL     1       0.778  -4.770  -1.034  0.00  0.00    -0.361 OA
BRANCH  16  19
ATOM     19  O   UNL     1      -0.026  -8.293  -1.649  0.00  0.00    -0.386 OA
ATOM     20  H   UNL     1      -0.808  -8.810  -1.883  0.00  0.00    +0.210 HD
ENDBRANCH  16  19
BRANCH  15  21
ATOM     21  O   UNL     1      -0.892  -7.159   0.762  0.00  0.00    -0.386 OA
ATOM     22  H   UNL     1      -0.750  -8.115   0.746  0.00  0.00    +0.210 HD
ENDBRANCH  15  21
BRANCH  14  23
ATOM     23  O   UNL     1      -2.011  -4.566  -1.575  0.00  0.00    -0.386 OA
ATOM     24  H   UNL     1      -2.863  -4.933  -1.848  0.00  0.00    +0.210 HD
ENDBRANCH  14  23
BRANCH  17  25
ATOM     25  C   UNL     1       1.558  -6.731   0.144  0.00  0.00    +0.190 C 
BRANCH  25  26
ATOM     26  O   UNL     1       2.843  -6.173   0.423  0.00  0.00    -0.392 OA
ATOM     27  H   UNL     1       3.237  -6.486   1.248  0.00  0.00    +0.210 HD
ENDBRANCH  25  26
ENDBRANCH  17  25
ENDBRANCH   5  13
BRANCH   4  28
ATOM     28  O   UNL     1      -0.467  -2.830  -2.296  0.00  0.00    -0.506 OA
ATOM     29  H   UNL     1       0.414  -2.908  -2.688  0.00  0.00    +0.292 HD
ENDBRANCH   4  28
BRANCH  11  30
ATOM     30  C   UNL     1      -0.044  -3.309   4.871  0.00  0.00    +0.148 C 
BRANCH  30  31
ATOM     31  C   UNL     1      -1.385  -3.862   5.280  0.00  0.00    +0.138 C 
ATOM     32  O   UNL     1      -2.373  -3.581   4.645  0.00  0.00    -0.297 OA
ATOM     33  C   UNL     1      -1.492  -4.766   6.481  0.00  0.00    +0.086 C 
ENDBRANCH  30  31
ENDBRANCH  11  30
TORSDOF 9
