REMARK  Name = ZINC20566000
REMARK  9 active torsions:
REMARK  status: ('A' for Active; 'I' for Inactive)
REMARK    1  A    between atoms: C_1  and  O_2
REMARK    2  A    between atoms: O_2  and  C_3
REMARK    3  A    between atoms: C_3  and  C_4
REMARK    4  A    between atoms: C_4  and  C_5
REMARK    5  A    between atoms: C_5  and  N_6
REMARK    6  A    between atoms: C_11  and  C_29
REMARK    7  A    between atoms: C_29  and  C_30
REMARK    8  A    between atoms: C_33  and  O_37
REMARK    9  A    between atoms: C_34  and  O_36
REMARK                            x       y       z     vdW  Elec       q    Type
REMARK                         _______ _______ _______ _____ _____    ______ ____
ROOT
ATOM      1  N   UNL     1      -2.408  -4.226   0.002  0.00  0.00    -0.241 N 
ATOM      2  C   UNL     1      -2.346  -4.940  -1.128  0.00  0.00    +0.227 C 
ATOM      3  O   UNL     1      -2.395  -4.482  -2.249  0.00  0.00    -0.275 OA
ATOM      4  C   UNL     1      -2.204  -6.406  -0.788  0.00  0.00    +0.107 C 
ATOM      5  C   UNL     1      -3.488  -7.153  -1.207  0.00  0.00    +0.072 C 
ATOM      6  N   UNL     1      -4.402  -7.024  -0.041  0.00  0.00    -0.295 NA
ATOM      7  C   UNL     1      -3.515  -7.161   1.129  0.00  0.00    +0.136 C 
ATOM      8  C   UNL     1      -2.206  -6.417   0.766  0.00  0.00    +0.122 C 
ATOM      9  C   UNL     1      -2.330  -4.953   1.123  0.00  0.00    +0.228 C 
ATOM     10  O   UNL     1      -2.358  -4.507   2.250  0.00  0.00    -0.275 OA
ATOM     11  C   UNL     1      -4.146  -6.598   2.371  0.00  0.00    +0.005 A 
ATOM     12  C   UNL     1      -4.613  -5.349   2.715  0.00  0.00    +0.027 A 
ATOM     13  C   UNL     1      -5.157  -5.134   3.970  0.00  0.00    +0.041 A 
ATOM     14  C   UNL     1      -5.228  -6.177   4.877  0.00  0.00    +0.022 A 
ATOM     15  C   UNL     1      -4.761  -7.429   4.536  0.00  0.00    +0.025 A 
ATOM     16  C   UNL     1      -4.213  -7.654   3.275  0.00  0.00    +0.039 A 
ATOM     17  N   UNL     1      -3.680  -8.813   2.705  0.00  0.00    -0.283 N 
ATOM     18  C   UNL     1      -3.247  -8.607   1.447  0.00  0.00    +0.243 C 
ATOM     19  O   UNL     1      -2.739  -9.428   0.712  0.00  0.00    -0.273 OA
ATOM     20 CL   UNL     1      -5.745  -3.560   4.405  0.00  0.00    -0.084 Cl
ATOM     21  H   UNL     1      -4.864  -6.127  -0.041  0.00  0.00    +0.124 HD
ATOM     22  H   UNL     1      -3.628  -9.666   3.163  0.00  0.00    +0.155 HD
ENDROOT
BRANCH   1  23
ATOM     23  C   UNL     1      -2.543  -2.768   0.011  0.00  0.00    +0.118 C 
BRANCH  23  24
ATOM     24  C   UNL     1      -1.154  -2.126   0.002  0.00  0.00    +0.047 C 
BRANCH  24  25
ATOM     25  C   UNL     1      -1.295  -0.603   0.011  0.00  0.00    +0.161 C 
BRANCH  25  27
ATOM     26  C   UNL     1      -0.017   1.425   0.010  0.00  0.00    +0.193 C 
ATOM     27  O   UNL     1       0.002  -0.004   0.002  0.00  0.00    -0.383 OA
ENDBRANCH  25  27
ENDBRANCH  24  25
ENDBRANCH  23  24
ENDBRANCH   1  23
BRANCH   5  28
ATOM     28  C   UNL     1      -4.105  -6.499  -2.445  0.00  0.00    +0.054 C 
BRANCH  28  29
ATOM     29  C   UNL     1      -5.285  -7.314  -2.908  0.00  0.00    -0.042 A 
ATOM     30  C   UNL     1      -5.101  -8.338  -3.818  0.00  0.00    +0.007 A 
ATOM     31  C   UNL     1      -6.180  -9.089  -4.247  0.00  0.00    +0.049 A 
ATOM     32  C   UNL     1      -7.450  -8.815  -3.763  0.00  0.00    +0.158 A 
ATOM     33  C   UNL     1      -7.635  -7.785  -2.847  0.00  0.00    +0.158 A 
ATOM     34  C   UNL     1      -6.548  -7.040  -2.418  0.00  0.00    +0.052 A 
BRANCH  33  35
ATOM     35  O   UNL     1      -8.879  -7.513  -2.369  0.00  0.00    -0.503 OA
ATOM     36  H   UNL     1      -9.108  -8.001  -1.567  0.00  0.00    +0.292 HD
ENDBRANCH  33  35
BRANCH  32  37
ATOM     37  O   UNL     1      -8.512  -9.552  -4.184  0.00  0.00    -0.503 OA
ATOM     38  H   UNL     1      -8.689 -10.333  -3.641  0.00  0.00    +0.292 HD
ENDBRANCH  32  37
ENDBRANCH  28  29
ENDBRANCH   5  28
TORSDOF 8
