REMARK  Name = ZINC65734972
REMARK  8 active torsions:
REMARK  status: ('A' for Active; 'I' for Inactive)
REMARK    1  A    between atoms: C_1  and  C_2
REMARK    2  A    between atoms: C_2  and  C_3
REMARK    3  A    between atoms: C_2  and  C_13
REMARK    4  A    between atoms: C_2  and  N_16
REMARK    5  A    between atoms: C_3  and  C_4
REMARK    6  A    between atoms: C_6  and  O_12
REMARK    7  A    between atoms: C_7  and  O_11
REMARK    8  A    between atoms: N_16  and  N_17
REMARK                            x       y       z     vdW  Elec       q    Type
REMARK                         _______ _______ _______ _____ _____    ______ ____
ROOT
ATOM      1  C   UNL     1       0.742  -0.511   1.242  0.00  0.00    +0.036 C 
ENDROOT
BRANCH   1   2
ATOM      2  C   UNL     1       2.156   0.011   1.231  0.00  0.00    -0.043 A 
ATOM      3  C   UNL     1       3.155  -0.718   0.613  0.00  0.00    +0.052 A 
ATOM      4  C   UNL     1       4.456  -0.240   0.602  0.00  0.00    +0.160 A 
ATOM      5  C   UNL     1       4.753   0.974   1.213  0.00  0.00    +0.172 A 
ATOM      6  C   UNL     1       3.747   1.700   1.831  0.00  0.00    +0.063 A 
ATOM      7  C   UNL     1       2.449   1.219   1.833  0.00  0.00    +0.022 A 
ATOM      8 BR   UNL     1       4.146   3.351   2.662  0.00  0.00    -0.046 Br
BRANCH   5   9
ATOM      9  O   UNL     1       6.028   1.447   1.206  0.00  0.00    -0.503 OA
ATOM     10  H   UNL     1       6.236   2.005   0.444  0.00  0.00    +0.292 HD
ENDBRANCH   5   9
BRANCH   4  11
ATOM     11  O   UNL     1       5.440  -0.957  -0.004  0.00  0.00    -0.503 OA
ATOM     12  H   UNL     1       5.563  -0.743  -0.939  0.00  0.00    +0.292 HD
ENDBRANCH   4  11
ENDBRANCH   1   2
BRANCH   1  14
ATOM     13  C   UNL     1      -0.019   1.526   0.010  0.00  0.00    +0.005 C 
ATOM     14  C   UNL     1       0.002  -0.004   0.002  0.00  0.00    +0.054 C 
BRANCH  14  15
ATOM     15  C   UNL     1       0.707  -0.490  -1.238  0.00  0.00    +0.348 C 
ATOM     16  O   UNL     1       1.869  -0.179  -1.440  0.00  0.00    -0.248 OA
ATOM     17  O   UNL     1       0.117  -1.195  -2.039  0.00  0.00    -0.248 OA
ENDBRANCH  14  15
BRANCH  14  18
ATOM     18  N   UNL     1      -1.376  -0.512   0.012  0.00  0.00    +0.397 N 
ATOM     19  H   UNL     1      -1.362  -1.521   0.007  0.00  0.00    -0.060 HD
ATOM     20  H   UNL     1      -1.848  -0.187   0.843  0.00  0.00    -0.060 HD
BRANCH  18  21
ATOM     21  N   UNL     1      -2.079  -0.031  -1.165  0.00  0.00    -0.380 NA
ATOM     22  H   UNL     1      -3.030  -0.367  -1.181  0.00  0.00    +0.098 HD
ATOM     23  H   UNL     1      -2.051   0.976  -1.217  0.00  0.00    +0.098 HD
ENDBRANCH  18  21
ENDBRANCH  14  18
ENDBRANCH   1  14
TORSDOF 7
