REMARK  Name = ZINC47970531
REMARK  11 active torsions:
REMARK  status: ('A' for Active; 'I' for Inactive)
REMARK    1  A    between atoms: C_1  and  C_2
REMARK    2  A    between atoms: C_2  and  C_3
REMARK    3  A    between atoms: C_3  and  C_4
REMARK    4  A    between atoms: C_3  and  C_6
REMARK    5  A    between atoms: C_4  and  C_5
REMARK    6  A    between atoms: C_6  and  C_8
REMARK    7  A    between atoms: C_6  and  N_23
REMARK    8  A    between atoms: C_8  and  N_9
REMARK    9  A    between atoms: C_10  and  C_12
REMARK   10  A    between atoms: N_14  and  C_15
REMARK   11  A    between atoms: C_16  and  C_20
REMARK                            x       y       z     vdW  Elec       q    Type
REMARK                         _______ _______ _______ _____ _____    ______ ____
ROOT
ATOM      1  N   UNL     1       2.367  -3.800   0.444  0.00  0.00    -0.309 N 
ATOM      2  C   UNL     1       3.092  -4.557  -0.403  0.00  0.00    +0.299 C 
ATOM      3  O   UNL     1       3.586  -4.058  -1.392  0.00  0.00    -0.265 OA
ATOM      4  H   UNL     1       1.972  -4.199   1.234  0.00  0.00    +0.149 HD
ENDROOT
BRANCH   2   5
ATOM      5  C   UNL     1       3.287  -6.011  -0.124  0.00  0.00    +0.304 C 
ATOM      6  O   UNL     1       2.793  -6.511   0.866  0.00  0.00    -0.265 OA
ATOM      7  N   UNL     1       4.013  -6.768  -0.970  0.00  0.00    -0.272 N 
ATOM      8  H   UNL     1       4.408  -6.369  -1.761  0.00  0.00    +0.156 HD
BRANCH   7   9
ATOM      9  C   UNL     1       4.194  -8.116  -0.711  0.00  0.00    +0.084 A 
ATOM     10  C   UNL     1       4.908  -9.040  -1.461  0.00  0.00    +0.065 A 
ATOM     11  C   UNL     1       4.936 -10.394  -0.960  0.00  0.00    +0.022 A 
ATOM     12  C   UNL     1       4.263 -10.610   0.187  0.00  0.00    +0.048 A 
ATOM     13  S   UNL     1       3.607  -9.005   0.585  0.00  0.00    -0.081 S 
BRANCH  10  14
ATOM     14  C   UNL     1       5.597  -8.662  -2.699  0.00  0.00    +0.244 C 
ATOM     15  O   UNL     1       5.552  -7.511  -3.093  0.00  0.00    -0.270 OA
ATOM     16  N   UNL     1       6.280  -9.588  -3.400  0.00  0.00    -0.325 N 
ATOM     17  H   UNL     1       6.316 -10.505  -3.086  0.00  0.00    +0.145 HD
ATOM     18  H   UNL     1       6.736  -9.338  -4.219  0.00  0.00    +0.145 HD
ENDBRANCH  10  14
ENDBRANCH   7   9
ENDBRANCH   2   5
BRANCH   1  19
ATOM     19  C   UNL     1       2.175  -2.374   0.170  0.00  0.00    +0.089 C 
BRANCH  19  20
ATOM     20  C   UNL     1       1.433  -1.724   1.340  0.00  0.00    -0.048 C 
BRANCH  20  21
ATOM     21  N   UNL     1       2.171  -1.974   2.586  0.00  0.00    +0.383 N 
ATOM     22  C   UNL     1       3.239  -0.957   2.761  0.00  0.00    -0.078 C 
ATOM     23  C   UNL     1       3.517  -0.993   4.285  0.00  0.00    -0.020 C 
ATOM     24  C   UNL     1       2.108  -1.203   4.887  0.00  0.00    -0.020 C 
ATOM     25  C   UNL     1       1.272  -1.819   3.750  0.00  0.00    -0.078 C 
ATOM     26  H   UNL     1       2.569  -2.901   2.575  0.00  0.00    -0.081 HD
ENDBRANCH  20  21
BRANCH  20  27
ATOM     27  C   UNL     1       1.327  -0.217   1.103  0.00  0.00    -0.024 C 
BRANCH  27  29
ATOM     28  C   UNL     1       0.611   1.541  -0.522  0.00  0.00    +0.004 C 
ATOM     29  C   UNL     1       0.591   0.042  -0.213  0.00  0.00    -0.002 C 
ENDBRANCH  27  29
BRANCH  27  30
ATOM     30  C   UNL     1       0.554   0.427   2.256  0.00  0.00    -0.002 C 
ATOM     31  C   UNL     1      -0.879  -0.108   2.270  0.00  0.00    +0.004 C 
ENDBRANCH  27  30
ENDBRANCH  20  27
ENDBRANCH  19  20
ENDBRANCH   1  19
TORSDOF 9
