REMARK  Name = ZINC36645746
REMARK  14 active torsions:
REMARK  status: ('A' for Active; 'I' for Inactive)
REMARK    1  A    between atoms: C_1  and  C_2
REMARK    2  A    between atoms: C_4  and  O_45
REMARK    3  A    between atoms: C_6  and  O_44
REMARK    4  A    between atoms: C_8  and  O_43
REMARK    5  A    between atoms: C_10  and  O_13
REMARK    6  A    between atoms: O_13  and  C_14
REMARK    7  A    between atoms: C_16  and  O_42
REMARK    8  A    between atoms: C_18  and  O_41
REMARK    9  A    between atoms: C_20  and  C_39
REMARK   10  A    between atoms: C_23  and  O_25
REMARK   11  A    between atoms: O_25  and  C_26
REMARK   12  A    between atoms: C_36  and  O_37
REMARK   13  A    between atoms: O_37  and  C_38
REMARK   14  A    between atoms: C_39  and  O_40
REMARK                            x       y       z     vdW  Elec       q    Type
REMARK                         _______ _______ _______ _____ _____    ______ ____
ROOT
ATOM      1  C   UNL     1       3.172  -1.911   2.182  0.00  0.00    +0.221 C 
ATOM      2  C   UNL     1       4.111  -2.983   2.743  0.00  0.00    +0.180 C 
ATOM      3  C   UNL     1       3.803  -3.188   4.230  0.00  0.00    +0.177 C 
ATOM      4  C   UNL     1       3.945  -1.851   4.961  0.00  0.00    +0.179 C 
ATOM      5  O   UNL     1       3.068  -0.890   4.370  0.00  0.00    -0.331 OA
ATOM      6  C   UNL     1       3.338  -0.622   2.991  0.00  0.00    +0.340 C 
ENDROOT
BRANCH   3   7
ATOM      7  O   UNL     1       2.468  -3.676   4.378  0.00  0.00    -0.386 OA
ATOM      8  H   UNL     1       2.205  -3.829   5.296  0.00  0.00    +0.210 HD
ENDBRANCH   3   7
BRANCH   2   9
ATOM      9  O   UNL     1       3.911  -4.210   2.038  0.00  0.00    -0.386 OA
ATOM     10  H   UNL     1       4.474  -4.935   2.342  0.00  0.00    +0.210 HD
ENDBRANCH   2   9
BRANCH   1  11
ATOM     11  O   UNL     1       1.820  -2.363   2.276  0.00  0.00    -0.337 OA
BRANCH  11  17
ATOM     12  C   UNL     1       0.426  -1.125  -2.086  0.00  0.00    +0.041 C 
ATOM     13  C   UNL     1       0.596  -2.322  -1.148  0.00  0.00    +0.149 C 
ATOM     14  C   UNL     1      -0.757  -3.012  -0.952  0.00  0.00    +0.174 C 
ATOM     15  C   UNL     1      -0.591  -4.172   0.035  0.00  0.00    +0.179 C 
ATOM     16  C   UNL     1      -0.017  -3.632   1.349  0.00  0.00    +0.201 C 
ATOM     17  C   UNL     1       1.306  -2.918   1.063  0.00  0.00    +0.282 C 
ATOM     18  O   UNL     1       1.087  -1.871   0.116  0.00  0.00    -0.343 OA
BRANCH  16  19
ATOM     19  O   UNL     1      -0.942  -2.711   1.931  0.00  0.00    -0.384 OA
ATOM     20  H   UNL     1      -0.643  -2.329   2.767  0.00  0.00    +0.210 HD
ENDBRANCH  16  19
BRANCH  15  21
ATOM     21  O   UNL     1      -1.862  -4.777   0.279  0.00  0.00    -0.386 OA
ATOM     22  H   UNL     1      -1.831  -5.521   0.896  0.00  0.00    +0.210 HD
ENDBRANCH  15  21
BRANCH  14  23
ATOM     23  O   UNL     1      -1.701  -2.073  -0.433  0.00  0.00    -0.387 OA
ATOM     24  H   UNL     1      -1.851  -1.309  -1.006  0.00  0.00    +0.210 HD
ENDBRANCH  14  23
ENDBRANCH  11  17
ENDBRANCH   1  11
BRANCH   6  25
ATOM     25  O   UNL     1       2.425   0.365   2.508  0.00  0.00    -0.457 OA
BRANCH  25  26
ATOM     26  C   UNL     1       2.598   1.636   2.955  0.00  0.00    +0.169 A 
ATOM     27  C   UNL     1       3.677   1.938   3.767  0.00  0.00    +0.096 A 
ATOM     28  C   UNL     1       3.858   3.234   4.226  0.00  0.00    +0.143 A 
ATOM     29  C   UNL     1       2.939   4.235   3.862  0.00  0.00    +0.021 A 
ATOM     30  C   UNL     1       3.143   5.598   4.355  0.00  0.00    +0.018 A 
ATOM     31  C   UNL     1       4.218   5.840   5.149  0.00  0.00    +0.092 A 
ATOM     32  C   UNL     1       5.100   4.790   5.474  0.00  0.00    +0.337 A 
ATOM     33  O   UNL     1       6.060   5.020   6.187  0.00  0.00    -0.245 OA
ATOM     34  O   UNL     1       4.908   3.542   5.020  0.00  0.00    -0.422 OA
ATOM     35  C   UNL     1       1.849   3.922   3.041  0.00  0.00    +0.061 A 
ATOM     36  C   UNL     1       1.686   2.630   2.588  0.00  0.00    +0.162 A 
BRANCH  36  37
ATOM     37  O   UNL     1       0.632   2.321   1.786  0.00  0.00    -0.491 OA
ATOM     38  C   UNL     1      -0.198   3.403   1.360  0.00  0.00    +0.277 C 
ENDBRANCH  36  37
ENDBRANCH  25  26
ENDBRANCH   6  25
BRANCH   4  39
ATOM     39  C   UNL     1       3.581  -2.035   6.436  0.00  0.00    +0.190 C 
BRANCH  39  40
ATOM     40  O   UNL     1       3.825  -0.817   7.142  0.00  0.00    -0.392 OA
ATOM     41  H   UNL     1       3.616  -0.861   8.085  0.00  0.00    +0.210 HD
ENDBRANCH  39  40
ENDBRANCH   4  39
TORSDOF 12
