REMARK  Name = ZINC38550638
REMARK  6 active torsions:
REMARK  status: ('A' for Active; 'I' for Inactive)
REMARK    1  A    between atoms: C_1  and  C_2
REMARK    2  A    between atoms: C_5  and  C_8
REMARK    3  A    between atoms: C_8  and  C_10
REMARK    4  A    between atoms: C_8  and  N_27
REMARK    5  A    between atoms: C_14  and  N_15
REMARK    6  A    between atoms: C_16  and  C_18
REMARK                            x       y       z     vdW  Elec       q    Type
REMARK                         _______ _______ _______ _____ _____    ______ ____
ROOT
ATOM      1  C   UNL     1       1.461  -4.767   0.126  0.00  0.00    +0.009 A 
ATOM      2  C   UNL     1       2.179  -5.194  -0.992  0.00  0.00    -0.030 A 
ATOM      3  C   UNL     1       3.445  -5.638  -0.769  0.00  0.00    -0.005 A 
ATOM      4  S   UNL     1       3.654  -5.469   0.983  0.00  0.00    -0.078 S 
ATOM      5  C   UNL     1       2.038  -4.805   1.357  0.00  0.00    +0.078 A 
ATOM      6  C   UNL     1       4.421  -6.149  -1.779  0.00  0.00    +0.043 C 
ATOM      7  C   UNL     1       3.660  -6.447  -3.079  0.00  0.00    +0.005 C 
ATOM      8  C   UNL     1       2.760  -5.252  -3.406  0.00  0.00    +0.005 C 
ATOM      9  C   UNL     1       1.606  -5.177  -2.406  0.00  0.00    +0.036 C 
ENDROOT
BRANCH   5  10
ATOM     10  N   UNL     1       1.506  -4.425   2.591  0.00  0.00    -0.273 N 
ATOM     11  C   UNL     1       2.214  -4.627   3.720  0.00  0.00    +0.284 C 
ATOM     12  O   UNL     1       3.352  -5.054   3.657  0.00  0.00    -0.266 OA
ATOM     13  H   UNL     1       0.628  -4.016   2.635  0.00  0.00    +0.156 HD
BRANCH  11  14
ATOM     14  C   UNL     1       1.612  -4.332   5.024  0.00  0.00    +0.189 A 
ATOM     15  C   UNL     1       2.246  -4.394   6.232  0.00  0.00    +0.054 A 
ATOM     16  C   UNL     1       1.299  -4.033   7.204  0.00  0.00    +0.042 A 
ATOM     17  C   UNL     1       0.143  -3.769   6.554  0.00  0.00    +0.196 A 
ATOM     18  O   UNL     1       0.338  -3.946   5.240  0.00  0.00    -0.458 OA
ENDBRANCH  11  14
ENDBRANCH   5  10
BRANCH   1  19
ATOM     19  C   UNL     1       0.050  -4.260  -0.031  0.00  0.00    +0.135 C 
BRANCH  19  20
ATOM     20  N   UNL     1      -0.777  -4.771   1.065  0.00  0.00    -0.320 N 
ATOM     21  C   UNL     1      -1.278  -6.066   1.012  0.00  0.00    +0.097 A 
ATOM     22  C   UNL     1      -0.902  -6.909  -0.029  0.00  0.00    +0.041 A 
ATOM     23  C   UNL     1      -1.408  -8.195  -0.070  0.00  0.00    +0.005 A 
ATOM     24  C   UNL     1      -2.278  -8.597   0.935  0.00  0.00    +0.018 A 
ATOM     25  C   UNL     1      -2.609  -7.709   1.938  0.00  0.00    +0.084 A 
ATOM     26  N   UNL     1      -2.106  -6.489   1.955  0.00  0.00    -0.350 N 
ATOM     27  H   UNL     1      -0.975  -4.205   1.828  0.00  0.00    +0.148 HD
ATOM     28  H   UNL     1      -2.352  -5.885   2.674  0.00  0.00    +0.166 HD
ENDBRANCH  19  20
BRANCH  19  33
ATOM     29  C   UNL     1       0.054   1.518   0.093  0.00  0.00    +0.044 C 
ATOM     30  C   UNL     1       0.053   0.011   0.060  0.00  0.00    -0.050 A 
ATOM     31  C   UNL     1       0.097  -0.654  -1.150  0.00  0.00    +0.004 A 
ATOM     32  C   UNL     1       0.096  -2.037  -1.180  0.00  0.00    +0.006 A 
ATOM     33  C   UNL     1       0.052  -2.753   0.002  0.00  0.00    -0.023 A 
ATOM     34  C   UNL     1       0.010  -2.087   1.212  0.00  0.00    +0.006 A 
ATOM     35  C   UNL     1       0.015  -0.706   1.242  0.00  0.00    +0.004 A 
ENDBRANCH  19  33
ENDBRANCH   1  19
TORSDOF 5
