REMARK  Name = ZINC27356372
REMARK  10 active torsions:
REMARK  status: ('A' for Active; 'I' for Inactive)
REMARK    1  A    between atoms: C_1  and  C_2
REMARK    2  A    between atoms: C_5  and  C_8
REMARK    3  A    between atoms: C_8  and  C_10
REMARK    4  A    between atoms: C_8  and  N_16
REMARK    5  A    between atoms: N_16  and  C_17
REMARK    6  A    between atoms: C_17  and  C_18
REMARK    7  A    between atoms: C_18  and  O_19
REMARK    8  A    between atoms: O_19  and  C_20
REMARK    9  A    between atoms: C_23  and  S_26
REMARK   10  A    between atoms: S_26  and  N_29
REMARK                            x       y       z     vdW  Elec       q    Type
REMARK                         _______ _______ _______ _____ _____    ______ ____
ROOT
ATOM      1  N   UNL     1      -0.700   1.560   1.217  0.00  0.00    +0.388 N 
ATOM      2  H   UNL     1       0.014   1.602   2.052  0.00  0.00    -0.084 HD
ATOM      3  H   UNL     1      -1.112   2.563   1.035  0.00  0.00    -0.084 HD
ENDROOT
BRANCH   1   4
ATOM      4  C   UNL     1      -0.013   1.086   0.008  0.00  0.00    -0.010 C 
BRANCH   4   9
ATOM      5  C   UNL     1       5.408   3.087  -0.035  0.00  0.00    +0.044 C 
ATOM      6  C   UNL     1       3.995   2.565  -0.023  0.00  0.00    -0.050 A 
ATOM      7  C   UNL     1       3.732   1.272  -0.437  0.00  0.00    +0.003 A 
ATOM      8  C   UNL     1       2.435   0.793  -0.426  0.00  0.00    +0.002 A 
ATOM      9  C   UNL     1       1.401   1.607  -0.003  0.00  0.00    -0.057 A 
ATOM     10  C   UNL     1       1.663   2.902   0.406  0.00  0.00    +0.002 A 
ATOM     11  C   UNL     1       2.961   3.379   0.401  0.00  0.00    +0.003 A 
ENDBRANCH   4   9
BRANCH   4  12
ATOM     12  C   UNL     1      -0.742   1.585  -1.213  0.00  0.00    -0.057 A 
ATOM     13  C   UNL     1      -1.257   2.868  -1.234  0.00  0.00    +0.002 A 
ATOM     14  C   UNL     1      -1.922   3.327  -2.355  0.00  0.00    +0.000 A 
ATOM     15  C   UNL     1      -2.079   2.501  -3.453  0.00  0.00    +0.000 A 
ATOM     16  C   UNL     1      -1.568   1.216  -3.430  0.00  0.00    +0.000 A 
ATOM     17  C   UNL     1      -0.899   0.759  -2.310  0.00  0.00    +0.002 A 
ENDBRANCH   4  12
ENDBRANCH   1   4
BRANCH   1  18
ATOM     18  C   UNL     1      -1.801   0.659   1.583  0.00  0.00    -0.040 C 
BRANCH  18  19
ATOM     19  C   UNL     1      -2.492   1.184   2.844  0.00  0.00    +0.210 C 
BRANCH  19  20
ATOM     20  O   UNL     1      -3.110   2.441   2.559  0.00  0.00    -0.494 OA
BRANCH  20  21
ATOM     21  C   UNL     1      -3.771   3.047   3.580  0.00  0.00    +0.121 A 
ATOM     22  C   UNL     1      -3.829   2.443   4.827  0.00  0.00    +0.047 A 
ATOM     23  C   UNL     1      -4.497   3.065   5.865  0.00  0.00    +0.032 A 
ATOM     24  C   UNL     1      -5.117   4.283   5.657  0.00  0.00    +0.105 A 
ATOM     25  C   UNL     1      -5.066   4.885   4.413  0.00  0.00    +0.032 A 
ATOM     26  C   UNL     1      -4.395   4.270   3.374  0.00  0.00    +0.047 A 
BRANCH  24  27
ATOM     27  S   UNL     1      -5.975   5.070   6.980  0.00  0.00    +0.056 S 
ATOM     28  O   UNL     1      -5.413   4.566   8.184  0.00  0.00    -0.153 OA
ATOM     29  O   UNL     1      -6.005   6.457   6.676  0.00  0.00    -0.153 OA
BRANCH  27  30
ATOM     30  N   UNL     1      -7.543   4.540   6.931  0.00  0.00    -0.204 NA
ATOM     31  H   UNL     1      -8.114   5.010   7.745  0.00  0.00    +0.144 HD
ATOM     32  H   UNL     1      -7.564   3.447   7.052  0.00  0.00    +0.144 HD
ENDBRANCH  27  30
ENDBRANCH  24  27
ENDBRANCH  20  21
ENDBRANCH  19  20
ENDBRANCH  18  19
ENDBRANCH   1  18
TORSDOF 9
