REMARK  Name = ZINC63362578
REMARK  9 active torsions:
REMARK  status: ('A' for Active; 'I' for Inactive)
REMARK    1  A    between atoms: C_1  and  C_2
REMARK    2  A    between atoms: N_18  and  C_21
REMARK    3  A    between atoms: C_25  and  C_27
REMARK    4  A    between atoms: N_29  and  C_30
REMARK    5  A    between atoms: C_30  and  C_31
REMARK    6  A    between atoms: C_33  and  O_39
REMARK    7  A    between atoms: C_35  and  O_37
REMARK    8  A    between atoms: O_37  and  C_38
REMARK    9  A    between atoms: O_39  and  C_40
REMARK                            x       y       z     vdW  Elec       q    Type
REMARK                         _______ _______ _______ _____ _____    ______ ____
ROOT
ATOM      1  C   UNL     1      -2.559  -1.848   1.835  0.00  0.00    +0.046 A 
ATOM      2  C   UNL     1      -3.773  -1.768   1.163  0.00  0.00    +0.024 A 
ATOM      3  C   UNL     1      -4.894  -2.394   1.675  0.00  0.00    +0.003 A 
ATOM      4  C   UNL     1      -4.816  -3.103   2.856  0.00  0.00    +0.013 A 
ATOM      5  C   UNL     1      -3.601  -3.190   3.538  0.00  0.00    +0.038 A 
ATOM      6  C   UNL     1      -2.469  -2.563   3.019  0.00  0.00    +0.037 A 
ENDROOT
BRANCH   1  23
ATOM      7  C   UNL     1       1.816  -1.329   0.509  0.00  0.00    +0.044 C 
ATOM      8  C   UNL     1       0.690  -0.414   0.995  0.00  0.00    +0.137 C 
ATOM      9  C   UNL     1       1.246   0.865   1.623  0.00  0.00    +0.139 C 
ATOM     10  C   UNL     1       0.627   2.039   0.879  0.00  0.00    -0.034 C 
ATOM     11  C   UNL     1       0.031   2.791   1.800  0.00  0.00    -0.001 A 
ATOM     12  C   UNL     1      -0.679   4.076   1.702  0.00  0.00    +0.010 A 
ATOM     13  C   UNL     1      -1.188   4.569   2.862  0.00  0.00    +0.001 A 
ATOM     14  C   UNL     1      -1.062   3.920   4.094  0.00  0.00    +0.002 A 
ATOM     15  C   UNL     1      -0.424   2.737   4.277  0.00  0.00    +0.026 A 
ATOM     16  C   UNL     1       0.158   2.122   3.130  0.00  0.00    +0.043 A 
ATOM     17  N   UNL     1       0.842   1.002   3.024  0.00  0.00    -0.375 N 
ATOM     18  C   UNL     1       0.670   2.193  -0.622  0.00  0.00    +0.052 C 
ATOM     19  C   UNL     1       0.164   0.867  -1.223  0.00  0.00    +0.115 C 
ATOM     20  N   UNL     1      -0.202  -0.018  -0.114  0.00  0.00    -0.268 N 
ATOM     21  C   UNL     1      -1.387  -0.600   0.120  0.00  0.00    +0.316 C 
ATOM     22  O   UNL     1      -2.320  -0.576  -0.659  0.00  0.00    -0.252 OA
ATOM     23  N   UNL     1      -1.425  -1.211   1.312  0.00  0.00    -0.192 N 
ATOM     24  C   UNL     1      -0.237  -1.137   1.947  0.00  0.00    +0.253 C 
ATOM     25  O   UNL     1       0.032  -1.561   3.051  0.00  0.00    -0.272 OA
ATOM     26  H   UNL     1       1.042   0.376   3.737  0.00  0.00    +0.160 HD
ENDBRANCH   1  23
BRANCH   5  27
ATOM     27  C   UNL     1      -3.514  -3.949   4.804  0.00  0.00    +0.244 C 
ATOM     28  O   UNL     1      -2.455  -4.023   5.397  0.00  0.00    -0.270 OA
ATOM     29  N   UNL     1      -4.609  -4.558   5.302  0.00  0.00    -0.307 N 
ATOM     30  H   UNL     1      -5.454  -4.498   4.829  0.00  0.00    +0.149 HD
BRANCH  29  31
ATOM     31  C   UNL     1      -4.522  -5.309   6.556  0.00  0.00    +0.140 C 
BRANCH  31  32
ATOM     32  C   UNL     1      -5.873  -5.888   6.889  0.00  0.00    -0.023 A 
ATOM     33  C   UNL     1      -6.767  -5.159   7.650  0.00  0.00    +0.051 A 
ATOM     34  C   UNL     1      -8.012  -5.689   7.958  0.00  0.00    +0.124 A 
ATOM     35  C   UNL     1      -8.359  -6.951   7.502  0.00  0.00    +0.091 A 
ATOM     36  C   UNL     1      -7.460  -7.681   6.739  0.00  0.00    +0.124 A 
ATOM     37  C   UNL     1      -6.219  -7.144   6.429  0.00  0.00    +0.051 A 
BRANCH  36  38
ATOM     38  O   UNL     1      -7.797  -8.919   6.291  0.00  0.00    -0.495 OA
ATOM     39  C   UNL     1      -9.093  -9.406   6.644  0.00  0.00    +0.277 C 
ENDBRANCH  36  38
BRANCH  34  40
ATOM     40  O   UNL     1      -8.891  -4.971   8.706  0.00  0.00    -0.495 OA
ATOM     41  C   UNL     1     -10.153  -5.579   8.985  0.00  0.00    +0.277 C 
ENDBRANCH  34  40
ENDBRANCH  31  32
ENDBRANCH  29  31
ENDBRANCH   5  27
TORSDOF 6
