REMARK  Name = ZINC39685699
REMARK  12 active torsions:
REMARK  status: ('A' for Active; 'I' for Inactive)
REMARK    1  A    between atoms: C_1  and  C_2
REMARK    2  A    between atoms: C_7  and  C_8
REMARK    3  A    between atoms: C_12  and  C_21
REMARK    4  A    between atoms: N_23  and  C_24
REMARK    5  A    between atoms: C_24  and  C_26
REMARK    6  A    between atoms: C_24  and  C_29
REMARK    7  A    between atoms: C_26  and  C_27
REMARK    8  A    between atoms: C_26  and  C_28
REMARK    9  A    between atoms: N_31  and  C_32
REMARK   10  A    between atoms: C_32  and  C_33
REMARK   11  A    between atoms: C_32  and  C_34
REMARK   12  A    between atoms: C_32  and  C_35
REMARK                            x       y       z     vdW  Elec       q    Type
REMARK                         _______ _______ _______ _____ _____    ______ ____
ROOT
ATOM      1  C   UNL     1      -0.237  -0.009   3.142  0.00  0.00    +0.247 C 
ATOM      2  O   UNL     1      -0.500   1.167   3.304  0.00  0.00    -0.270 OA
ATOM      3  N   UNL     1       0.091  -0.777   4.199  0.00  0.00    -0.296 N 
ATOM      4  C   UNL     1       0.561  -2.183   4.189  0.00  0.00    +0.121 C 
ATOM      5  C   UNL     1       1.654  -2.237   5.281  0.00  0.00    +0.100 C 
ATOM      6  C   UNL     1       1.321  -1.071   6.227  0.00  0.00    -0.004 C 
ATOM      7  C   UNL     1       0.071  -0.405   5.634  0.00  0.00    +0.115 C 
ATOM      8  C   UNL     1       2.475  -0.074   6.262  0.00  0.00    -0.010 C 
ATOM      9  C   UNL     1       2.146   1.047   7.253  0.00  0.00    -0.082 C 
ATOM     10  N   UNL     1       1.926   0.474   8.586  0.00  0.00    +0.379 N 
ATOM     11  C   UNL     1       0.757  -0.413   8.564  0.00  0.00    -0.082 C 
ATOM     12  C   UNL     1       1.028  -1.595   7.629  0.00  0.00    -0.010 C 
ATOM     13  H   UNL     1       2.741  -0.053   8.863  0.00  0.00    -0.086 HD
ATOM     14  H   UNL     1       1.769   1.219   9.249  0.00  0.00    -0.086 HD
ENDROOT
BRANCH   1  21
ATOM     15  C   UNL     1      -2.595   0.341   1.502  0.00  0.00    +0.044 C 
ATOM     16  C   UNL     1      -1.410  -0.433   0.986  0.00  0.00    -0.038 A 
ATOM     17  C   UNL     1      -1.439  -0.979  -0.281  0.00  0.00    +0.004 A 
ATOM     18  C   UNL     1      -0.352  -1.690  -0.757  0.00  0.00    +0.000 A 
ATOM     19  C   UNL     1       0.771  -1.859   0.033  0.00  0.00    +0.001 A 
ATOM     20  C   UNL     1       0.814  -1.319   1.301  0.00  0.00    +0.013 A 
ATOM     21  C   UNL     1      -0.278  -0.596   1.786  0.00  0.00    +0.040 A 
ENDBRANCH   1  21
BRANCH   5  22
ATOM     22  C   UNL     1       3.017  -2.046   4.668  0.00  0.00    +0.219 C 
ATOM     23  O   UNL     1       3.139  -1.405   3.646  0.00  0.00    -0.275 OA
ATOM     24  N   UNL     1       4.102  -2.589   5.256  0.00  0.00    -0.303 N 
ATOM     25  H   UNL     1       4.004  -3.110   6.068  0.00  0.00    +0.149 HD
BRANCH  24  26
ATOM     26  C   UNL     1       5.429  -2.392   4.668  0.00  0.00    +0.161 C 
BRANCH  26  27
ATOM     27  C   UNL     1       6.276  -3.613   4.918  0.00  0.00    +0.234 C 
ATOM     28  O   UNL     1       5.838  -4.529   5.582  0.00  0.00    -0.274 OA
ATOM     29  N   UNL     1       7.520  -3.688   4.405  0.00  0.00    -0.309 N 
ATOM     30  H   UNL     1       7.896  -2.929   3.933  0.00  0.00    +0.149 HD
BRANCH  29  31
ATOM     31  C   UNL     1       8.304  -4.915   4.561  0.00  0.00    +0.026 C 
ATOM     32  C   UNL     1       7.562  -6.081   3.903  0.00  0.00    +0.031 C 
ATOM     33  C   UNL     1       9.669  -4.737   3.892  0.00  0.00    +0.031 C 
ATOM     34  C   UNL     1       8.500  -5.210   6.049  0.00  0.00    +0.031 C 
ENDBRANCH  29  31
ENDBRANCH  26  27
BRANCH  26  35
ATOM     35  C   UNL     1       6.094  -1.171   5.306  0.00  0.00    +0.012 C 
ATOM     36  C   UNL     1       5.344   0.095   4.888  0.00  0.00    +0.009 C 
ATOM     37  C   UNL     1       6.054  -1.307   6.830  0.00  0.00    +0.009 C 
ENDBRANCH  26  35
ENDBRANCH  24  26
ENDBRANCH   5  22
TORSDOF 6
