REMARK  Name = ZINC19398206
REMARK  6 active torsions:
REMARK  status: ('A' for Active; 'I' for Inactive)
REMARK    1  A    between atoms: C_1  and  C_2
REMARK    2  A    between atoms: C_2  and  C_13
REMARK    3  A    between atoms: N_5  and  C_9
REMARK    4  A    between atoms: C_9  and  C_10
REMARK    5  A    between atoms: C_10  and  C_11
REMARK    6  A    between atoms: C_11  and  N_12
REMARK                            x       y       z     vdW  Elec       q    Type
REMARK                         _______ _______ _______ _____ _____    ______ ____
ROOT
ATOM      1  C   UNL     1       1.128  -4.889   0.360  0.00  0.00    +0.041 C 
ATOM      2  C   UNL     1       1.321  -4.151  -0.966  0.00  0.00    +0.107 C 
ATOM      3  C   UNL     1       1.722  -2.709  -0.725  0.00  0.00    +0.246 C 
ATOM      4  O   UNL     1       2.719  -2.311  -0.163  0.00  0.00    -0.273 OA
ATOM      5  N   UNL     1       0.738  -1.962  -1.265  0.00  0.00    -0.224 N 
ATOM      6  C   UNL     1      -0.215  -2.724  -1.814  0.00  0.00    +0.309 C 
ATOM      7  O   UNL     1      -1.202  -2.278  -2.365  0.00  0.00    -0.252 OA
ATOM      8  N   UNL     1       0.041  -4.038  -1.687  0.00  0.00    -0.285 N 
ATOM      9  C   UNL     1       2.365  -4.859  -1.831  0.00  0.00    +0.041 C 
ATOM     10  H   UNL     1      -0.494  -4.946  -2.002  0.00  0.00    +0.151 HD
ENDROOT
BRANCH   5  11
ATOM     11  C   UNL     1       0.718  -0.497  -1.257  0.00  0.00    +0.116 C 
BRANCH  11  12
ATOM     12  C   UNL     1       0.002  -0.004   0.002  0.00  0.00    -0.000 C 
BRANCH  12  13
ATOM     13  C   UNL     1      -0.019   1.526   0.010  0.00  0.00    -0.085 C 
BRANCH  13  14
ATOM     14  N   UNL     1      -0.706   2.000   1.219  0.00  0.00    +0.378 N 
ATOM     15  H   UNL     1      -0.721   3.099   1.225  0.00  0.00    -0.090 HD
ATOM     16  H   UNL     1      -0.174   1.635   2.110  0.00  0.00    -0.090 HD
ATOM     17  H   UNL     1      -1.738   1.619   1.227  0.00  0.00    -0.090 HD
ENDBRANCH  13  14
ENDBRANCH  12  13
ENDBRANCH  11  12
ENDBRANCH   5  11
TORSDOF 4
