REMARK  Name = ZINC39655736
REMARK  6 active torsions:
REMARK  status: ('A' for Active; 'I' for Inactive)
REMARK    1  A    between atoms: C_4  and  N_7
REMARK    2  A    between atoms: N_7  and  C_8
REMARK    3  A    between atoms: C_8  and  C_9
REMARK    4  A    between atoms: C_9  and  N_10
REMARK    5  A    between atoms: C_11  and  C_13
REMARK    6  A    between atoms: C_24  and  C_26
REMARK                            x       y       z     vdW  Elec       q    Type
REMARK                         _______ _______ _______ _____ _____    ______ ____
ROOT
ATOM      1  C   UNL     1       6.312  -6.230  -0.093  0.00  0.00    +0.100 C 
ATOM      2  C   UNL     1       5.790  -6.784   1.252  0.00  0.00    +0.121 C 
ATOM      3  N   UNL     1       6.635  -7.971   1.522  0.00  0.00    -0.296 N 
ATOM      4  C   UNL     1       7.993  -7.564   1.088  0.00  0.00    +0.115 C 
ATOM      5  C   UNL     1       7.758  -6.744  -0.196  0.00  0.00    -0.004 C 
ATOM      6  C   UNL     1       8.732  -5.571  -0.258  0.00  0.00    -0.010 C 
ATOM      7  C   UNL     1      10.158  -6.106  -0.420  0.00  0.00    -0.082 C 
ATOM      8  N   UNL     1      10.247  -6.907  -1.647  0.00  0.00    +0.379 N 
ATOM      9  C   UNL     1       9.376  -8.083  -1.541  0.00  0.00    -0.082 C 
ATOM     10  C   UNL     1       7.917  -7.632  -1.427  0.00  0.00    -0.010 C 
ATOM     11  C   UNL     1       6.255  -9.154   2.043  0.00  0.00    +0.252 C 
ATOM     12  O   UNL     1       7.073 -10.039   2.205  0.00  0.00    -0.270 OA
ATOM     13  H   UNL     1       9.957  -6.346  -2.434  0.00  0.00    -0.086 HD
ATOM     14  H   UNL     1      11.200  -7.207  -1.783  0.00  0.00    -0.086 HD
ENDROOT
BRANCH  11  15
ATOM     15  C   UNL     1       4.845  -9.376   2.417  0.00  0.00    +0.108 A 
ATOM     16  C   UNL     1       3.944  -9.904   1.485  0.00  0.00    +0.138 A 
ATOM     17  C   UNL     1       2.626 -10.109   1.843  0.00  0.00    +0.041 A 
ATOM     18  C   UNL     1       2.194  -9.795   3.119  0.00  0.00    +0.026 A 
ATOM     19  C   UNL     1       3.077  -9.273   4.048  0.00  0.00    +0.077 A 
ATOM     20  C   UNL     1       4.402  -9.066   3.707  0.00  0.00    +0.156 A 
ATOM     21  F   UNL     1       5.265  -8.562   4.616  0.00  0.00    -0.203 F 
ATOM     22 CL   UNL     1       2.523  -8.882   5.646  0.00  0.00    -0.081 Cl
ATOM     23  F   UNL     1       4.363 -10.211   0.238  0.00  0.00    -0.205 F 
ENDBRANCH  11  15
BRANCH   1  25
ATOM     24  N   UNL     1       6.137  -4.046  -1.239  0.00  0.00    -0.314 N 
ATOM     25  C   UNL     1       6.290  -4.724  -0.085  0.00  0.00    +0.218 C 
ATOM     26  O   UNL     1       6.410  -4.121   0.961  0.00  0.00    -0.275 OA
ATOM     27  H   UNL     1       6.041  -4.527  -2.076  0.00  0.00    +0.149 HD
BRANCH  24  28
ATOM     28  C   UNL     1       6.115  -2.581  -1.231  0.00  0.00    +0.123 C 
BRANCH  28  29
ATOM     29  C   UNL     1       5.931  -2.066  -2.660  0.00  0.00    +0.120 C 
BRANCH  29  30
ATOM     30  N   UNL     1       5.909  -0.601  -2.652  0.00  0.00    -0.342 N 
ATOM     31  H   UNL     1       6.005  -0.119  -1.816  0.00  0.00    +0.146 HD
BRANCH  30  35
ATOM     32  C   UNL     1       5.437   1.494  -6.219  0.00  0.00    +0.000 A 
ATOM     33  C   UNL     1       5.573   2.183  -5.028  0.00  0.00    +0.002 A 
ATOM     34  C   UNL     1       5.730   1.491  -3.843  0.00  0.00    +0.023 A 
ATOM     35  C   UNL     1       5.750   0.102  -3.849  0.00  0.00    +0.027 A 
ATOM     36  C   UNL     1       5.614  -0.587  -5.047  0.00  0.00    +0.023 A 
ATOM     37  C   UNL     1       5.457   0.111  -6.229  0.00  0.00    +0.002 A 
ENDBRANCH  30  35
ENDBRANCH  29  30
ENDBRANCH  28  29
ENDBRANCH  24  28
ENDBRANCH   1  25
TORSDOF 6
