REMARK  Name = ZINC17308163
REMARK  9 active torsions:
REMARK  status: ('A' for Active; 'I' for Inactive)
REMARK    1  A    between atoms: C_3  and  C_6
REMARK    2  A    between atoms: C_6  and  N_53
REMARK    3  A    between atoms: C_7  and  C_8
REMARK    4  A    between atoms: C_7  and  N_53
REMARK    5  A    between atoms: C_14  and  C_15
REMARK    6  A    between atoms: C_14  and  N_53
REMARK    7  A    between atoms: N_17  and  C_18
REMARK    8  A    between atoms: C_20  and  C_27
REMARK    9  A    between atoms: C_22  and  C_24
REMARK                            x       y       z     vdW  Elec       q    Type
REMARK                         _______ _______ _______ _____ _____    ______ ____
ROOT
ATOM      1  C   UNL     1      -4.392   5.986   0.154  0.00  0.00    +0.201 C 
ATOM      2  O   UNL     1      -4.449   5.200   1.076  0.00  0.00    -0.278 OA
ATOM      3  N   UNL     1      -5.193   7.071   0.142  0.00  0.00    -0.287 N 
ATOM      4  H   UNL     1      -5.199   7.661  -0.627  0.00  0.00    +0.155 HD
ENDROOT
BRANCH   3   5
ATOM      5  C   UNL     1      -6.016   7.345   1.241  0.00  0.00    +0.035 A 
ATOM      6  C   UNL     1      -6.615   6.303   1.934  0.00  0.00    +0.036 A 
ATOM      7  C   UNL     1      -7.431   6.572   3.034  0.00  0.00    +0.039 A 
ATOM      8  C   UNL     1      -7.653   7.890   3.428  0.00  0.00    +0.026 A 
ATOM      9  C   UNL     1      -7.055   8.934   2.727  0.00  0.00    +0.039 A 
ATOM     10  C   UNL     1      -6.235   8.657   1.632  0.00  0.00    +0.036 A 
BRANCH   9  11
ATOM     11  C   UNL     1      -7.288  10.334   3.142  0.00  0.00    +0.242 C 
ATOM     12  O   UNL     1      -6.766  11.245   2.529  0.00  0.00    -0.270 OA
ATOM     13  N   UNL     1      -8.080  10.600   4.200  0.00  0.00    -0.325 N 
ATOM     14  H   UNL     1      -8.496   9.874   4.689  0.00  0.00    +0.145 HD
ATOM     15  H   UNL     1      -8.233  11.519   4.472  0.00  0.00    +0.145 HD
ENDBRANCH   9  11
BRANCH   7  16
ATOM     16  C   UNL     1      -8.065   5.460   3.775  0.00  0.00    +0.242 C 
ATOM     17  O   UNL     1      -7.871   4.311   3.430  0.00  0.00    -0.270 OA
ATOM     18  N   UNL     1      -8.858   5.722   4.833  0.00  0.00    -0.325 N 
ATOM     19  H   UNL     1      -9.013   6.639   5.108  0.00  0.00    +0.145 HD
ATOM     20  H   UNL     1      -9.274   4.992   5.319  0.00  0.00    +0.145 HD
ENDBRANCH   7  16
ENDBRANCH   3   5
BRANCH   1  21
ATOM     21  C   UNL     1      -3.427   5.751  -0.979  0.00  0.00    +0.019 C 
BRANCH  21  22
ATOM     22  N   UNL     1      -2.666   4.513  -0.706  0.00  0.00    +0.390 N 
ATOM     23  H   UNL     1      -2.332   4.535   0.265  0.00  0.00    -0.081 HD
BRANCH  22  24
ATOM     24  C   UNL     1      -3.538   3.334  -0.887  0.00  0.00    -0.035 C 
BRANCH  24  27
ATOM     25  C   UNL     1      -2.291   0.560   1.407  0.00  0.00    +0.008 A 
ATOM     26  C   UNL     1      -2.994   1.689   1.032  0.00  0.00    +0.009 A 
ATOM     27  C   UNL     1      -2.880   2.142  -0.241  0.00  0.00    -0.027 A 
ATOM     28  S   UNL     1      -1.742   0.964  -0.951  0.00  0.00    -0.103 S 
ATOM     29  C   UNL     1      -1.501  -0.056   0.494  0.00  0.00    +0.045 A 
ENDBRANCH  24  27
ENDBRANCH  22  24
BRANCH  22  30
ATOM     30  C   UNL     1      -1.502   4.425  -1.613  0.00  0.00    -0.046 C 
BRANCH  30  31
ATOM     31  C   UNL     1      -0.400   5.345  -1.085  0.00  0.00    +0.102 C 
ATOM     32  C   UNL     1       0.902   5.143  -1.893  0.00  0.00    +0.032 C 
ATOM     33  C   UNL     1       1.502   6.562  -2.000  0.00  0.00    +0.030 C 
ATOM     34  C   UNL     1       0.494   7.458  -1.246  0.00  0.00    +0.160 C 
ATOM     35  O   UNL     1      -0.754   6.729  -1.299  0.00  0.00    -0.378 OA
ENDBRANCH  30  31
ENDBRANCH  22  30
ENDBRANCH  21  22
ENDBRANCH   1  21
TORSDOF 9
