REMARK  Name = ZINC50636231
REMARK  4 active torsions:
REMARK  status: ('A' for Active; 'I' for Inactive)
REMARK    1  A    between atoms: C_4  and  N_7
REMARK    2  A    between atoms: N_7  and  S_8
REMARK    3  A    between atoms: S_8  and  C_11
REMARK    4  A    between atoms: C_19  and  N_21
REMARK                            x       y       z     vdW  Elec       q    Type
REMARK                         _______ _______ _______ _____ _____    ______ ____
ROOT
ATOM      1  C   UNL     1       2.624  -3.189   0.323  0.00  0.00    +0.109 A 
ATOM      2  C   UNL     1       1.285  -3.151   0.703  0.00  0.00    +0.031 A 
ATOM      3  C   UNL     1       0.397  -4.072   0.239  0.00  0.00    +0.028 A 
ATOM      4  C   UNL     1       0.832  -5.081  -0.637  0.00  0.00    +0.048 A 
ATOM      5  C   UNL     1       2.194  -5.118  -1.023  0.00  0.00    +0.000 A 
ATOM      6  C   UNL     1       3.081  -4.149  -0.529  0.00  0.00    +0.038 A 
ATOM      7  C   UNL     1       2.631  -6.129  -1.903  0.00  0.00    +0.013 A 
ATOM      8  C   UNL     1       1.717  -7.037  -2.348  0.00  0.00    +0.042 A 
ATOM      9  C   UNL     1       0.382  -6.947  -1.930  0.00  0.00    +0.094 A 
ATOM     10  N   UNL     1      -0.020  -5.999  -1.108  0.00  0.00    -0.343 N 
ATOM     11  H   UNL     1      -0.952  -5.966  -0.839  0.00  0.00    +0.167 HD
ENDROOT
BRANCH   1  12
ATOM     12  S   UNL     1       3.740  -1.977   0.946  0.00  0.00    +0.072 S 
ATOM     13  O   UNL     1       5.050  -2.497   0.761  0.00  0.00    -0.150 OA
ATOM     14  O   UNL     1       3.248  -1.589   2.221  0.00  0.00    -0.150 OA
BRANCH  12  15
ATOM     15  N   UNL     1       3.617  -0.648  -0.034  0.00  0.00    -0.216 N 
ATOM     16  H   UNL     1       3.319   0.199   0.333  0.00  0.00    +0.174 HD
BRANCH  15  20
ATOM     17  C   UNL     1       4.584  -0.940  -4.073  0.00  0.00    +0.000 A 
ATOM     18  C   UNL     1       3.421  -0.299  -3.687  0.00  0.00    +0.002 A 
ATOM     19  C   UNL     1       3.097  -0.200  -2.348  0.00  0.00    +0.024 A 
ATOM     20  C   UNL     1       3.941  -0.746  -1.389  0.00  0.00    +0.048 A 
ATOM     21  C   UNL     1       5.108  -1.389  -1.780  0.00  0.00    +0.024 A 
ATOM     22  C   UNL     1       5.426  -1.484  -3.121  0.00  0.00    +0.002 A 
ENDBRANCH  15  20
ENDBRANCH  12  15
ENDBRANCH   1  12
BRANCH   9  23
ATOM     23  N   UNL     1      -0.537  -7.877  -2.392  0.00  0.00    -0.345 N 
ATOM     24  H   UNL     1      -0.253  -8.579  -2.997  0.00  0.00    +0.144 HD
ATOM     25  H   UNL     1      -1.464  -7.825  -2.109  0.00  0.00    +0.144 HD
ENDBRANCH   9  23
TORSDOF 4
