REMARK  Name = ZINC63614431
REMARK  11 active torsions:
REMARK  status: ('A' for Active; 'I' for Inactive)
REMARK    1  A    between atoms: C_1  and  O_2
REMARK    2  A    between atoms: O_2  and  C_3
REMARK    3  A    between atoms: C_5  and  C_19
REMARK    4  A    between atoms: C_8  and  O_9
REMARK    5  A    between atoms: O_9  and  C_10
REMARK    6  A    between atoms: C_10  and  C_11
REMARK    7  A    between atoms: C_20  and  C_21
REMARK    8  A    between atoms: C_20  and  C_23
REMARK    9  A    between atoms: N_25  and  C_26
REMARK   10  A    between atoms: C_26  and  C_27
REMARK   11  A    between atoms: C_27  and  C_28
REMARK                            x       y       z     vdW  Elec       q    Type
REMARK                         _______ _______ _______ _____ _____    ______ ____
ROOT
ATOM      1  C   UNL     1      -4.849   0.217   0.038  0.00  0.00    +0.032 C 
ATOM      2  C   UNL     1      -6.064  -0.427  -0.059  0.00  0.00    +0.114 C 
ENDROOT
BRANCH   1   5
ATOM      3  C   UNL     1      -1.271  -0.894  -0.019  0.00  0.00    +0.164 A 
ATOM      4  C   UNL     1      -2.415  -0.165  -0.274  0.00  0.00    +0.057 A 
ATOM      5  C   UNL     1      -3.632  -0.552   0.304  0.00  0.00    -0.019 A 
ATOM      6  C   UNL     1      -3.680  -1.678   1.138  0.00  0.00    +0.032 A 
ATOM      7  C   UNL     1      -2.533  -2.399   1.387  0.00  0.00    +0.087 A 
ATOM      8  C   UNL     1      -1.328  -2.016   0.808  0.00  0.00    +0.181 A 
ATOM      9 CL   UNL     1      -2.593  -3.793   2.420  0.00  0.00    -0.080 Cl
BRANCH   3  11
ATOM     10  C   UNL     1      -0.103   0.637  -1.414  0.00  0.00    +0.277 C 
ATOM     11  O   UNL     1      -0.089  -0.521  -0.578  0.00  0.00    -0.491 OA
ENDBRANCH   3  11
BRANCH   8  12
ATOM     12  O   UNL     1      -0.202  -2.734   1.052  0.00  0.00    -0.482 OA
BRANCH  12  13
ATOM     13  C   UNL     1       0.584  -2.345   2.181  0.00  0.00    +0.267 C 
BRANCH  13  14
ATOM     14  C   UNL     1       1.785  -3.248   2.293  0.00  0.00    +0.025 A 
ATOM     15  C   UNL     1       1.978  -4.259   1.370  0.00  0.00    +0.010 A 
ATOM     16  C   UNL     1       3.079  -5.088   1.473  0.00  0.00    +0.001 A 
ATOM     17  C   UNL     1       3.989  -4.907   2.498  0.00  0.00    +0.003 A 
ATOM     18  C   UNL     1       3.798  -3.897   3.421  0.00  0.00    +0.039 A 
ATOM     19  C   UNL     1       2.698  -3.063   3.317  0.00  0.00    +0.130 A 
ATOM     20  F   UNL     1       2.513  -2.072   4.216  0.00  0.00    -0.205 F 
ENDBRANCH  13  14
ENDBRANCH  12  13
ENDBRANCH   8  12
ENDBRANCH   1   5
BRANCH   2  21
ATOM     21  C   UNL     1      -7.306   0.356  -0.159  0.00  0.00    +0.254 C 
ATOM     22  O   UNL     1      -7.260   1.572  -0.157  0.00  0.00    -0.269 OA
ATOM     23  N   UNL     1      -8.493  -0.273  -0.253  0.00  0.00    -0.310 N 
ATOM     24  H   UNL     1      -8.530  -1.242  -0.255  0.00  0.00    +0.149 HD
BRANCH  23  25
ATOM     25  C   UNL     1      -9.730   0.506  -0.353  0.00  0.00    +0.109 C 
BRANCH  25  26
ATOM     26  C   UNL     1     -10.925  -0.443  -0.448  0.00  0.00    +0.052 C 
BRANCH  26  27
ATOM     27  C   UNL     1     -12.197   0.359  -0.550  0.00  0.00    -0.040 C 
ATOM     28  C   UNL     1     -12.851   0.706  -1.683  0.00  0.00    -0.001 A 
ATOM     29  C   UNL     1     -12.582   0.451  -3.103  0.00  0.00    +0.010 A 
ATOM     30  C   UNL     1     -13.438   0.939  -4.030  0.00  0.00    +0.001 A 
ATOM     31  C   UNL     1     -14.571   1.681  -3.669  0.00  0.00    +0.002 A 
ATOM     32  C   UNL     1     -14.884   1.956  -2.385  0.00  0.00    +0.026 A 
ATOM     33  C   UNL     1     -14.054   1.491  -1.328  0.00  0.00    +0.043 A 
ATOM     34  N   UNL     1     -14.141   1.625  -0.027  0.00  0.00    -0.380 N 
ATOM     35  C   UNL     1     -13.005   0.933   0.592  0.00  0.00    +0.144 C 
ATOM     36  H   UNL     1     -14.842   2.098   0.448  0.00  0.00    +0.160 HD
ENDBRANCH  26  27
ENDBRANCH  25  26
ENDBRANCH  23  25
ENDBRANCH   2  21
BRANCH   2  37
ATOM     37  C   UNL     1      -6.118  -1.858  -0.061  0.00  0.00    +0.104 C 
ATOM     38  N   UNL     1      -6.160  -2.993  -0.063  0.00  0.00    -0.191 NA
ENDBRANCH   2  37
TORSDOF 10
