REMARK  Name = ZINC01576641
REMARK  6 active torsions:
REMARK  status: ('A' for Active; 'I' for Inactive)
REMARK    1  A    between atoms: C_1  and  O_2
REMARK    2  A    between atoms: O_2  and  C_3
REMARK    3  A    between atoms: C_3  and  C_16
REMARK    4  A    between atoms: C_4  and  C_8
REMARK    5  A    between atoms: C_4  and  O_14
REMARK    6  A    between atoms: O_14  and  C_15
REMARK                            x       y       z     vdW  Elec       q    Type
REMARK                         _______ _______ _______ _____ _____    ______ ____
ROOT
ATOM      1  C   UNL     1       0.002  -0.004   0.002  0.00  0.00    +0.215 C 
ATOM      2  C   UNL     1      -1.431  -0.568   0.070  0.00  0.00    +0.219 C 
ATOM      3  C   UNL     1      -0.293  -1.269   1.905  0.00  0.00    +0.156 C 
ATOM      4  N   UNL     1       0.632  -0.522   1.228  0.00  0.00    -0.283 N 
ATOM      5  N   UNL     1      -0.018  -1.894   3.098  0.00  0.00    -0.333 N 
ATOM      6  H   UNL     1       1.546  -0.361   1.508  0.00  0.00    +0.152 HD
ATOM      7  H   UNL     1       0.864  -1.816   3.495  0.00  0.00    +0.145 HD
ATOM      8  H   UNL     1      -0.706  -2.414   3.543  0.00  0.00    +0.145 HD
ATOM      9  N   UNL     1      -1.451  -1.338   1.329  0.00  0.00    -0.326 N 
ATOM     10  H   UNL     1      -2.262  -1.852   1.693  0.00  0.00    +0.165 HD
ENDROOT
BRANCH   2  11
ATOM     11  C   UNL     1      -2.438   0.552   0.121  0.00  0.00    +0.009 A 
ATOM     12  C   UNL     1      -2.846   1.060   1.340  0.00  0.00    +0.008 A 
ATOM     13  C   UNL     1      -3.765   2.092   1.386  0.00  0.00    +0.000 A 
ATOM     14  C   UNL     1      -4.285   2.608   0.214  0.00  0.00    +0.000 A 
ATOM     15  C   UNL     1      -3.881   2.096  -1.005  0.00  0.00    +0.000 A 
ATOM     16  C   UNL     1      -2.957   1.069  -1.052  0.00  0.00    +0.008 A 
ENDBRANCH   2  11
BRANCH   1  17
ATOM     17  C   UNL     1       0.718  -0.518  -1.221  0.00  0.00    +0.007 A 
ATOM     18  C   UNL     1       0.682   0.206  -2.398  0.00  0.00    +0.008 A 
ATOM     19  C   UNL     1       1.342  -0.262  -3.518  0.00  0.00    +0.000 A 
ATOM     20  C   UNL     1       2.031  -1.460  -3.464  0.00  0.00    +0.000 A 
ATOM     21  C   UNL     1       2.062  -2.187  -2.288  0.00  0.00    +0.000 A 
ATOM     22  C   UNL     1       1.406  -1.715  -1.167  0.00  0.00    +0.008 A 
ENDBRANCH   1  17
BRANCH   1  24
ATOM     23  C   UNL     1       1.280   2.024   0.001  0.00  0.00    +0.197 C 
ATOM     24  O   UNL     1      -0.017   1.425   0.010  0.00  0.00    -0.351 OA
ENDBRANCH   1  24
BRANCH   2  25
ATOM     25  O   UNL     1      -1.687  -1.423  -1.046  0.00  0.00    -0.349 OA
ATOM     26  C   UNL     1      -2.999  -1.988  -1.057  0.00  0.00    +0.197 C 
ENDBRANCH   2  25
TORSDOF 4
