REMARK  Name = ZINC19323021
REMARK  13 active torsions:
REMARK  status: ('A' for Active; 'I' for Inactive)
REMARK    1  A    between atoms: C_1  and  C_2
REMARK    2  A    between atoms: C_6  and  C_27
REMARK    3  A    between atoms: C_7  and  O_8
REMARK    4  A    between atoms: C_12  and  C_13
REMARK    5  A    between atoms: C_13  and  C_15
REMARK    6  A    between atoms: C_13  and  O_26
REMARK    7  A    between atoms: C_15  and  C_17
REMARK    8  A    between atoms: C_15  and  O_25
REMARK    9  A    between atoms: C_17  and  C_19
REMARK   10  A    between atoms: C_17  and  O_24
REMARK   11  A    between atoms: C_19  and  C_21
REMARK   12  A    between atoms: C_19  and  O_23
REMARK   13  A    between atoms: C_21  and  O_22
REMARK                            x       y       z     vdW  Elec       q    Type
REMARK                         _______ _______ _______ _____ _____    ______ ____
ROOT
ATOM      1  C   UNL     1      -0.271   1.660  -0.614  0.00  0.00    +0.013 C 
ATOM      2  C   UNL     1      -0.226   0.141  -0.431  0.00  0.00    -0.008 C 
ATOM      3  C   UNL     1       0.652  -0.492  -1.516  0.00  0.00    -0.066 C 
ATOM      4  N   UNL     1       0.666  -1.949  -1.348  0.00  0.00    +0.393 N 
ATOM      5  C   UNL     1       1.261  -2.305  -0.056  0.00  0.00    -0.066 C 
ATOM      6  C   UNL     1       0.405  -1.733   1.079  0.00  0.00    -0.008 C 
ATOM      7  C   UNL     1       0.362  -0.206   0.943  0.00  0.00    +0.125 C 
ATOM      8  C   UNL     1      -1.021  -2.280   0.940  0.00  0.00    +0.090 C 
ATOM      9  N   UNL     1      -1.540  -1.917  -0.388  0.00  0.00    -0.312 NA
ATOM     10  C   UNL     1      -1.642  -0.441  -0.520  0.00  0.00    +0.090 C 
ATOM     11  C   UNL     1      -0.694  -2.485  -1.446  0.00  0.00    +0.034 C 
ATOM     12  C   UNL     1       1.001  -2.122   2.433  0.00  0.00    +0.013 C 
ATOM     13  H   UNL     1       1.231  -2.356  -2.079  0.00  0.00    -0.079 HD
ENDROOT
BRANCH   7  14
ATOM     14  O   UNL     1       1.691   0.310   1.042  0.00  0.00    -0.391 OA
ATOM     15  H   UNL     1       2.122   0.126   1.888  0.00  0.00    +0.210 HD
ENDBRANCH   7  14
BRANCH  11  16
ATOM     16  C   UNL     1      -0.651  -4.007  -1.299  0.00  0.00    +0.146 C 
BRANCH  16  17
ATOM     17  O   UNL     1      -1.984  -4.522  -1.278  0.00  0.00    -0.390 OA
ATOM     18  H   UNL     1      -2.504  -4.301  -2.063  0.00  0.00    +0.210 HD
ENDBRANCH  16  17
BRANCH  16  19
ATOM     19  C   UNL     1       0.110  -4.612  -2.480  0.00  0.00    +0.173 C 
BRANCH  19  20
ATOM     20  O   UNL     1       1.481  -4.214  -2.418  0.00  0.00    -0.387 OA
ATOM     21  H   UNL     1       1.936  -4.494  -1.612  0.00  0.00    +0.210 HD
ENDBRANCH  19  20
BRANCH  19  22
ATOM     22  C   UNL     1       0.020  -6.138  -2.417  0.00  0.00    +0.176 C 
BRANCH  22  23
ATOM     23  O   UNL     1       0.488  -6.591  -1.145  0.00  0.00    -0.387 OA
ATOM     24  H   UNL     1       1.405  -6.352  -0.956  0.00  0.00    +0.210 HD
ENDBRANCH  22  23
BRANCH  22  25
ATOM     25  C   UNL     1       0.883  -6.747  -3.525  0.00  0.00    +0.171 C 
BRANCH  25  26
ATOM     26  O   UNL     1       0.415  -6.294  -4.796  0.00  0.00    -0.387 OA
ATOM     27  H   UNL     1      -0.502  -6.533  -4.986  0.00  0.00    +0.210 HD
ENDBRANCH  25  26
BRANCH  25  28
ATOM     28  C   UNL     1       0.792  -8.273  -3.462  0.00  0.00    +0.189 C 
BRANCH  28  29
ATOM     29  O   UNL     1       1.687  -8.843  -4.418  0.00  0.00    -0.392 OA
ATOM     30  H   UNL     1       1.683  -9.810  -4.434  0.00  0.00    +0.210 HD
ENDBRANCH  28  29
ENDBRANCH  25  28
ENDBRANCH  22  25
ENDBRANCH  19  22
ENDBRANCH  16  19
ENDBRANCH  11  16
TORSDOF 11
