REMARK  Name = ZINC34786498
REMARK  8 active torsions:
REMARK  status: ('A' for Active; 'I' for Inactive)
REMARK    1  A    between atoms: C_1  and  C_2
REMARK    2  A    between atoms: C_4  and  C_37
REMARK    3  A    between atoms: N_20  and  N_21
REMARK    4  A    between atoms: N_20  and  N_29
REMARK    5  A    between atoms: N_21  and  C_22
REMARK    6  A    between atoms: C_22  and  C_23
REMARK    7  A    between atoms: N_29  and  C_30
REMARK    8  A    between atoms: C_30  and  C_31
REMARK                            x       y       z     vdW  Elec       q    Type
REMARK                         _______ _______ _______ _____ _____    ______ ____
ROOT
ATOM      1  C   UNL     1      -0.655   2.043   0.738  0.00  0.00    +0.067 C 
ATOM      2  C   UNL     1      -0.371   0.576   0.543  0.00  0.00    +0.061 A 
ATOM      3  C   UNL     1      -0.151  -0.060  -0.684  0.00  0.00    +0.048 A 
ATOM      4  C   UNL     1       0.068  -1.373  -0.441  0.00  0.00    +0.045 A 
ATOM      5  N   UNL     1      -0.011  -1.560   0.903  0.00  0.00    -0.202 N 
ATOM      6  N   UNL     1      -0.281  -0.319   1.493  0.00  0.00    -0.169 NA
ATOM      7  C   UNL     1       0.154  -2.772   1.575  0.00  0.00    +0.254 A 
ATOM      8  N   UNL     1       0.043  -2.802   2.897  0.00  0.00    -0.192 NA
ATOM      9  C   UNL     1       0.188  -3.919   3.589  0.00  0.00    +0.164 A 
ATOM     10  C   UNL     1       0.474  -5.131   2.900  0.00  0.00    +0.054 A 
ATOM     11  C   UNL     1       0.676  -6.473   3.451  0.00  0.00    -0.025 A 
ATOM     12  C   UNL     1       0.937  -7.462   2.574  0.00  0.00    -0.004 A 
ATOM     13  S   UNL     1       0.930  -6.682   0.982  0.00  0.00    -0.073 S 
ATOM     14  C   UNL     1       0.577  -5.023   1.498  0.00  0.00    +0.116 A 
ATOM     15  N   UNL     1       0.413  -3.869   0.881  0.00  0.00    -0.203 NA
ATOM     16  C   UNL     1       1.181  -8.908   2.882  0.00  0.00    +0.043 C 
ATOM     17  C   UNL     1       1.459  -9.043   4.386  0.00  0.00    +0.005 C 
ATOM     18  C   UNL     1       0.391  -8.259   5.155  0.00  0.00    +0.005 C 
ATOM     19  C   UNL     1       0.600  -6.758   4.949  0.00  0.00    +0.037 C 
ATOM     20  N   UNL     1       0.065  -3.910   4.966  0.00  0.00    -0.181 N 
ATOM     21  C   UNL     1       0.348  -2.434  -1.472  0.00  0.00    +0.066 C 
ENDROOT
BRANCH  20  22
ATOM     22  N   UNL     1      -1.035  -3.347   5.550  0.00  0.00    -0.220 NA
ATOM     23  H   UNL     1      -0.796  -2.914   6.429  0.00  0.00    +0.146 HD
BRANCH  22  24
ATOM     24  C   UNL     1      -2.104  -4.340   5.725  0.00  0.00    +0.138 C 
BRANCH  24  25
ATOM     25  C   UNL     1      -3.297  -3.684   6.370  0.00  0.00    -0.032 A 
ATOM     26  C   UNL     1      -3.409  -3.653   7.747  0.00  0.00    +0.005 A 
ATOM     27  C   UNL     1      -4.504  -3.051   8.339  0.00  0.00    +0.000 A 
ATOM     28  C   UNL     1      -5.487  -2.480   7.553  0.00  0.00    +0.000 A 
ATOM     29  C   UNL     1      -5.375  -2.509   6.175  0.00  0.00    +0.000 A 
ATOM     30  C   UNL     1      -4.278  -3.107   5.584  0.00  0.00    +0.005 A 
ENDBRANCH  24  25
ENDBRANCH  22  24
ENDBRANCH  20  22
BRANCH  20  31
ATOM     31  N   UNL     1       1.042  -4.464   5.744  0.00  0.00    -0.220 NA
ATOM     32  H   UNL     1       0.665  -4.794   6.619  0.00  0.00    +0.146 HD
BRANCH  31  33
ATOM     33  C   UNL     1       2.138  -3.512   5.969  0.00  0.00    +0.138 C 
BRANCH  33  34
ATOM     34  C   UNL     1       3.251  -4.196   6.720  0.00  0.00    -0.032 A 
ATOM     35  C   UNL     1       3.314  -4.104   8.098  0.00  0.00    +0.005 A 
ATOM     36  C   UNL     1       4.335  -4.731   8.786  0.00  0.00    +0.000 A 
ATOM     37  C   UNL     1       5.293  -5.451   8.097  0.00  0.00    +0.000 A 
ATOM     38  C   UNL     1       5.230  -5.543   6.720  0.00  0.00    +0.000 A 
ATOM     39  C   UNL     1       4.207  -4.920   6.031  0.00  0.00    +0.005 A 
ENDBRANCH  33  34
ENDBRANCH  31  33
ENDBRANCH  20  31
TORSDOF 6
