REMARK  Name = ZINC29334484
REMARK  4 active torsions:
REMARK  status: ('A' for Active; 'I' for Inactive)
REMARK    1  A    between atoms: C_1  and  C_2
REMARK    2  A    between atoms: C_9  and  C_11
REMARK    3  A    between atoms: C_11  and  S_12
REMARK    4  A    between atoms: S_12  and  C_13
REMARK                            x       y       z     vdW  Elec       q    Type
REMARK                         _______ _______ _______ _____ _____    ______ ____
ROOT
ATOM      1  C   UNL     1       3.016  -0.790   2.155  0.00  0.00    +0.009 C 
ATOM      2  C   UNL     1       2.220  -0.169   1.005  0.00  0.00    +0.003 C 
ATOM      3  C   UNL     1       2.194   1.353   1.166  0.00  0.00    +0.006 C 
ATOM      4  C   UNL     1       1.426   1.978  -0.001  0.00  0.00    +0.019 C 
ATOM      5  C   UNL     1      -0.018   1.465   0.010  0.00  0.00    +0.108 C 
ATOM      6  N   UNL     1       0.002  -0.004   0.002  0.00  0.00    -0.301 N 
ATOM      7  C   UNL     1       0.786  -0.706   1.028  0.00  0.00    +0.111 C 
ATOM      8  C   UNL     1      -0.685  -0.695  -0.929  0.00  0.00    +0.226 C 
ATOM      9  O   UNL     1      -0.661  -1.908  -0.925  0.00  0.00    -0.275 OA
ENDROOT
BRANCH   8  10
ATOM     10  C   UNL     1      -1.484   0.039  -1.975  0.00  0.00    +0.173 C 
BRANCH  10  11
ATOM     11  S   UNL     1      -2.286  -1.157  -3.071  0.00  0.00    -0.084 S 
BRANCH  11  12
ATOM     12  C   UNL     1      -3.126  -0.057  -4.162  0.00  0.00    +0.123 C 
ATOM     13  N   UNL     1      -3.023   1.232  -3.995  0.00  0.00    -0.382 N 
ATOM     14  N   UNL     1      -3.889  -0.559  -5.191  0.00  0.00    -0.340 N 
ATOM     15  H   UNL     1      -3.547   1.919  -4.676  0.00  0.00    +0.158 HD
ATOM     16  H   UNL     1      -4.413   0.128  -5.872  0.00  0.00    +0.144 HD
ATOM     17  H   UNL     1      -3.976  -1.646  -5.332  0.00  0.00    +0.144 HD
ATOM     18  H   UNL     1      -2.412   1.633  -3.172  0.00  0.00    +0.158 HD
ENDBRANCH  11  12
ENDBRANCH  10  11
ENDBRANCH   8  10
TORSDOF 3
