REMARK  Name = ZINC01827392
REMARK  8 active torsions:
REMARK  status: ('A' for Active; 'I' for Inactive)
REMARK    1  A    between atoms: C_1  and  C_2
REMARK    2  A    between atoms: C_3  and  N_9
REMARK    3  A    between atoms: C_10  and  C_12
REMARK    4  A    between atoms: C_12  and  S_13
REMARK    5  A    between atoms: S_13  and  C_14
REMARK    6  A    between atoms: N_27  and  C_28
REMARK    7  A    between atoms: C_31  and  O_34
REMARK    8  A    between atoms: O_34  and  C_35
REMARK                            x       y       z     vdW  Elec       q    Type
REMARK                         _______ _______ _______ _____ _____    ______ ____
ROOT
ATOM      1  C   UNL     1       0.431  -0.023  -7.681  0.00  0.00    +0.178 A 
ATOM      2  N   UNL     1       0.407   1.287  -7.537  0.00  0.00    -0.215 NA
ATOM      3  C   UNL     1       0.478   2.089  -8.592  0.00  0.00    +0.117 A 
ATOM      4  C   UNL     1       0.581   1.593  -9.903  0.00  0.00    +0.076 A 
ATOM      5  C   UNL     1       0.649   2.600 -10.964  0.00  0.00    -0.023 A 
ATOM      6  C   UNL     1       0.608   3.893 -10.584  0.00  0.00    -0.004 A 
ATOM      7  S   UNL     1       0.477   3.850  -8.817  0.00  0.00    -0.073 S 
ATOM      8  C   UNL     1       0.661   5.101 -11.469  0.00  0.00    +0.043 C 
ATOM      9  C   UNL     1       1.144   4.662 -12.859  0.00  0.00    +0.005 C 
ATOM     10  C   UNL     1       0.349   3.425 -13.288  0.00  0.00    +0.005 C 
ATOM     11  C   UNL     1       0.763   2.223 -12.438  0.00  0.00    +0.037 C 
ATOM     12  C   UNL     1       0.606   0.168 -10.030  0.00  0.00    +0.268 A 
ATOM     13  O   UNL     1       0.694  -0.352 -11.129  0.00  0.00    -0.267 OA
ATOM     14  N   UNL     1       0.535  -0.589  -8.920  0.00  0.00    -0.255 N 
ENDROOT
BRANCH  14  15
ATOM     15  C   UNL     1       0.563  -1.987  -9.038  0.00  0.00    +0.052 A 
ATOM     16  C   UNL     1       1.706  -2.621  -9.505  0.00  0.00    +0.030 A 
ATOM     17  C   UNL     1       1.733  -3.997  -9.621  0.00  0.00    +0.047 A 
ATOM     18  C   UNL     1       0.619  -4.745  -9.270  0.00  0.00    +0.120 A 
ATOM     19  C   UNL     1      -0.524  -4.111  -8.803  0.00  0.00    +0.047 A 
ATOM     20  C   UNL     1      -0.550  -2.736  -8.681  0.00  0.00    +0.030 A 
BRANCH  18  21
ATOM     21  O   UNL     1       0.646  -6.099  -9.385  0.00  0.00    -0.495 OA
ATOM     22  C   UNL     1      -0.537  -6.806  -9.006  0.00  0.00    +0.277 C 
ENDBRANCH  18  21
ENDBRANCH  14  15
BRANCH   1  23
ATOM     23  S   UNL     1       0.335  -1.056  -6.258  0.00  0.00    -0.078 S 
BRANCH  23  24
ATOM     24  C   UNL     1       0.211   0.111  -4.875  0.00  0.00    +0.173 C 
BRANCH  24  26
ATOM     25  N   UNL     1       0.022   0.012  -2.411  0.00  0.00    -0.285 N 
ATOM     26  C   UNL     1       0.121  -0.653  -3.579  0.00  0.00    +0.227 C 
ATOM     27  O   UNL     1       0.139  -1.865  -3.587  0.00  0.00    -0.275 OA
ATOM     28  H   UNL     1      -0.074   0.977  -2.408  0.00  0.00    +0.155 HD
BRANCH  25  31
ATOM     29  C   UNL     1      -1.220   1.189  -0.137  0.00  0.00    +0.047 C 
ATOM     30  C   UNL     1      -0.538  -0.153  -0.067  0.00  0.00    -0.011 A 
ATOM     31  C   UNL     1       0.056  -0.691  -1.201  0.00  0.00    +0.038 A 
ATOM     32  C   UNL     1       0.684  -1.928  -1.133  0.00  0.00    +0.023 A 
ATOM     33  C   UNL     1       0.716  -2.620   0.063  0.00  0.00    +0.003 A 
ATOM     34  C   UNL     1       0.124  -2.083   1.190  0.00  0.00    +0.020 A 
ATOM     35  C   UNL     1      -0.498  -0.847   1.127  0.00  0.00    +0.046 A 
ATOM     36 CL   UNL     1      -1.233  -0.173   2.548  0.00  0.00    -0.083 Cl
ENDBRANCH  25  31
ENDBRANCH  24  26
ENDBRANCH  23  24
ENDBRANCH   1  23
TORSDOF 6
