REMARK  Name = ZINC16216459
REMARK  10 active torsions:
REMARK  status: ('A' for Active; 'I' for Inactive)
REMARK    1  A    between atoms: C_1  and  C_2
REMARK    2  A    between atoms: C_6  and  C_22
REMARK    3  A    between atoms: C_7  and  N_8
REMARK    4  A    between atoms: N_8  and  C_9
REMARK    5  A    between atoms: C_9  and  N_11
REMARK    6  A    between atoms: N_11  and  C_12
REMARK    7  A    between atoms: C_14  and  C_20
REMARK    8  A    between atoms: C_14  and  C_21
REMARK    9  A    between atoms: C_16  and  C_18
REMARK   10  A    between atoms: C_16  and  C_19
REMARK                            x       y       z     vdW  Elec       q    Type
REMARK                         _______ _______ _______ _____ _____    ______ ____
ROOT
ATOM      1  N   UNL     1      -0.442  -0.122   4.759  0.00  0.00    -0.324 N 
ATOM      2  H   UNL     1      -0.297   0.837   4.781  0.00  0.00    +0.148 HD
ENDROOT
BRANCH   1   3
ATOM      3  C   UNL     1      -0.659  -0.862   6.008  0.00  0.00    +0.069 C 
ATOM      4  C   UNL     1      -2.161  -0.966   6.277  0.00  0.00    +0.009 C 
ATOM      5  C   UNL     1      -2.403  -1.723   7.582  0.00  0.00    -0.072 C 
ATOM      6  N   UNL     1      -1.676  -1.137   8.698  0.00  0.00    +0.386 N 
ATOM      7  C   UNL     1      -0.277  -0.801   8.492  0.00  0.00    -0.072 C 
ATOM      8  C   UNL     1      -0.017  -0.096   7.165  0.00  0.00    +0.009 C 
ATOM      9  C   UNL     1       0.625  -2.033   8.613  0.00  0.00    -0.010 C 
ATOM     10  C   UNL     1       0.138   0.174   9.619  0.00  0.00    -0.010 C 
ATOM     11  C   UNL     1      -2.081  -3.206   7.400  0.00  0.00    -0.010 C 
ATOM     12  C   UNL     1      -3.912  -1.618   7.901  0.00  0.00    -0.010 C 
ATOM     13  H   UNL     1      -2.170  -0.291   8.994  0.00  0.00    -0.084 HD
ATOM     14  H   UNL     1      -1.740  -1.777   9.495  0.00  0.00    -0.084 HD
ENDBRANCH   1   3
BRANCH   1  15
ATOM     15  C   UNL     1      -0.446  -0.775   3.580  0.00  0.00    +0.135 C 
ATOM     16  S   UNL     1      -0.703  -2.467   3.539  0.00  0.00    -0.019 S 
BRANCH  15  17
ATOM     17  N   UNL     1      -0.247  -0.096   2.433  0.00  0.00    -0.296 N 
ATOM     18  H   UNL     1      -0.183   0.872   2.447  0.00  0.00    +0.154 HD
BRANCH  17  25
ATOM     19  C   UNL     1       2.272  -1.242   1.770  0.00  0.00    +0.045 C 
ATOM     20  C   UNL     1       1.078  -1.362   0.859  0.00  0.00    -0.029 A 
ATOM     21  C   UNL     1       1.185  -2.049  -0.334  0.00  0.00    +0.005 A 
ATOM     22  C   UNL     1       0.089  -2.160  -1.171  0.00  0.00    +0.001 A 
ATOM     23  C   UNL     1      -1.117  -1.584  -0.816  0.00  0.00    +0.005 A 
ATOM     24  C   UNL     1      -1.230  -0.896   0.377  0.00  0.00    -0.029 A 
ATOM     25  C   UNL     1      -0.134  -0.787   1.222  0.00  0.00    +0.038 A 
ATOM     26  C   UNL     1      -2.545  -0.268   0.763  0.00  0.00    +0.045 C 
ENDBRANCH  17  25
ENDBRANCH  15  17
ENDBRANCH   1  15
TORSDOF 4
