REMARK  Name = ZINC25536107
REMARK  12 active torsions:
REMARK  status: ('A' for Active; 'I' for Inactive)
REMARK    1  A    between atoms: C_1  and  C_2
REMARK    2  A    between atoms: C_2  and  C_3
REMARK    3  A    between atoms: C_2  and  C_4
REMARK    4  A    between atoms: C_4  and  C_6
REMARK    5  A    between atoms: C_4  and  N_23
REMARK    6  A    between atoms: C_6  and  N_7
REMARK    7  A    between atoms: C_8  and  C_10
REMARK    8  A    between atoms: C_10  and  C_12
REMARK    9  A    between atoms: C_10  and  N_15
REMARK   10  A    between atoms: C_12  and  C_13
REMARK   11  A    between atoms: C_12  and  C_14
REMARK   12  A    between atoms: C_16  and  C_18
REMARK                            x       y       z     vdW  Elec       q    Type
REMARK                         _______ _______ _______ _____ _____    ______ ____
ROOT
ATOM      1  N   UNL     1       5.386   6.354  -0.122  0.00  0.00    -0.315 N 
ATOM      2  C   UNL     1       4.789   5.149  -0.022  0.00  0.00    +0.234 C 
ATOM      3  O   UNL     1       5.314   4.170  -0.509  0.00  0.00    -0.274 OA
ATOM      4  H   UNL     1       4.953   7.226   0.390  0.00  0.00    +0.149 HD
ENDROOT
BRANCH   1   5
ATOM      5  C   UNL     1       6.610   6.501  -0.913  0.00  0.00    +0.089 C 
BRANCH   5   6
ATOM      6  C   UNL     1       6.983   7.982  -1.004  0.00  0.00    -0.048 C 
BRANCH   6   7
ATOM      7  N   UNL     1       5.934   8.708  -1.733  0.00  0.00    +0.386 N 
ATOM      8  C   UNL     1       4.726   8.859  -0.907  0.00  0.00    -0.073 C 
ATOM      9  C   UNL     1       3.826   9.913  -1.553  0.00  0.00    +0.017 C 
ATOM     10  C   UNL     1       3.631   9.599  -3.014  0.00  0.00    -0.048 A 
ATOM     11  C   UNL     1       2.587  10.213  -3.689  0.00  0.00    +0.004 A 
ATOM     12  C   UNL     1       2.379   9.959  -5.030  0.00  0.00    +0.000 A 
ATOM     13  C   UNL     1       3.216   9.089  -5.703  0.00  0.00    +0.000 A 
ATOM     14  C   UNL     1       4.254   8.476  -5.032  0.00  0.00    +0.002 A 
ATOM     15  C   UNL     1       4.464   8.729  -3.684  0.00  0.00    -0.061 A 
ATOM     16  C   UNL     1       5.608   8.033  -2.993  0.00  0.00    -0.042 C 
ATOM     17  H   UNL     1       6.324   9.709  -1.970  0.00  0.00    -0.081 HD
ENDBRANCH   6   7
BRANCH   6  19
ATOM     18  C   UNL     1       8.687   9.610  -1.835  0.00  0.00    +0.005 C 
ATOM     19  C   UNL     1       8.314   8.129  -1.744  0.00  0.00    -0.029 C 
ATOM     20  C   UNL     1       9.406   7.373  -0.984  0.00  0.00    +0.005 C 
ENDBRANCH   6  19
ENDBRANCH   5   6
ENDBRANCH   1   5
BRANCH   2  21
ATOM     21  C   UNL     1       3.469   5.019   0.693  0.00  0.00    +0.162 C 
BRANCH  21  22
ATOM     22  N   UNL     1       2.724   3.885   0.141  0.00  0.00    -0.297 N 
ATOM     23  C   UNL     1       1.380   3.855   0.230  0.00  0.00    +0.280 C 
ATOM     24  O   UNL     1       0.785   4.770   0.768  0.00  0.00    -0.267 OA
ATOM     25  H   UNL     1       3.262   3.058  -0.345  0.00  0.00    +0.150 HD
BRANCH  23  26
ATOM     26  C   UNL     1       0.634   2.719  -0.323  0.00  0.00    +0.189 A 
ATOM     27  C   UNL     1      -0.723   2.564  -0.302  0.00  0.00    +0.054 A 
ATOM     28  C   UNL     1      -0.999   1.343  -0.937  0.00  0.00    +0.042 A 
ATOM     29  C   UNL     1       0.186   0.814  -1.313  0.00  0.00    +0.196 A 
ATOM     30  O   UNL     1       1.167   1.646  -0.942  0.00  0.00    -0.458 OA
ENDBRANCH  23  26
ENDBRANCH  21  22
BRANCH  21  31
ATOM     31  C   UNL     1       3.719   4.787   2.185  0.00  0.00    +0.012 C 
ATOM     32  C   UNL     1       4.417   6.011   2.781  0.00  0.00    +0.009 C 
ATOM     33  C   UNL     1       2.383   4.566   2.897  0.00  0.00    +0.009 C 
ENDBRANCH  21  31
ENDBRANCH   2  21
TORSDOF 8
