REMARK  Name = ZINC37053107
REMARK  5 active torsions:
REMARK  status: ('A' for Active; 'I' for Inactive)
REMARK    1  A    between atoms: C_3  and  S_9
REMARK    2  A    between atoms: C_6  and  N_7
REMARK    3  A    between atoms: S_9  and  N_12
REMARK    4  A    between atoms: N_12  and  C_13
REMARK    5  A    between atoms: C_16  and  O_19
REMARK                            x       y       z     vdW  Elec       q    Type
REMARK                         _______ _______ _______ _____ _____    ______ ____
ROOT
ATOM      1  S   UNL     1       4.029   2.365  -0.075  0.00  0.00    +0.060 S 
ATOM      2  O   UNL     1       5.025   1.890  -0.970  0.00  0.00    -0.153 OA
ATOM      3  O   UNL     1       3.554   3.704  -0.104  0.00  0.00    -0.153 OA
ENDROOT
BRANCH   1   6
ATOM      4  C   UNL     1       1.545  -0.497  -1.407  0.00  0.00    +0.025 A 
ATOM      5  C   UNL     1       2.647   0.318  -1.235  0.00  0.00    +0.031 A 
ATOM      6  C   UNL     1       2.621   1.328  -0.291  0.00  0.00    +0.119 A 
ATOM      7  C   UNL     1       1.492   1.525   0.484  0.00  0.00    +0.046 A 
ATOM      8  C   UNL     1       0.387   0.713   0.317  0.00  0.00    +0.040 A 
ATOM      9  C   UNL     1       0.410  -0.302  -0.631  0.00  0.00    +0.026 A 
ATOM     10 BR   UNL     1       1.462   2.908   1.774  0.00  0.00    -0.048 Br
BRANCH   9  11
ATOM     11  N   UNL     1      -0.706  -1.125  -0.803  0.00  0.00    -0.358 N 
ATOM     12  H   UNL     1      -0.688  -1.834  -1.465  0.00  0.00    +0.142 HD
ATOM     13  H   UNL     1      -1.498  -0.988  -0.261  0.00  0.00    +0.142 HD
ENDBRANCH   9  11
ENDBRANCH   1   6
BRANCH   1  14
ATOM     14  N   UNL     1       4.602   2.099   1.456  0.00  0.00    -0.187 NA
ATOM     15  H   UNL     1       4.571   2.810   2.116  0.00  0.00    +0.148 HD
BRANCH  14  16
ATOM     16  C   UNL     1       5.156   0.791   1.814  0.00  0.00    +0.077 C 
ATOM     17  C   UNL     1       4.075  -0.051   2.494  0.00  0.00    +0.023 C 
ATOM     18  C   UNL     1       4.653  -1.417   2.868  0.00  0.00    +0.033 C 
ATOM     19  C   UNL     1       5.830  -1.228   3.827  0.00  0.00    +0.115 C 
ATOM     20  C   UNL     1       6.911  -0.385   3.147  0.00  0.00    +0.033 C 
ATOM     21  C   UNL     1       6.333   0.981   2.773  0.00  0.00    +0.023 C 
BRANCH  19  22
ATOM     22  O   UNL     1       6.371  -2.504   4.176  0.00  0.00    -0.392 OA
ATOM     23  H   UNL     1       7.122  -2.460   4.783  0.00  0.00    +0.210 HD
ENDBRANCH  19  22
ENDBRANCH  14  16
ENDBRANCH   1  14
TORSDOF 5
