REMARK  Name = ZINC14881003
REMARK  8 active torsions:
REMARK  status: ('A' for Active; 'I' for Inactive)
REMARK    1  A    between atoms: C_1  and  O_2
REMARK    2  A    between atoms: O_2  and  C_3
REMARK    3  A    between atoms: C_8  and  C_18
REMARK    4  A    between atoms: C_18  and  N_19
REMARK    5  A    between atoms: N_19  and  C_20
REMARK    6  A    between atoms: C_20  and  C_21
REMARK    7  A    between atoms: C_21  and  C_22
REMARK    8  A    between atoms: C_29  and  C_31
REMARK                            x       y       z     vdW  Elec       q    Type
REMARK                         _______ _______ _______ _____ _____    ______ ____
ROOT
ATOM      1  C   UNL     1      -2.130   3.334  -5.841  0.00  0.00    +0.122 A 
ATOM      2  C   UNL     1      -0.888   3.429  -5.205  0.00  0.00    +0.046 A 
ATOM      3  C   UNL     1      -0.724   2.987  -3.929  0.00  0.00    +0.013 A 
ATOM      4  C   UNL     1      -1.811   2.428  -3.237  0.00  0.00    -0.001 A 
ATOM      5  C   UNL     1      -1.671   1.962  -1.915  0.00  0.00    +0.018 A 
ATOM      6  C   UNL     1      -2.763   1.430  -1.298  0.00  0.00    +0.008 A 
ATOM      7  C   UNL     1      -3.984   1.354  -1.982  0.00  0.00    +0.104 A 
ATOM      8  C   UNL     1      -3.073   2.328  -3.873  0.00  0.00    +0.051 A 
ATOM      9  C   UNL     1      -3.215   2.792  -5.191  0.00  0.00    +0.071 A 
ATOM     10  N   UNL     1      -5.086   0.805  -1.343  0.00  0.00    -0.312 N 
ATOM     11  C   UNL     1      -5.460  -0.482  -1.948  0.00  0.00    +0.134 C 
ATOM     12  C   UNL     1      -6.639  -1.079  -1.176  0.00  0.00    +0.178 C 
ATOM     13  O   UNL     1      -7.723  -0.147  -1.175  0.00  0.00    -0.377 OA
ATOM     14  C   UNL     1      -7.394   1.117  -0.592  0.00  0.00    +0.178 C 
ATOM     15  C   UNL     1      -6.223   1.737  -1.358  0.00  0.00    +0.134 C 
ATOM     16  N   UNL     1      -4.179   1.790  -3.251  0.00  0.00    -0.343 N 
ATOM     17  H   UNL     1      -5.091   1.725  -3.718  0.00  0.00    +0.167 HD
ENDROOT
BRANCH   1  19
ATOM     18  C   UNL     1      -1.105   4.336  -7.738  0.00  0.00    +0.277 C 
ATOM     19  O   UNL     1      -2.267   3.784  -7.116  0.00  0.00    -0.495 OA
ENDBRANCH   1  19
BRANCH   6  20
ATOM     20  C   UNL     1      -2.657   0.919   0.116  0.00  0.00    +0.146 C 
BRANCH  20  21
ATOM     21  N   UNL     1      -1.320   1.207   0.640  0.00  0.00    -0.292 N 
ATOM     22  C   UNL     1      -1.044   2.422   1.156  0.00  0.00    +0.254 C 
ATOM     23  O   UNL     1       0.083   2.681   1.535  0.00  0.00    -0.269 OA
BRANCH  22  24
ATOM     24  C   UNL     1      -2.103   3.430   1.259  0.00  0.00    +0.074 A 
ATOM     25  C   UNL     1      -2.066   4.676   1.867  0.00  0.00    +0.021 A 
ATOM     26  C   UNL     1      -3.213   5.429   1.818  0.00  0.00    +0.008 A 
ATOM     27  C   UNL     1      -4.308   4.930   1.188  0.00  0.00    +0.046 A 
ATOM     28  S   UNL     1      -3.774   3.375   0.637  0.00  0.00    -0.092 S 
ENDBRANCH  22  24
BRANCH  21  29
ATOM     29  C   UNL     1      -0.281   0.174   0.604  0.00  0.00    +0.113 C 
BRANCH  29  30
ATOM     30  C   UNL     1      -0.410  -0.722   1.837  0.00  0.00    +0.054 C 
BRANCH  30  31
ATOM     31  C   UNL     1       0.731  -1.706   1.864  0.00  0.00    -0.046 A 
ATOM     32  C   UNL     1       0.635  -2.894   1.162  0.00  0.00    +0.006 A 
ATOM     33  C   UNL     1       1.682  -3.795   1.182  0.00  0.00    +0.038 A 
ATOM     34  C   UNL     1       2.823  -3.514   1.914  0.00  0.00    +0.123 A 
ATOM     35  C   UNL     1       2.916  -2.327   2.621  0.00  0.00    +0.038 A 
ATOM     36  C   UNL     1       1.870  -1.425   2.595  0.00  0.00    +0.006 A 
ATOM     37  F   UNL     1       3.846  -4.397   1.938  0.00  0.00    -0.205 F 
ENDBRANCH  30  31
ENDBRANCH  29  30
ENDBRANCH  21  29
ENDBRANCH  20  21
ENDBRANCH   6  20
TORSDOF 7
