REMARK  Name = ZINC14664461
REMARK  13 active torsions:
REMARK  status: ('A' for Active; 'I' for Inactive)
REMARK    1  A    between atoms: C_1  and  C_2
REMARK    2  A    between atoms: C_4  and  C_34
REMARK    3  A    between atoms: C_6  and  N_8
REMARK    4  A    between atoms: N_8  and  S_9
REMARK    5  A    between atoms: S_9  and  C_12
REMARK    6  A    between atoms: C_15  and  N_18
REMARK    7  A    between atoms: N_18  and  C_19
REMARK    8  A    between atoms: C_19  and  N_21
REMARK    9  A    between atoms: C_22  and  C_24
REMARK   10  A    between atoms: C_29  and  O_30
REMARK   11  A    between atoms: O_30  and  C_31
REMARK   12  A    between atoms: C_31  and  C_32
REMARK   13  A    between atoms: C_31  and  C_33
REMARK                            x       y       z     vdW  Elec       q    Type
REMARK                         _______ _______ _______ _____ _____    ______ ____
ROOT
ATOM      1  C   UNL     1      -4.657  -0.869  -0.298  0.00  0.00    +0.109 A 
ATOM      2  C   UNL     1      -4.543   0.495  -0.100  0.00  0.00    +0.030 A 
ATOM      3  C   UNL     1      -3.295   1.076   0.008  0.00  0.00    +0.025 A 
ATOM      4  C   UNL     1      -2.154   0.289  -0.083  0.00  0.00    +0.033 A 
ATOM      5  C   UNL     1      -2.272  -1.079  -0.288  0.00  0.00    +0.025 A 
ATOM      6  C   UNL     1      -3.523  -1.655  -0.390  0.00  0.00    +0.030 A 
ENDROOT
BRANCH   1   7
ATOM      7  S   UNL     1      -6.252  -1.607  -0.435  0.00  0.00    +0.072 S 
ATOM      8  O   UNL     1      -6.123  -2.942   0.033  0.00  0.00    -0.150 OA
ATOM      9  O   UNL     1      -7.175  -0.687   0.131  0.00  0.00    -0.150 OA
BRANCH   7  10
ATOM     10  N   UNL     1      -6.609  -1.704  -2.049  0.00  0.00    -0.216 N 
ATOM     11  H   UNL     1      -7.378  -1.231  -2.405  0.00  0.00    +0.174 HD
BRANCH  10  17
ATOM     12  C   UNL     1      -3.195  -1.916  -5.578  0.00  0.00    +0.044 C 
ATOM     13  C   UNL     1      -4.139  -2.596  -4.620  0.00  0.00    -0.048 A 
ATOM     14  C   UNL     1      -4.209  -3.976  -4.582  0.00  0.00    +0.006 A 
ATOM     15  C   UNL     1      -5.074  -4.604  -3.704  0.00  0.00    -0.048 A 
ATOM     16  C   UNL     1      -5.871  -3.853  -2.862  0.00  0.00    +0.028 A 
ATOM     17  C   UNL     1      -5.804  -2.466  -2.899  0.00  0.00    +0.049 A 
ATOM     18  C   UNL     1      -4.938  -1.839  -3.785  0.00  0.00    +0.028 A 
ATOM     19  C   UNL     1      -5.146  -6.109  -3.665  0.00  0.00    +0.044 C 
ENDBRANCH  10  17
ENDBRANCH   7  10
ENDBRANCH   1   7
BRANCH   4  20
ATOM     20  N   UNL     1      -0.888   0.875   0.026  0.00  0.00    -0.297 N 
ATOM     21  H   UNL     1      -0.191   0.644  -0.608  0.00  0.00    +0.154 HD
BRANCH  20  22
ATOM     22  C   UNL     1      -0.637   1.760   1.011  0.00  0.00    +0.141 C 
ATOM     23  S   UNL     1      -1.899   2.258   2.056  0.00  0.00    -0.018 S 
BRANCH  22  24
ATOM     24  N   UNL     1       0.607   2.249   1.177  0.00  0.00    -0.263 N 
ATOM     25  C   UNL     1       0.859   3.130   2.165  0.00  0.00    +0.253 C 
ATOM     26  O   UNL     1      -0.036   3.484   2.907  0.00  0.00    -0.270 OA
ATOM     27  H   UNL     1       1.322   1.968   0.584  0.00  0.00    +0.157 HD
BRANCH  25  28
ATOM     28  C   UNL     1       2.221   3.666   2.346  0.00  0.00    +0.079 A 
ATOM     29  C   UNL     1       3.255   3.258   1.499  0.00  0.00    +0.017 A 
ATOM     30  C   UNL     1       4.524   3.765   1.671  0.00  0.00    +0.001 A 
ATOM     31  C   UNL     1       4.784   4.671   2.687  0.00  0.00    +0.004 A 
ATOM     32  C   UNL     1       3.773   5.079   3.534  0.00  0.00    +0.046 A 
ATOM     33  C   UNL     1       2.488   4.582   3.373  0.00  0.00    +0.133 A 
BRANCH  33  34
ATOM     34  O   UNL     1       1.493   4.981   4.205  0.00  0.00    -0.489 OA
BRANCH  34  35
ATOM     35  C   UNL     1       1.814   5.995   5.160  0.00  0.00    +0.167 C 
ATOM     36  C   UNL     1       0.541   6.745   5.555  0.00  0.00    +0.051 C 
ATOM     37  C   UNL     1       2.432   5.348   6.402  0.00  0.00    +0.051 C 
ENDBRANCH  34  35
ENDBRANCH  33  34
ENDBRANCH  25  28
ENDBRANCH  22  24
ENDBRANCH  20  22
ENDBRANCH   4  20
TORSDOF 9
