REMARK  Name = ZINC30769448
REMARK  5 active torsions:
REMARK  status: ('A' for Active; 'I' for Inactive)
REMARK    1  A    between atoms: C_1  and  C_2
REMARK    2  A    between atoms: N_5  and  C_8
REMARK    3  A    between atoms: C_8  and  C_10
REMARK    4  A    between atoms: C_8  and  C_11
REMARK    5  A    between atoms: N_13  and  N_14
REMARK                            x       y       z     vdW  Elec       q    Type
REMARK                         _______ _______ _______ _____ _____    ______ ____
ROOT
ATOM      1  C   UNL     1       0.002  -0.004   0.002  0.00  0.00    +0.017 C 
ATOM      2  C   UNL     1      -0.019   1.526   0.010  0.00  0.00    -0.004 C 
ENDROOT
BRANCH   1   7
ATOM      3  C   UNL     1       3.335  -2.347   4.011  0.00  0.00    +0.007 C 
ATOM      4  C   UNL     1       2.726  -1.943   2.667  0.00  0.00    -0.018 C 
ATOM      5  C   UNL     1       1.272  -2.415   2.601  0.00  0.00    -0.015 C 
ATOM      6  C   UNL     1       0.650  -1.955   1.280  0.00  0.00    -0.078 C 
ATOM      7  N   UNL     1       0.713  -0.491   1.192  0.00  0.00    +0.387 N 
ATOM      8  C   UNL     1       2.102  -0.017   1.206  0.00  0.00    -0.078 C 
ATOM      9  C   UNL     1       2.767  -0.419   2.525  0.00  0.00    -0.015 C 
ATOM     10  H   UNL     1       0.209  -0.080   2.080  0.00  0.00    -0.081 HD
ENDBRANCH   1   7
BRANCH   1  11
ATOM     11  C   UNL     1       0.707  -0.490  -1.238  0.00  0.00    +0.213 C 
ATOM     12  O   UNL     1       1.704  -1.174  -1.140  0.00  0.00    -0.276 OA
ATOM     13  N   UNL     1       0.231  -0.164  -2.456  0.00  0.00    -0.255 N 
ATOM     14  H   UNL     1      -0.673   0.457  -2.545  0.00  0.00    +0.169 HD
BRANCH  13  15
ATOM     15  N   UNL     1       0.870  -0.605  -3.580  0.00  0.00    -0.254 NA
ATOM     16  H   UNL     1       0.338  -0.240  -4.471  0.00  0.00    +0.140 HD
ATOM     17  H   UNL     1       1.902  -0.224  -3.587  0.00  0.00    +0.140 HD
ENDBRANCH  13  15
ENDBRANCH   1  11
TORSDOF 3
