REMARK  Name = ZINC40717752
REMARK  7 active torsions:
REMARK  status: ('A' for Active; 'I' for Inactive)
REMARK    1  A    between atoms: C_1  and  C_2
REMARK    2  A    between atoms: C_2  and  N_3
REMARK    3  A    between atoms: N_6  and  C_9
REMARK    4  A    between atoms: C_10  and  N_16
REMARK    5  A    between atoms: C_17  and  C_19
REMARK    6  A    between atoms: C_20  and  C_21
REMARK    7  A    between atoms: C_24  and  C_26
REMARK                            x       y       z     vdW  Elec       q    Type
REMARK                         _______ _______ _______ _____ _____    ______ ____
ROOT
ATOM      1  N   UNL     1       3.002  -2.390   5.527  0.00  0.00    -0.280 N 
ATOM      2  C   UNL     1       3.624  -1.996   6.656  0.00  0.00    +0.241 C 
ATOM      3  O   UNL     1       3.153  -2.280   7.743  0.00  0.00    -0.270 OA
ATOM      4  H   UNL     1       3.410  -2.220   4.664  0.00  0.00    +0.155 HD
ENDROOT
BRANCH   1   6
ATOM      5  C   UNL     1       0.802  -2.834   4.615  0.00  0.00    +0.070 A 
ATOM      6  C   UNL     1       1.766  -3.045   5.602  0.00  0.00    +0.056 A 
ATOM      7  C   UNL     1       1.496  -3.904   6.656  0.00  0.00    +0.025 A 
ATOM      8  C   UNL     1       0.276  -4.550   6.727  0.00  0.00    +0.003 A 
ATOM      9  C   UNL     1      -0.680  -4.341   5.750  0.00  0.00    +0.022 A 
ATOM     10  C   UNL     1      -0.422  -3.482   4.697  0.00  0.00    +0.064 A 
ATOM     11 CL   UNL     1      -1.627  -3.218   3.476  0.00  0.00    -0.082 Cl
BRANCH   5  15
ATOM     12  N   UNL     1       0.697  -0.512   1.191  0.00  0.00    +0.382 N 
ATOM     13  C   UNL     1      -0.054  -0.136   2.395  0.00  0.00    -0.060 C 
ATOM     14  C   UNL     1       0.746  -0.534   3.640  0.00  0.00    +0.086 C 
ATOM     15  N   UNL     1       1.068  -1.967   3.548  0.00  0.00    -0.331 N 
ATOM     16  C   UNL     1       1.676  -2.462   2.304  0.00  0.00    +0.086 C 
ATOM     17  C   UNL     1       0.833  -1.973   1.122  0.00  0.00    -0.060 C 
ATOM     18  H   UNL     1       1.614  -0.092   1.224  0.00  0.00    -0.082 HD
BRANCH  12  20
ATOM     19  C   UNL     1      -0.050   1.497   0.008  0.00  0.00    -0.017 C 
ATOM     20  C   UNL     1      -0.017  -0.032   0.000  0.00  0.00    -0.082 C 
ENDBRANCH  12  20
ENDBRANCH   5  15
ENDBRANCH   1   6
BRANCH   2  21
ATOM     21  C   UNL     1       4.825  -1.253   6.578  0.00  0.00    +0.071 C 
ATOM     22  C   UNL     1       5.452  -0.856   7.716  0.00  0.00    +0.051 C 
BRANCH  22  23
ATOM     23  C   UNL     1       6.652  -0.112   7.638  0.00  0.00    +0.129 A 
ATOM     24  C   UNL     1       7.391   0.347   8.712  0.00  0.00    +0.050 A 
ATOM     25  C   UNL     1       8.492   1.027   8.184  0.00  0.00    +0.050 A 
ATOM     26  C   UNL     1       8.386   0.959   6.813  0.00  0.00    +0.137 A 
ATOM     27  O   UNL     1       7.276   0.266   6.503  0.00  0.00    -0.455 OA
BRANCH  26  28
ATOM     28  C   UNL     1       9.335   1.544   5.846  0.00  0.00    +0.037 A 
ATOM     29  C   UNL     1       9.736   2.877   5.974  0.00  0.00    +0.013 A 
ATOM     30  C   UNL     1      10.622   3.418   5.067  0.00  0.00    +0.002 A 
ATOM     31  C   UNL     1      11.116   2.645   4.030  0.00  0.00    +0.021 A 
ATOM     32  C   UNL     1      10.724   1.324   3.895  0.00  0.00    +0.060 A 
ATOM     33  C   UNL     1       9.841   0.767   4.800  0.00  0.00    +0.070 A 
ATOM     34 CL   UNL     1       9.355  -0.891   4.635  0.00  0.00    -0.081 Cl
ATOM     35 CL   UNL     1      11.349   0.364   2.591  0.00  0.00    -0.082 Cl
ENDBRANCH  26  28
ENDBRANCH  22  23
ENDBRANCH   2  21
TORSDOF 6
