REMARK  Name = ZINC40750754
REMARK  8 active torsions:
REMARK  status: ('A' for Active; 'I' for Inactive)
REMARK    1  A    between atoms: C_7  and  N_14
REMARK    2  A    between atoms: C_8  and  C_11
REMARK    3  A    between atoms: N_14  and  C_15
REMARK    4  A    between atoms: N_14  and  C_18
REMARK    5  A    between atoms: C_15  and  C_16
REMARK    6  A    between atoms: C_16  and  O_17
REMARK    7  A    between atoms: C_18  and  C_19
REMARK    8  A    between atoms: C_19  and  O_20
REMARK                            x       y       z     vdW  Elec       q    Type
REMARK                         _______ _______ _______ _____ _____    ______ ____
ROOT
ATOM      1  C   UNL     1      -0.521   1.135  -0.246  0.00  0.00    +0.001 A 
ATOM      2  C   UNL     1       0.607   1.905   0.024  0.00  0.00    +0.002 A 
ATOM      3  C   UNL     1       1.823   1.323   0.223  0.00  0.00    +0.026 A 
ATOM      4  C   UNL     1       1.948  -0.074   0.156  0.00  0.00    +0.048 A 
ATOM      5  C   UNL     1       0.799  -0.853  -0.118  0.00  0.00    +0.020 A 
ATOM      6  C   UNL     1      -0.437  -0.224  -0.318  0.00  0.00    +0.012 A 
ATOM      7  C   UNL     1       0.924  -2.262  -0.186  0.00  0.00    +0.051 A 
ATOM      8  C   UNL     1       2.195  -2.815   0.025  0.00  0.00    +0.050 A 
ATOM      9  C   UNL     1       3.279  -1.965   0.292  0.00  0.00    +0.096 A 
ATOM     10  N   UNL     1       3.135  -0.666   0.349  0.00  0.00    -0.360 N 
ATOM     11  H   UNL     1       3.911  -0.114   0.535  0.00  0.00    +0.165 HD
ENDROOT
BRANCH   8  12
ATOM     12  C   UNL     1       2.390  -4.275  -0.031  0.00  0.00    +0.097 C 
ATOM     13  N   UNL     1       3.252  -4.800  -0.904  0.00  0.00    -0.387 N 
ATOM     14  N   UNL     1       1.705  -5.072   0.790  0.00  0.00    -0.344 N 
ATOM     15  H   UNL     1       3.803  -4.218  -1.451  0.00  0.00    +0.157 HD
ATOM     16  H   UNL     1       1.078  -4.691   1.425  0.00  0.00    +0.144 HD
ATOM     17  H   UNL     1       1.833  -6.033   0.753  0.00  0.00    +0.144 HD
ATOM     18  H   UNL     1       3.327  -5.763  -0.992  0.00  0.00    +0.157 HD
ENDBRANCH   8  12
BRANCH   7  19
ATOM     19  N   UNL     1      -0.166  -3.062  -0.450  0.00  0.00    -0.324 N 
BRANCH  19  20
ATOM     20  C   UNL     1      -0.540  -3.357  -1.835  0.00  0.00    +0.133 C 
BRANCH  20  21
ATOM     21  C   UNL     1       0.243  -4.577  -2.325  0.00  0.00    +0.174 C 
BRANCH  21  22
ATOM     22  O   UNL     1      -0.137  -5.725  -1.564  0.00  0.00    -0.393 OA
ATOM     23  H   UNL     1       0.321  -6.537  -1.821  0.00  0.00    +0.209 HD
ENDBRANCH  21  22
ENDBRANCH  20  21
ENDBRANCH  19  20
BRANCH  19  24
ATOM     24  C   UNL     1      -0.952  -3.617   0.655  0.00  0.00    +0.133 C 
BRANCH  24  25
ATOM     25  C   UNL     1      -2.076  -2.644   1.020  0.00  0.00    +0.174 C 
BRANCH  25  26
ATOM     26  O   UNL     1      -2.987  -2.537  -0.075  0.00  0.00    -0.393 OA
ATOM     27  H   UNL     1      -3.727  -1.935   0.086  0.00  0.00    +0.209 HD
ENDBRANCH  25  26
ENDBRANCH  24  25
ENDBRANCH  19  24
ENDBRANCH   7  19
TORSDOF 8
