REMARK  Name = ZINC16292182
REMARK  16 active torsions:
REMARK  status: ('A' for Active; 'I' for Inactive)
REMARK    1  A    between atoms: C_1  and  C_2
REMARK    2  A    between atoms: C_5  and  C_8
REMARK    3  A    between atoms: C_11  and  C_14
REMARK    4  A    between atoms: C_14  and  C_15
REMARK    5  A    between atoms: C_14  and  C_16
REMARK    6  A    between atoms: C_14  and  O_27
REMARK    7  A    between atoms: C_16  and  C_17
REMARK    8  A    between atoms: C_16  and  C_18
REMARK    9  A    between atoms: C_16  and  O_26
REMARK   10  A    between atoms: C_18  and  C_19
REMARK   11  A    between atoms: C_18  and  C_20
REMARK   12  A    between atoms: C_18  and  O_25
REMARK   13  A    between atoms: C_20  and  C_21
REMARK   14  A    between atoms: C_20  and  C_22
REMARK   15  A    between atoms: C_20  and  O_24
REMARK   16  A    between atoms: C_22  and  O_23
REMARK                            x       y       z     vdW  Elec       q    Type
REMARK                         _______ _______ _______ _____ _____    ______ ____
ROOT
ATOM      1  C   UNL     1      -0.585   2.593   0.878  0.00  0.00    +0.123 C 
ATOM      2  C   UNL     1      -0.274   1.711  -0.333  0.00  0.00    +0.047 C 
ENDROOT
BRANCH   1   6
ATOM      3  C   UNL     1      -3.784   0.705   0.063  0.00  0.00    +0.124 C 
ATOM      4  N   UNL     1      -3.721   1.893  -0.462  0.00  0.00    -0.179 NA
ATOM      5  N   UNL     1      -2.900   2.887   0.021  0.00  0.00    -0.252 N 
ATOM      6  C   UNL     1      -2.080   2.515   1.196  0.00  0.00    +0.186 C 
ATOM      7  S   UNL     1      -2.626   0.772   1.422  0.00  0.00    -0.077 S 
ATOM      8  H   UNL     1      -2.862   3.770  -0.380  0.00  0.00    +0.169 HD
BRANCH   3  13
ATOM      9  C   UNL     1      -7.039  -3.738  -1.606  0.00  0.00    +0.044 C 
ATOM     10  C   UNL     1      -6.186  -2.575  -1.169  0.00  0.00    -0.050 A 
ATOM     11  C   UNL     1      -6.254  -1.375  -1.856  0.00  0.00    +0.004 A 
ATOM     12  C   UNL     1      -5.476  -0.306  -1.461  0.00  0.00    +0.011 A 
ATOM     13  C   UNL     1      -4.621  -0.436  -0.366  0.00  0.00    +0.008 A 
ATOM     14  C   UNL     1      -4.554  -1.651   0.319  0.00  0.00    +0.011 A 
ATOM     15  C   UNL     1      -5.340  -2.710  -0.083  0.00  0.00    +0.004 A 
ENDBRANCH   3  13
ENDBRANCH   1   6
BRANCH   1  16
ATOM     16  C   UNL     1       0.219   2.104   2.085  0.00  0.00    +0.125 C 
ATOM     17  C   UNL     1      -0.483   2.535   3.374  0.00  0.00    +0.047 C 
BRANCH  16  18
ATOM     18  C   UNL     1       1.623   2.710   2.042  0.00  0.00    +0.125 C 
ATOM     19  C   UNL     1       2.234   2.483   0.658  0.00  0.00    +0.047 C 
BRANCH  18  20
ATOM     20  C   UNL     1       2.500   2.041   3.102  0.00  0.00    +0.117 C 
ATOM     21  C   UNL     1       1.932   2.336   4.492  0.00  0.00    +0.047 C 
BRANCH  20  22
ATOM     22  O   UNL     1       2.518   0.629   2.884  0.00  0.00    -0.384 OA
ATOM     23  H   UNL     1       2.867   0.369   2.021  0.00  0.00    +0.210 HD
ENDBRANCH  20  22
BRANCH  20  24
ATOM     24  C   UNL     1       3.925   2.591   3.006  0.00  0.00    +0.193 C 
BRANCH  24  25
ATOM     25  O   UNL     1       4.744   1.966   3.997  0.00  0.00    -0.392 OA
ATOM     26  H   UNL     1       5.662   2.267   3.994  0.00  0.00    +0.210 HD
ENDBRANCH  24  25
ENDBRANCH  20  24
ENDBRANCH  18  20
BRANCH  18  27
ATOM     27  O   UNL     1       1.545   4.113   2.303  0.00  0.00    -0.383 OA
ATOM     28  H   UNL     1       1.166   4.331   3.166  0.00  0.00    +0.210 HD
ENDBRANCH  18  27
ENDBRANCH  16  18
BRANCH  16  29
ATOM     29  O   UNL     1       0.314   0.679   2.048  0.00  0.00    -0.383 OA
ATOM     30  H   UNL     1       0.749   0.334   1.257  0.00  0.00    +0.210 HD
ENDBRANCH  16  29
ENDBRANCH   1  16
BRANCH   1  31
ATOM     31  O   UNL     1      -0.230   3.946   0.586  0.00  0.00    -0.383 OA
ATOM     32  H   UNL     1      -0.400   4.562   1.311  0.00  0.00    +0.210 HD
ENDBRANCH   1  31
TORSDOF 11
