REMARK  Name = ZINC35559336
REMARK  11 active torsions:
REMARK  status: ('A' for Active; 'I' for Inactive)
REMARK    1  A    between atoms: C_1  and  C_2
REMARK    2  A    between atoms: C_5  and  S_8
REMARK    3  A    between atoms: S_8  and  N_11
REMARK    4  A    between atoms: C_20  and  C_22
REMARK    5  A    between atoms: C_22  and  C_23
REMARK    6  A    between atoms: N_25  and  C_26
REMARK    7  A    between atoms: C_26  and  C_27
REMARK    8  A    between atoms: C_27  and  C_28
REMARK    9  A    between atoms: C_28  and  N_29
REMARK   10  A    between atoms: N_29  and  C_30
REMARK   11  A    between atoms: N_29  and  C_31
REMARK                            x       y       z     vdW  Elec       q    Type
REMARK                         _______ _______ _______ _____ _____    ______ ____
ROOT
ATOM      1  N   UNL     1       1.529  -4.473  -0.126  0.00  0.00    -0.168 NA
ATOM      2  C   UNL     1       2.119  -4.410  -1.474  0.00  0.00    +0.115 C 
ATOM      3  C   UNL     1       3.443  -3.655  -1.373  0.00  0.00    +0.052 C 
ATOM      4  C   UNL     1       4.270  -4.175  -0.227  0.00  0.00    -0.041 A 
ATOM      5  C   UNL     1       5.636  -3.916  -0.248  0.00  0.00    +0.004 A 
ATOM      6  C   UNL     1       6.449  -4.356   0.775  0.00  0.00    +0.000 A 
ATOM      7  C   UNL     1       5.904  -5.059   1.833  0.00  0.00    +0.000 A 
ATOM      8  C   UNL     1       4.550  -5.321   1.855  0.00  0.00    +0.005 A 
ATOM      9  C   UNL     1       3.731  -4.884   0.823  0.00  0.00    -0.025 A 
ATOM     10  C   UNL     1       2.267  -5.221   0.897  0.00  0.00    +0.119 C 
ENDROOT
BRANCH   1  11
ATOM     11  S   UNL     1       0.095  -3.722   0.222  0.00  0.00    +0.061 S 
ATOM     12  O   UNL     1      -0.044  -3.747   1.636  0.00  0.00    -0.153 OA
ATOM     13  O   UNL     1      -0.879  -4.283  -0.648  0.00  0.00    -0.153 OA
BRANCH  11  18
ATOM     14  C   UNL     1       0.679   2.073  -1.352  0.00  0.00    +0.044 C 
ATOM     15  C   UNL     1       0.533   0.625  -0.959  0.00  0.00    -0.050 A 
ATOM     16  C   UNL     1       0.110  -0.305  -1.890  0.00  0.00    +0.005 A 
ATOM     17  C   UNL     1      -0.023  -1.632  -1.530  0.00  0.00    +0.029 A 
ATOM     18  C   UNL     1       0.266  -2.030  -0.238  0.00  0.00    +0.106 A 
ATOM     19  C   UNL     1       0.690  -1.100   0.693  0.00  0.00    +0.029 A 
ATOM     20  C   UNL     1       0.828   0.227   0.331  0.00  0.00    +0.005 A 
ENDBRANCH  11  18
ENDBRANCH   1  11
BRANCH  10  21
ATOM     21  C   UNL     1       1.730  -4.854   2.282  0.00  0.00    +0.121 C 
BRANCH  21  22
ATOM     22  C   UNL     1       0.454  -5.611   2.543  0.00  0.00    +0.215 C 
ATOM     23  O   UNL     1       0.075  -6.451   1.755  0.00  0.00    -0.276 OA
ATOM     24  N   UNL     1      -0.266  -5.355   3.653  0.00  0.00    -0.315 N 
ATOM     25  H   UNL     1       0.037  -4.683   4.284  0.00  0.00    +0.149 HD
BRANCH  24  26
ATOM     26  C   UNL     1      -1.507  -6.091   3.907  0.00  0.00    +0.102 C 
BRANCH  26  27
ATOM     27  C   UNL     1      -2.124  -5.612   5.223  0.00  0.00    +0.000 C 
BRANCH  27  28
ATOM     28  C   UNL     1      -3.420  -6.381   5.488  0.00  0.00    -0.077 C 
BRANCH  28  29
ATOM     29  N   UNL     1      -4.012  -5.921   6.752  0.00  0.00    +0.380 N 
ATOM     30  C   UNL     1      -4.415  -4.514   6.620  0.00  0.00    -0.096 C 
ATOM     31  H   UNL     1      -3.334  -6.009   7.493  0.00  0.00    -0.082 HD
BRANCH  29  32
ATOM     32  C   UNL     1      -5.191  -6.740   7.067  0.00  0.00    -0.069 C 
ATOM     33  C   UNL     1      -4.771  -8.205   7.204  0.00  0.00    -0.015 C 
ATOM     34  C   UNL     1      -5.998  -9.058   7.532  0.00  0.00    -0.002 C 
ATOM     35  C   UNL     1      -6.615  -8.579   8.848  0.00  0.00    -0.000 C 
ATOM     36  C   UNL     1      -7.034  -7.114   8.711  0.00  0.00    -0.002 C 
ATOM     37  C   UNL     1      -5.807  -6.261   8.383  0.00  0.00    -0.015 C 
ENDBRANCH  29  32
ENDBRANCH  28  29
ENDBRANCH  27  28
ENDBRANCH  26  27
ENDBRANCH  24  26
ENDBRANCH  21  22
ENDBRANCH  10  21
TORSDOF 9
