REMARK  Name = ZINC24215325
REMARK  10 active torsions:
REMARK  status: ('A' for Active; 'I' for Inactive)
REMARK    1  A    between atoms: C_1  and  C_2
REMARK    2  A    between atoms: C_2  and  O_3
REMARK    3  A    between atoms: O_3  and  C_4
REMARK    4  A    between atoms: C_4  and  C_6
REMARK    5  A    between atoms: C_7  and  C_13
REMARK    6  A    between atoms: C_13  and  N_14
REMARK    7  A    between atoms: C_20  and  C_22
REMARK    8  A    between atoms: C_23  and  C_34
REMARK    9  A    between atoms: N_25  and  C_28
REMARK   10  A    between atoms: C_26  and  C_27
REMARK                            x       y       z     vdW  Elec       q    Type
REMARK                         _______ _______ _______ _____ _____    ______ ____
ROOT
ATOM      1  N   UNL     1      -1.161  -1.131   1.788  0.00  0.00    +0.395 N 
ATOM      2  C   UNL     1      -2.609  -0.871   1.754  0.00  0.00    -0.058 C 
ATOM      3  C   UNL     1      -3.149  -0.912   3.186  0.00  0.00    +0.085 C 
ATOM      4  N   UNL     1      -2.703  -2.132   3.853  0.00  0.00    -0.318 N 
ATOM      5  C   UNL     1      -1.675  -2.866   3.415  0.00  0.00    +0.204 C 
ATOM      6  O   UNL     1      -1.351  -3.849   4.048  0.00  0.00    -0.277 OA
ATOM      7  C   UNL     1      -0.905  -2.526   2.171  0.00  0.00    +0.054 C 
ATOM      8  H   UNL     1      -3.218  -2.483   4.760  0.00  0.00    +0.149 HD
ATOM      9  H   UNL     1      -0.704  -0.474   2.543  0.00  0.00    -0.080 HD
ENDROOT
BRANCH   7  10
ATOM     10  C   UNL     1       0.569  -2.712   2.427  0.00  0.00    -0.009 A 
ATOM     11  C   UNL     1       1.392  -1.849   3.159  0.00  0.00    +0.063 A 
ATOM     12  N   UNL     1       2.603  -2.345   3.166  0.00  0.00    -0.171 NA
ATOM     13  N   UNL     1       2.591  -3.537   2.429  0.00  0.00    -0.237 N 
ATOM     14  C   UNL     1       1.330  -3.740   1.986  0.00  0.00    +0.044 A 
ATOM     15  C   UNL     1       0.857  -4.902   1.152  0.00  0.00    +0.066 C 
ATOM     16  C   UNL     1       0.958  -0.569   3.827  0.00  0.00    +0.068 C 
BRANCH  13  17
ATOM     17  C   UNL     1       3.693  -4.371   2.193  0.00  0.00    +0.066 A 
ATOM     18  C   UNL     1       4.559  -4.691   3.230  0.00  0.00    +0.028 A 
ATOM     19  C   UNL     1       5.640  -5.517   2.996  0.00  0.00    +0.002 A 
ATOM     20  C   UNL     1       5.867  -6.017   1.726  0.00  0.00    +0.000 A 
ATOM     21  C   UNL     1       5.010  -5.697   0.690  0.00  0.00    +0.002 A 
ATOM     22  C   UNL     1       3.924  -4.875   0.920  0.00  0.00    +0.028 A 
ENDBRANCH  13  17
ENDBRANCH   7  10
BRANCH   1  23
ATOM     23  C   UNL     1      -0.540  -0.817   0.494  0.00  0.00    -0.025 C 
BRANCH  23  25
ATOM     24  C   UNL     1      -0.587   1.121  -1.034  0.00  0.00    +0.069 C 
ATOM     25  C   UNL     1      -0.638   0.664   0.235  0.00  0.00    +0.007 C 
ATOM     26  N   UNL     1      -0.783   1.522   1.288  0.00  0.00    -0.274 N 
ATOM     27  C   UNL     1      -0.874   2.851   1.156  0.00  0.00    +0.304 C 
ATOM     28  O   UNL     1      -0.996   3.534   2.154  0.00  0.00    -0.253 OA
ATOM     29  N   UNL     1      -0.838   3.456  -0.048  0.00  0.00    -0.295 N 
ATOM     30  C   UNL     1      -0.689   2.618  -1.249  0.00  0.00    +0.149 C 
ATOM     31  H   UNL     1      -0.833   1.129   2.314  0.00  0.00    +0.156 HD
ATOM     32  H   UNL     1      -0.918   4.549  -0.146  0.00  0.00    +0.151 HD
BRANCH  24  33
ATOM     33  C   UNL     1      -0.442   0.234  -2.126  0.00  0.00    +0.338 C 
ATOM     34  O   UNL     1      -0.251  -0.951  -1.926  0.00  0.00    -0.245 OA
BRANCH  33  35
ATOM     35  O   UNL     1      -0.515   0.701  -3.390  0.00  0.00    -0.462 OA
BRANCH  35  37
ATOM     36  C   UNL     1      -0.473   0.460  -5.794  0.00  0.00    +0.048 C 
ATOM     37  C   UNL     1      -0.360  -0.251  -4.444  0.00  0.00    +0.229 C 
ENDBRANCH  35  37
ENDBRANCH  33  35
ENDBRANCH  24  33
ENDBRANCH  23  25
ENDBRANCH   1  23
TORSDOF 7
