REMARK  Name = ZINC40915075
REMARK  6 active torsions:
REMARK  status: ('A' for Active; 'I' for Inactive)
REMARK    1  A    between atoms: C_1  and  C_2
REMARK    2  A    between atoms: C_6  and  N_8
REMARK    3  A    between atoms: C_14  and  C_18
REMARK    4  A    between atoms: N_20  and  C_21
REMARK    5  A    between atoms: C_21  and  C_22
REMARK    6  A    between atoms: C_21  and  C_23
REMARK                            x       y       z     vdW  Elec       q    Type
REMARK                         _______ _______ _______ _____ _____    ______ ____
ROOT
ATOM      1  N   UNL     1       0.050  -2.637   2.416  0.00  0.00    -0.279 N 
ATOM      2  C   UNL     1      -0.035  -4.014   2.467  0.00  0.00    +0.165 A 
ATOM      3  N   UNL     1      -0.040  -4.878   1.476  0.00  0.00    -0.225 NA
ATOM      4  C   UNL     1      -0.130  -6.209   1.674  0.00  0.00    +0.080 A 
ATOM      5  C   UNL     1      -0.145  -7.236   0.698  0.00  0.00    +0.029 A 
ATOM      6  C   UNL     1      -0.241  -8.540   1.058  0.00  0.00    +0.013 A 
ATOM      7  C   UNL     1      -0.328  -8.924   2.401  0.00  0.00    +0.013 A 
ATOM      8  C   UNL     1      -0.315  -7.938   3.390  0.00  0.00    +0.028 A 
ATOM      9  C   UNL     1      -0.218  -6.623   3.025  0.00  0.00    +0.041 A 
ATOM     10  S   UNL     1      -0.159  -5.077   3.899  0.00  0.00    -0.052 S 
ATOM     11  H   UNL     1       0.118  -2.124   3.236  0.00  0.00    +0.155 HD
ENDROOT
BRANCH   1  17
ATOM     12  C   UNL     1       0.054  -2.966  -2.362  0.00  0.00    +0.065 C 
ATOM     13  C   UNL     1       0.041  -2.115  -1.118  0.00  0.00    +0.040 A 
ATOM     14  C   UNL     1       0.019  -0.739  -1.235  0.00  0.00    +0.023 A 
ATOM     15  C   UNL     1       0.006   0.040  -0.086  0.00  0.00    +0.005 A 
ATOM     16  C   UNL     1       0.016  -0.595   1.143  0.00  0.00    +0.044 A 
ATOM     17  C   UNL     1       0.039  -1.985   1.186  0.00  0.00    +0.125 A 
ATOM     18  N   UNL     1       0.045  -2.693   0.067  0.00  0.00    -0.237 NA
ENDBRANCH   1  17
BRANCH   7  19
ATOM     19  C   UNL     1      -0.432 -10.353   2.768  0.00  0.00    +0.097 C 
ATOM     20  N   UNL     1      -1.071 -10.703   3.849  0.00  0.00    -0.387 N 
ATOM     21  N   UNL     1       0.145 -11.314   1.967  0.00  0.00    -0.328 N 
ATOM     22  H   UNL     1      -1.140 -11.641   4.090  0.00  0.00    +0.157 HD
ATOM     23  H   UNL     1       0.621 -11.053   1.162  0.00  0.00    +0.148 HD
ATOM     24  H   UNL     1      -1.478 -10.027   4.413  0.00  0.00    +0.157 HD
BRANCH  21  25
ATOM     25  C   UNL     1       0.042 -12.729   2.330  0.00  0.00    +0.065 C 
ATOM     26  C   UNL     1       0.175 -13.590   1.072  0.00  0.00    +0.027 C 
ATOM     27  C   UNL     1       1.159 -13.087   3.313  0.00  0.00    +0.027 C 
ENDBRANCH  21  25
ENDBRANCH   7  19
TORSDOF 3
