REMARK  Name = ZINC43223300
REMARK  5 active torsions:
REMARK  status: ('A' for Active; 'I' for Inactive)
REMARK    1  A    between atoms: C_9  and  N_11
REMARK    2  A    between atoms: C_12  and  C_14
REMARK    3  A    between atoms: C_19  and  C_21
REMARK    4  A    between atoms: N_23  and  C_24
REMARK    5  A    between atoms: C_24  and  C_25
REMARK                            x       y       z     vdW  Elec       q    Type
REMARK                         _______ _______ _______ _____ _____    ______ ____
ROOT
ATOM      1  C   UNL     1       5.689  -0.302   3.082  0.00  0.00    +0.068 C 
ATOM      2  C   UNL     1       6.438  -1.644   3.227  0.00  0.00    -0.069 C 
ATOM      3  N   UNL     1       7.853  -1.320   2.911  0.00  0.00    +0.380 N 
ATOM      4  C   UNL     1       8.075   0.004   3.547  0.00  0.00    -0.069 C 
ATOM      5  C   UNL     1       6.764   0.784   3.294  0.00  0.00    +0.068 C 
ATOM      6  H   UNL     1       8.470  -2.011   3.309  0.00  0.00    -0.086 HD
ATOM      7  H   UNL     1       7.986  -1.258   1.913  0.00  0.00    -0.086 HD
ENDROOT
BRANCH   1   9
ATOM      8  N   UNL     1       4.147  -1.058   1.302  0.00  0.00    -0.308 N 
ATOM      9  C   UNL     1       5.090  -0.183   1.704  0.00  0.00    +0.215 C 
ATOM     10  O   UNL     1       5.456   0.700   0.958  0.00  0.00    -0.276 OA
ATOM     11  H   UNL     1       3.854  -1.764   1.899  0.00  0.00    +0.149 HD
BRANCH   8  20
ATOM     12  C   UNL     1      -0.017   1.377   0.010  0.00  0.00    +0.000 A 
ATOM     13  C   UNL     1       1.172   2.083   0.002  0.00  0.00    +0.000 A 
ATOM     14  C   UNL     1       2.376   1.406  -0.013  0.00  0.00    +0.006 A 
ATOM     15  C   UNL     1       2.396   0.021  -0.021  0.00  0.00    -0.024 A 
ATOM     16  C   UNL     1       1.208  -0.685  -0.013  0.00  0.00    -0.042 A 
ATOM     17  C   UNL     1       0.002  -0.004   0.002  0.00  0.00    +0.004 A 
ATOM     18  C   UNL     1       1.496  -2.171  -0.025  0.00  0.00    +0.037 C 
ATOM     19  C   UNL     1       2.966  -2.294  -0.480  0.00  0.00    +0.032 C 
ATOM     20  C   UNL     1       3.564  -0.942  -0.037  0.00  0.00    +0.104 C 
ENDBRANCH   8  20
ENDBRANCH   1   9
BRANCH   5  21
ATOM     21  C   UNL     1       6.420   1.635   4.489  0.00  0.00    +0.215 C 
ATOM     22  O   UNL     1       5.412   1.409   5.124  0.00  0.00    -0.276 OA
ATOM     23  N   UNL     1       7.232   2.648   4.851  0.00  0.00    -0.313 N 
ATOM     24  H   UNL     1       8.038   2.829   4.343  0.00  0.00    +0.149 HD
BRANCH  23  25
ATOM     25  C   UNL     1       6.897   3.475   6.013  0.00  0.00    +0.135 C 
BRANCH  25  26
ATOM     26  C   UNL     1       7.974   4.544   6.205  0.00  0.00    +0.135 C 
ATOM     27  C   UNL     1       7.657   5.409   7.451  0.00  0.00    +0.035 C 
ATOM     28  C   UNL     1       9.076   5.919   7.825  0.00  0.00    +0.031 C 
ATOM     29  C   UNL     1       9.968   4.720   7.437  0.00  0.00    +0.160 C 
ATOM     30  O   UNL     1       9.242   3.930   6.486  0.00  0.00    -0.375 OA
ENDBRANCH  25  26
ENDBRANCH  23  25
ENDBRANCH   5  21
TORSDOF 5
