REMARK  Name = ZINC63372649
REMARK  13 active torsions:
REMARK  status: ('A' for Active; 'I' for Inactive)
REMARK    1  A    between atoms: C_1  and  C_2
REMARK    2  A    between atoms: C_2  and  C_3
REMARK    3  A    between atoms: C_3  and  O_4
REMARK    4  A    between atoms: O_4  and  C_5
REMARK    5  A    between atoms: C_8  and  C_14
REMARK    6  A    between atoms: C_10  and  O_11
REMARK    7  A    between atoms: O_11  and  C_12
REMARK    8  A    between atoms: C_12  and  C_13
REMARK    9  A    between atoms: N_21  and  C_36
REMARK   10  A    between atoms: C_24  and  C_35
REMARK   11  A    between atoms: C_36  and  C_37
REMARK   12  A    between atoms: C_37  and  C_38
REMARK   13  A    between atoms: C_37  and  C_39
REMARK                            x       y       z     vdW  Elec       q    Type
REMARK                         _______ _______ _______ _____ _____    ______ ____
ROOT
ATOM      1  C   UNL     1      -6.398  -4.578  -0.016  0.00  0.00    +0.065 C 
ATOM      2  C   UNL     1      -7.132  -4.268   1.291  0.00  0.00    +0.121 C 
ATOM      3  N   UNL     1      -7.788  -2.973   1.294  0.00  0.00    -0.283 N 
ATOM      4  C   UNL     1      -8.200  -2.485   2.512  0.00  0.00    +0.234 C 
ATOM      5  O   UNL     1      -7.905  -3.037   3.550  0.00  0.00    -0.274 OA
ATOM      6  C   UNL     1      -9.038  -1.224   2.495  0.00  0.00    +0.203 C 
ATOM      7  N   UNL     1     -10.043  -1.343   1.421  0.00  0.00    -0.291 N 
ATOM      8  C   UNL     1      -9.590  -1.784   0.209  0.00  0.00    +0.242 C 
ATOM      9  O   UNL     1     -10.316  -1.885  -0.757  0.00  0.00    -0.273 OA
ATOM     10  C   UNL     1      -8.125  -2.135   0.157  0.00  0.00    +0.135 C 
ATOM     11  C   UNL     1      -7.655  -2.587  -1.190  0.00  0.00    +0.139 C 
ATOM     12  C   UNL     1      -7.279  -4.061  -1.125  0.00  0.00    -0.027 C 
ATOM     13  C   UNL     1      -7.878  -4.651  -2.148  0.00  0.00    -0.000 A 
ATOM     14  C   UNL     1      -7.817  -6.029  -2.664  0.00  0.00    +0.010 A 
ATOM     15  C   UNL     1      -8.598  -6.300  -3.743  0.00  0.00    +0.001 A 
ATOM     16  C   UNL     1      -9.424  -5.352  -4.354  0.00  0.00    +0.002 A 
ATOM     17  C   UNL     1      -9.536  -4.061  -3.952  0.00  0.00    +0.026 A 
ATOM     18  C   UNL     1      -8.756  -3.652  -2.832  0.00  0.00    +0.043 A 
ATOM     19  N   UNL     1      -8.658  -2.498  -2.250  0.00  0.00    -0.375 N 
ATOM     20  C   UNL     1      -7.393  -0.814   0.400  0.00  0.00    +0.044 C 
ATOM     21  H   UNL     1      -9.166  -1.707  -2.487  0.00  0.00    +0.160 HD
ENDROOT
BRANCH   1  25
ATOM     22  C   UNL     1      -2.618  -2.578  -0.084  0.00  0.00    +0.162 A 
ATOM     23  C   UNL     1      -3.692  -2.013   0.585  0.00  0.00    +0.050 A 
ATOM     24  C   UNL     1      -4.913  -2.662   0.605  0.00  0.00    +0.008 A 
ATOM     25  C   UNL     1      -5.065  -3.875  -0.041  0.00  0.00    -0.035 A 
ATOM     26  C   UNL     1      -3.997  -4.444  -0.710  0.00  0.00    +0.053 A 
ATOM     27  C   UNL     1      -2.773  -3.796  -0.739  0.00  0.00    +0.162 A 
BRANCH  22  28
ATOM     28  O   UNL     1      -1.417  -1.940  -0.105  0.00  0.00    -0.488 OA
BRANCH  28  29
ATOM     29  C   UNL     1      -1.332  -0.694   0.588  0.00  0.00    +0.229 C 
BRANCH  29  31
ATOM     30  C   UNL     1       0.176   1.203   1.197  0.00  0.00    +0.007 C 
ATOM     31  C   UNL     1       0.085  -0.132   0.454  0.00  0.00    +0.038 C 
ENDBRANCH  29  31
ENDBRANCH  28  29
ENDBRANCH  22  28
BRANCH  27  32
ATOM     32  O   UNL     1      -1.723  -4.351  -1.402  0.00  0.00    -0.489 OA
BRANCH  32  33
ATOM     33  C   UNL     1      -1.955  -5.603  -2.051  0.00  0.00    +0.226 C 
ATOM     34  C   UNL     1      -0.669  -6.068  -2.737  0.00  0.00    +0.048 C 
ENDBRANCH  32  33
ENDBRANCH  27  32
ENDBRANCH   1  25
BRANCH   7  35
ATOM     35  C   UNL     1     -11.451  -1.007   1.643  0.00  0.00    +0.111 C 
BRANCH  35  36
ATOM     36  C   UNL     1     -11.678   0.472   1.323  0.00  0.00    +0.000 C 
ATOM     37  C   UNL     1     -13.170   0.794   1.433  0.00  0.00    +0.009 C 
ATOM     38  C   UNL     1     -10.896   1.335   2.315  0.00  0.00    +0.009 C 
ENDBRANCH  35  36
ENDBRANCH   7  35
TORSDOF 8
