REMARK  Name = ZINC16714109
REMARK  11 active torsions:
REMARK  status: ('A' for Active; 'I' for Inactive)
REMARK    1  A    between atoms: C_1  and  C_2
REMARK    2  A    between atoms: C_3  and  C_28
REMARK    3  A    between atoms: C_5  and  N_24
REMARK    4  A    between atoms: C_6  and  C_7
REMARK    5  A    between atoms: C_7  and  O_9
REMARK    6  A    between atoms: O_9  and  C_10
REMARK    7  A    between atoms: C_10  and  C_12
REMARK    8  A    between atoms: C_10  and  C_13
REMARK    9  A    between atoms: N_15  and  C_16
REMARK   10  A    between atoms: C_17  and  C_21
REMARK   11  A    between atoms: C_25  and  C_27
REMARK                            x       y       z     vdW  Elec       q    Type
REMARK                         _______ _______ _______ _____ _____    ______ ____
ROOT
ATOM      1  C   UNL     1      -3.996   2.301  -1.964  0.00  0.00    +0.259 C 
ATOM      2  C   UNL     1      -5.457   2.611  -1.635  0.00  0.00    +0.062 C 
ENDROOT
BRANCH   1   3
ATOM      3  C   UNL     1      -3.552   3.151  -3.127  0.00  0.00    +0.258 C 
ATOM      4  O   UNL     1      -2.628   3.926  -2.994  0.00  0.00    -0.271 OA
ATOM      5  N   UNL     1      -4.182   3.051  -4.314  0.00  0.00    -0.276 N 
ATOM      6  H   UNL     1      -4.921   2.432  -4.420  0.00  0.00    +0.155 HD
BRANCH   5   7
ATOM      7  C   UNL     1      -3.774   3.833  -5.384  0.00  0.00    +0.084 A 
ATOM      8  C   UNL     1      -4.289   3.868  -6.674  0.00  0.00    +0.065 A 
ATOM      9  C   UNL     1      -3.669   4.789  -7.597  0.00  0.00    +0.022 A 
ATOM     10  C   UNL     1      -2.643   5.525  -7.133  0.00  0.00    +0.048 A 
ATOM     11  S   UNL     1      -2.494   4.998  -5.438  0.00  0.00    -0.081 S 
BRANCH   8  12
ATOM     12  C   UNL     1      -5.410   3.013  -7.078  0.00  0.00    +0.244 C 
ATOM     13  O   UNL     1      -5.913   2.249  -6.275  0.00  0.00    -0.270 OA
ATOM     14  N   UNL     1      -5.884   3.074  -8.338  0.00  0.00    -0.325 N 
ATOM     15  H   UNL     1      -5.483   3.683  -8.979  0.00  0.00    +0.145 HD
ATOM     16  H   UNL     1      -6.625   2.508  -8.606  0.00  0.00    +0.145 HD
ENDBRANCH   8  12
ENDBRANCH   5   7
ENDBRANCH   1   3
BRANCH   1  17
ATOM     17  O   UNL     1      -3.167   2.592  -0.808  0.00  0.00    -0.449 OA
BRANCH  17  18
ATOM     18  C   UNL     1      -2.968   1.588   0.070  0.00  0.00    +0.343 C 
ATOM     19  O   UNL     1      -3.474   0.499  -0.125  0.00  0.00    -0.245 OA
BRANCH  18  25
ATOM     20  C   UNL     1      -0.013   1.086   0.008  0.00  0.00    +0.045 C 
ATOM     21  C   UNL     1      -0.718   1.572   1.248  0.00  0.00    -0.025 A 
ATOM     22  C   UNL     1      -0.047   1.809   2.389  0.00  0.00    -0.008 A 
ATOM     23  S   UNL     1      -1.320   2.350   3.510  0.00  0.00    -0.078 S 
ATOM     24  C   UNL     1      -2.692   2.252   2.458  0.00  0.00    +0.086 A 
ATOM     25  C   UNL     1      -2.142   1.809   1.260  0.00  0.00    +0.091 A 
ATOM     26  C   UNL     1       1.428   1.654   2.655  0.00  0.00    +0.052 C 
BRANCH  24  27
ATOM     27  N   UNL     1      -4.017   2.549   2.740  0.00  0.00    -0.280 N 
ATOM     28  C   UNL     1      -4.364   2.975   3.970  0.00  0.00    +0.214 C 
ATOM     29  O   UNL     1      -3.518   3.099   4.830  0.00  0.00    -0.276 OA
ATOM     30  C   UNL     1      -5.804   3.298   4.277  0.00  0.00    +0.109 C 
ATOM     31  H   UNL     1      -4.693   2.450   2.052  0.00  0.00    +0.155 HD
ENDBRANCH  24  27
ENDBRANCH  18  25
ENDBRANCH  17  18
ENDBRANCH   1  17
TORSDOF 7
