REMARK  Name = ZINC50856900
REMARK  5 active torsions:
REMARK  status: ('A' for Active; 'I' for Inactive)
REMARK    1  A    between atoms: C_1  and  C_2
REMARK    2  A    between atoms: C_5  and  C_8
REMARK    3  A    between atoms: C_11  and  C_13
REMARK    4  A    between atoms: C_18  and  C_19
REMARK    5  A    between atoms: C_25  and  C_28
REMARK                            x       y       z     vdW  Elec       q    Type
REMARK                         _______ _______ _______ _____ _____    ______ ____
ROOT
ATOM      1  C   UNL     1      -0.074  -7.676  -1.424  0.00  0.00    +0.047 A 
ATOM      2  C   UNL     1       0.849  -8.701  -1.216  0.00  0.00    +0.014 A 
ATOM      3  C   UNL     1       1.008  -9.690  -2.165  0.00  0.00    +0.001 A 
ATOM      4  C   UNL     1       0.256  -9.673  -3.329  0.00  0.00    +0.001 A 
ATOM      5  C   UNL     1      -0.661  -8.668  -3.555  0.00  0.00    +0.014 A 
ATOM      6  C   UNL     1      -0.842  -7.662  -2.605  0.00  0.00    +0.049 A 
ENDROOT
BRANCH   6   7
ATOM      7  C   UNL     1      -1.827  -6.588  -2.839  0.00  0.00    +0.248 C 
ATOM      8  O   UNL     1      -2.672  -6.345  -2.000  0.00  0.00    -0.270 OA
ATOM      9  N   UNL     1      -1.788  -5.875  -3.982  0.00  0.00    -0.292 N 
ATOM     10  C   UNL     1      -2.698  -4.739  -4.198  0.00  0.00    +0.136 C 
ATOM     11  C   UNL     1      -1.866  -3.532  -4.646  0.00  0.00    +0.180 C 
ATOM     12  O   UNL     1      -1.048  -3.910  -5.756  0.00  0.00    -0.364 OA
ATOM     13  C   UNL     1      -0.095  -4.932  -5.459  0.00  0.00    +0.221 C 
ATOM     14  C   UNL     1      -0.832  -6.208  -5.050  0.00  0.00    +0.149 C 
BRANCH  13  15
ATOM     15  C   UNL     1       0.749  -5.204  -6.678  0.00  0.00    +0.241 C 
ATOM     16  O   UNL     1       0.495  -4.649  -7.726  0.00  0.00    -0.273 OA
ATOM     17  N   UNL     1       1.785  -6.062  -6.603  0.00  0.00    -0.327 N 
ATOM     18  H   UNL     1       1.988  -6.506  -5.765  0.00  0.00    +0.145 HD
ATOM     19  H   UNL     1       2.327  -6.237  -7.388  0.00  0.00    +0.145 HD
ENDBRANCH  13  15
ENDBRANCH   6   7
BRANCH   1  23
ATOM     20  C   UNL     1      -0.432  -4.661   0.523  0.00  0.00    +0.153 A 
ATOM     21  C   UNL     1      -0.551  -5.625   1.477  0.00  0.00    +0.132 A 
ATOM     22  N   UNL     1      -0.434  -6.811   0.874  0.00  0.00    -0.328 N 
ATOM     23  C   UNL     1      -0.248  -6.617  -0.413  0.00  0.00    +0.207 A 
ATOM     24  O   UNL     1      -0.248  -5.294  -0.656  0.00  0.00    -0.437 OA
ATOM     25  H   UNL     1      -0.479  -7.674   1.313  0.00  0.00    +0.168 HD
BRANCH  20  30
ATOM     26  C   UNL     1      -0.687   1.027   1.352  0.00  0.00    +0.044 C 
ATOM     27  C   UNL     1      -0.620  -0.463   1.135  0.00  0.00    -0.050 A 
ATOM     28  C   UNL     1      -0.425  -0.965  -0.140  0.00  0.00    +0.004 A 
ATOM     29  C   UNL     1      -0.363  -2.327  -0.346  0.00  0.00    +0.012 A 
ATOM     30  C   UNL     1      -0.497  -3.200   0.736  0.00  0.00    +0.019 A 
ATOM     31  C   UNL     1      -0.694  -2.687   2.019  0.00  0.00    +0.012 A 
ATOM     32  C   UNL     1      -0.749  -1.322   2.212  0.00  0.00    +0.004 A 
ENDBRANCH  20  30
ENDBRANCH   1  23
TORSDOF 4
