REMARK  Name = ZINC48871436
REMARK  8 active torsions:
REMARK  status: ('A' for Active; 'I' for Inactive)
REMARK    1  A    between atoms: C_1  and  C_2
REMARK    2  A    between atoms: C_6  and  C_8
REMARK    3  A    between atoms: C_8  and  N_9
REMARK    4  A    between atoms: N_9  and  C_10
REMARK    5  A    between atoms: C_12  and  C_19
REMARK    6  A    between atoms: C_13  and  C_18
REMARK    7  A    between atoms: C_15  and  C_17
REMARK    8  A    between atoms: C_19  and  N_21
REMARK                            x       y       z     vdW  Elec       q    Type
REMARK                         _______ _______ _______ _____ _____    ______ ____
ROOT
ATOM      1  N   UNL     1       1.431  -3.073   2.889  0.00  0.00    -0.315 N 
ATOM      2  C   UNL     1       2.101  -2.103   3.758  0.00  0.00    +0.131 C 
ATOM      3  C   UNL     1       2.098  -4.216   2.485  0.00  0.00    +0.109 A 
ATOM      4  C   UNL     1       1.944  -5.409   3.212  0.00  0.00    +0.044 A 
ATOM      5  C   UNL     1       2.629  -6.552   2.783  0.00  0.00    -0.036 A 
ATOM      6  C   UNL     1       3.430  -6.456   1.658  0.00  0.00    +0.025 A 
ATOM      7  C   UNL     1       3.531  -5.246   0.996  0.00  0.00    +0.015 A 
ATOM      8  N   UNL     1       2.874  -4.181   1.412  0.00  0.00    -0.347 N 
ATOM      9  C   UNL     1       4.404  -5.144  -0.229  0.00  0.00    +0.063 C 
ATOM     10  C   UNL     1       2.498  -7.856   3.528  0.00  0.00    +0.044 C 
ATOM     11  H   UNL     1       2.964  -3.349   0.922  0.00  0.00    +0.167 HD
ENDROOT
BRANCH   4  12
ATOM     12  C   UNL     1       1.079  -5.456   4.402  0.00  0.00    +0.080 C 
ATOM     13  S   UNL     1      -0.544  -5.981   4.261  0.00  0.00    -0.035 S 
BRANCH  12  14
ATOM     14  N   UNL     1       1.565  -5.085   5.603  0.00  0.00    -0.352 N 
ATOM     15  H   UNL     1       2.461  -4.720   5.672  0.00  0.00    +0.143 HD
ATOM     16  H   UNL     1       1.020  -5.184   6.399  0.00  0.00    +0.143 HD
ENDBRANCH  12  14
ENDBRANCH   4  12
BRANCH   1  17
ATOM     17  C   UNL     1       0.055  -2.833   2.447  0.00  0.00    +0.141 C 
BRANCH  17  23
ATOM     18  C   UNL     1       0.059   1.534   0.002  0.00  0.00    +0.044 C 
ATOM     19  C   UNL     1       0.071   0.027  -0.017  0.00  0.00    -0.050 A 
ATOM     20  C   UNL     1       0.096  -0.649  -1.224  0.00  0.00    +0.003 A 
ATOM     21  C   UNL     1       0.107  -2.031  -1.242  0.00  0.00    +0.001 A 
ATOM     22  C   UNL     1       0.094  -2.738  -0.054  0.00  0.00    +0.005 A 
ATOM     23  C   UNL     1       0.070  -2.063   1.152  0.00  0.00    -0.030 A 
ATOM     24  C   UNL     1       0.063  -0.680   1.170  0.00  0.00    +0.008 A 
ENDBRANCH  17  23
ENDBRANCH   1  17
TORSDOF 4
