REMARK  Name = ZINC01749469
REMARK  6 active torsions:
REMARK  status: ('A' for Active; 'I' for Inactive)
REMARK    1  A    between atoms: C_1  and  C_2
REMARK    2  A    between atoms: C_8  and  C_9
REMARK    3  A    between atoms: C_8  and  N_55
REMARK    4  A    between atoms: C_10  and  O_32
REMARK    5  A    between atoms: C_18  and  C_20
REMARK    6  A    between atoms: C_22  and  C_25
REMARK                            x       y       z     vdW  Elec       q    Type
REMARK                         _______ _______ _______ _____ _____    ______ ____
ROOT
ATOM      1  C   UNL     1       1.071   3.445   0.009  0.00  0.00    +0.020 A 
ATOM      2  C   UNL     1       2.242   4.185   0.002  0.00  0.00    +0.122 A 
ATOM      3  C   UNL     1       3.481   3.548  -0.013  0.00  0.00    +0.046 A 
ATOM      4  C   UNL     1       3.556   2.186  -0.021  0.00  0.00    +0.015 A 
ATOM      5  C   UNL     1       2.381   1.419  -0.013  0.00  0.00    +0.019 A 
ATOM      6  C   UNL     1       1.127   2.058   0.002  0.00  0.00    +0.144 A 
ATOM      7  O   UNL     1      -0.016   1.339   0.009  0.00  0.00    -0.421 OA
ATOM      8  C   UNL     1       0.002  -0.004   0.002  0.00  0.00    +0.347 A 
ATOM      9  O   UNL     1      -1.044  -0.625   0.008  0.00  0.00    -0.244 OA
ATOM     10  C   UNL     1       1.280  -0.724  -0.014  0.00  0.00    +0.092 A 
ATOM     11  C   UNL     1       2.455   0.004  -0.021  0.00  0.00    +0.029 A 
ENDROOT
BRANCH  10  12
ATOM     12  C   UNL     1       1.310  -2.199  -0.023  0.00  0.00    +0.116 A 
ATOM     13  N   UNL     1       0.302  -3.058  -0.018  0.00  0.00    -0.239 NA
ATOM     14  C   UNL     1       0.512  -4.361  -0.028  0.00  0.00    +0.079 A 
ATOM     15  C   UNL     1       1.798  -4.835  -0.042  0.00  0.00    +0.075 A 
ATOM     16  S   UNL     1       2.717  -3.301  -0.050  0.00  0.00    -0.075 S 
BRANCH  14  17
ATOM     17  C   UNL     1      -0.632  -5.304  -0.023  0.00  0.00    +0.001 A 
ATOM     18  C   UNL     1      -0.406  -6.679  -0.039  0.00  0.00    +0.011 A 
ATOM     19  C   UNL     1      -1.474  -7.553  -0.029  0.00  0.00    +0.016 A 
ATOM     20  C   UNL     1      -2.770  -7.065  -0.014  0.00  0.00    +0.018 A 
ATOM     21  C   UNL     1      -3.000  -5.700  -0.003  0.00  0.00    +0.016 A 
ATOM     22  C   UNL     1      -1.939  -4.818  -0.008  0.00  0.00    +0.011 A 
ATOM     23 BR   UNL     1      -4.229  -8.267  -0.009  0.00  0.00    -0.050 Br
ENDBRANCH  14  17
ENDBRANCH  10  12
BRANCH   2  24
ATOM     24  O   UNL     1       2.182   5.541   0.009  0.00  0.00    -0.506 OA
ATOM     25  H   UNL     1       2.156   5.938  -0.873  0.00  0.00    +0.292 HD
ENDBRANCH   2  24
BRANCH   1  26
ATOM     26  C   UNL     1      -0.264   4.145   0.024  0.00  0.00    -0.036 C 
BRANCH  26  33
ATOM     27  C   UNL     1      -3.945   5.673  -2.858  0.00  0.00    +0.005 C 
ATOM     28  C   UNL     1      -2.486   5.212  -2.822  0.00  0.00    -0.031 C 
ATOM     29  C   UNL     1      -2.315   3.987  -3.724  0.00  0.00    -0.001 C 
ATOM     30  C   UNL     1      -0.867   3.496  -3.636  0.00  0.00    -0.018 C 
ATOM     31  C   UNL     1      -0.531   3.175  -2.178  0.00  0.00    -0.078 C 
ATOM     32  C   UNL     1      -2.103   4.841  -1.388  0.00  0.00    -0.075 C 
ATOM     33  N   UNL     1      -0.692   4.401  -1.367  0.00  0.00    +0.383 N 
ATOM     34  H   UNL     1      -0.106   5.143  -1.765  0.00  0.00    -0.081 HD
ENDBRANCH  26  33
ENDBRANCH   1  26
TORSDOF 5
