REMARK  Name = ZINC40177400
REMARK  6 active torsions:
REMARK  status: ('A' for Active; 'I' for Inactive)
REMARK    1  A    between atoms: C_1  and  O_2
REMARK    2  A    between atoms: O_2  and  C_3
REMARK    3  A    between atoms: C_6  and  N_19
REMARK    4  A    between atoms: C_8  and  C_9
REMARK    5  A    between atoms: C_9  and  C_11
REMARK    6  A    between atoms: C_9  and  N_18
REMARK                            x       y       z     vdW  Elec       q    Type
REMARK                         _______ _______ _______ _____ _____    ______ ____
ROOT
ATOM      1  C   UNL     1       0.052  -2.829   0.005  0.00  0.00    -0.010 C 
ENDROOT
BRANCH   1   2
ATOM      2  C   UNL     1      -1.434  -2.917   0.237  0.00  0.00    -0.057 A 
ATOM      3  C   UNL     1      -1.937  -3.812   1.163  0.00  0.00    +0.003 A 
ATOM      4  C   UNL     1      -3.300  -3.894   1.376  0.00  0.00    +0.014 A 
ATOM      5  C   UNL     1      -4.162  -3.081   0.662  0.00  0.00    +0.013 A 
ATOM      6  C   UNL     1      -3.658  -2.186  -0.264  0.00  0.00    +0.014 A 
ATOM      7  C   UNL     1      -2.295  -2.100  -0.473  0.00  0.00    +0.003 A 
ATOM      8  I   UNL     1      -6.228  -3.205   0.984  0.00  0.00    -0.044 I 
ENDBRANCH   1   2
BRANCH   1  14
ATOM      9  C   UNL     1       0.626  -0.618   1.042  0.00  0.00    +0.122 A 
ATOM     10  C   UNL     1       1.202   0.139   2.051  0.00  0.00    +0.048 A 
ATOM     11  C   UNL     1       1.835  -0.488   3.107  0.00  0.00    +0.036 A 
ATOM     12  C   UNL     1       1.895  -1.869   3.158  0.00  0.00    +0.127 A 
ATOM     13  C   UNL     1       1.321  -2.625   2.153  0.00  0.00    +0.038 A 
ATOM     14  C   UNL     1       0.682  -2.003   1.097  0.00  0.00    -0.014 A 
BRANCH  12  15
ATOM     15  N   UNL     1       2.574  -2.538   4.290  0.00  0.00    +0.056 N 
ATOM     16  O   UNL     1       3.075  -1.877   5.170  0.00  0.00    -0.126 OA
ATOM     17  O   UNL     1       2.626  -3.745   4.336  0.00  0.00    -0.126 OA
ENDBRANCH  12  15
BRANCH   9  19
ATOM     18  C   UNL     1      -0.017   1.425   0.010  0.00  0.00    +0.277 C 
ATOM     19  O   UNL     1       0.002  -0.004   0.002  0.00  0.00    -0.495 OA
ENDBRANCH   9  19
ENDBRANCH   1  14
BRANCH   1  20
ATOM     20  N   UNL     1       0.631  -4.178   0.016  0.00  0.00    +0.385 N 
ATOM     21  H   UNL     1       0.455  -4.613   0.909  0.00  0.00    -0.089 HD
ATOM     22  H   UNL     1       0.209  -4.731  -0.716  0.00  0.00    -0.089 HD
ATOM     23  H   UNL     1       1.626  -4.119  -0.139  0.00  0.00    -0.089 HD
ENDBRANCH   1  20
TORSDOF 5
