REMARK  Name = ZINC39105524
REMARK  7 active torsions:
REMARK  status: ('A' for Active; 'I' for Inactive)
REMARK    1  A    between atoms: C_1  and  C_2
REMARK    2  A    between atoms: C_3  and  C_16
REMARK    3  A    between atoms: C_4  and  N_9
REMARK    4  A    between atoms: C_7  and  C_8
REMARK    5  A    between atoms: C_10  and  C_12
REMARK    6  A    between atoms: C_12  and  C_14
REMARK    7  A    between atoms: C_12  and  N_15
REMARK                            x       y       z     vdW  Elec       q    Type
REMARK                         _______ _______ _______ _____ _____    ______ ____
ROOT
ATOM      1  N   UNL     1      -1.012  -2.921  -1.211  0.00  0.00    -0.291 N 
ATOM      2  C   UNL     1      -1.492  -4.177  -1.118  0.00  0.00    +0.200 C 
ATOM      3  O   UNL     1      -1.548  -4.726  -0.038  0.00  0.00    -0.278 OA
ATOM      4  H   UNL     1      -0.968  -2.482  -2.075  0.00  0.00    +0.151 HD
ENDROOT
BRANCH   1   8
ATOM      5  C   UNL     1      -0.018   1.503   0.010  0.00  0.00    +0.047 C 
ATOM      6  C   UNL     1       0.002  -0.004   0.002  0.00  0.00    -0.013 C 
ATOM      7  C   UNL     1      -1.088  -0.802   0.003  0.00  0.00    +0.076 C 
ATOM      8  C   UNL     1      -0.558  -2.219  -0.008  0.00  0.00    +0.232 C 
ATOM      9  N   UNL     1       0.904  -2.091  -0.015  0.00  0.00    -0.260 NA
ATOM     10  C   UNL     1       1.204  -0.835  -0.014  0.00  0.00    +0.039 C 
ATOM     11  C   UNL     1       2.611  -0.296  -0.025  0.00  0.00    +0.065 C 
BRANCH   7  12
ATOM     12  C   UNL     1      -2.460  -0.392   0.012  0.00  0.00    +0.099 C 
ATOM     13  N   UNL     1      -3.549  -0.067   0.020  0.00  0.00    -0.191 NA
ENDBRANCH   7  12
ENDBRANCH   1   8
BRANCH   2  14
ATOM     14  C   UNL     1      -1.960  -4.899  -2.356  0.00  0.00    +0.010 C 
ATOM     15  C   UNL     1      -0.799  -5.019  -3.345  0.00  0.00    -0.005 C 
BRANCH  14  16
ATOM     16  N   UNL     1      -2.433  -6.241  -1.990  0.00  0.00    +0.385 N 
ATOM     17  H   UNL     1      -3.198  -6.161  -1.338  0.00  0.00    -0.089 HD
ATOM     18  H   UNL     1      -2.746  -6.724  -2.819  0.00  0.00    -0.089 HD
ATOM     19  H   UNL     1      -1.679  -6.758  -1.563  0.00  0.00    -0.089 HD
ENDBRANCH  14  16
ENDBRANCH   2  14
TORSDOF 4
