REMARK  Name = ZINC07685980
REMARK  9 active torsions:
REMARK  status: ('A' for Active; 'I' for Inactive)
REMARK    1  A    between atoms: C_1  and  N_52
REMARK    2  A    between atoms: C_2  and  C_3
REMARK    3  A    between atoms: C_2  and  N_52
REMARK    4  A    between atoms: C_3  and  O_4
REMARK    5  A    between atoms: O_4  and  C_5
REMARK    6  A    between atoms: C_11  and  C_12
REMARK    7  A    between atoms: C_11  and  N_52
REMARK    8  A    between atoms: N_14  and  C_15
REMARK    9  A    between atoms: C_16  and  C_24
REMARK                            x       y       z     vdW  Elec       q    Type
REMARK                         _______ _______ _______ _____ _____    ______ ____
ROOT
ATOM      1  C   UNL     1      -0.014   1.209   0.009  0.00  0.00    +0.201 C 
ATOM      2  O   UNL     1       0.002  -0.004   0.002  0.00  0.00    -0.278 OA
ATOM      3  N   UNL     1      -1.191   1.867   0.018  0.00  0.00    -0.281 N 
ATOM      4  H   UNL     1      -1.204   2.836   0.023  0.00  0.00    +0.155 HD
ENDROOT
BRANCH   3   5
ATOM      5  C   UNL     1      -2.382   1.157   0.020  0.00  0.00    +0.084 A 
ATOM      6  C   UNL     1      -3.679   1.650   0.034  0.00  0.00    +0.068 A 
ATOM      7  C   UNL     1      -4.764   0.684   0.029  0.00  0.00    -0.023 A 
ATOM      8  C   UNL     1      -4.382  -0.611   0.021  0.00  0.00    -0.004 A 
ATOM      9  S   UNL     1      -2.612  -0.560   0.012  0.00  0.00    -0.077 S 
ATOM     10  C   UNL     1      -5.272  -1.816   0.019  0.00  0.00    +0.043 C 
ATOM     11  C   UNL     1      -6.689  -1.371   0.407  0.00  0.00    +0.005 C 
ATOM     12  C   UNL     1      -7.063  -0.138  -0.422  0.00  0.00    +0.005 C 
ATOM     13  C   UNL     1      -6.239   1.066   0.037  0.00  0.00    +0.037 C 
BRANCH   6  14
ATOM     14  C   UNL     1      -3.944   3.092   0.051  0.00  0.00    +0.244 C 
ATOM     15  O   UNL     1      -4.063   3.701  -0.997  0.00  0.00    -0.270 OA
ATOM     16  N   UNL     1      -4.057   3.743   1.225  0.00  0.00    -0.325 N 
ATOM     17  H   UNL     1      -3.963   3.257   2.060  0.00  0.00    +0.145 HD
ATOM     18  H   UNL     1      -4.233   4.697   1.236  0.00  0.00    +0.145 HD
ENDBRANCH   6  14
ENDBRANCH   3   5
BRANCH   1  19
ATOM     19  C   UNL     1       1.280   1.980   0.001  0.00  0.00    +0.019 C 
BRANCH  19  21
ATOM     20  C   UNL     1       2.470   0.269   1.233  0.00  0.00    -0.095 C 
ATOM     21  N   UNL     1       2.405   1.022  -0.037  0.00  0.00    +0.386 N 
ATOM     22  H   UNL     1       2.256   0.362  -0.809  0.00  0.00    -0.081 HD
BRANCH  21  23
ATOM     23  C   UNL     1       3.676   1.744  -0.262  0.00  0.00    -0.037 C 
BRANCH  23  24
ATOM     24  C   UNL     1       4.785   0.722  -0.519  0.00  0.00    +0.210 C 
BRANCH  24  25
ATOM     25  O   UNL     1       4.506   0.010  -1.726  0.00  0.00    -0.494 OA
BRANCH  25  26
ATOM     26  C   UNL     1       5.401  -0.942  -2.102  0.00  0.00    +0.120 A 
ATOM     27  C   UNL     1       6.526  -1.182  -1.327  0.00  0.00    +0.045 A 
ATOM     28  C   UNL     1       7.431  -2.154  -1.708  0.00  0.00    +0.004 A 
ATOM     29  C   UNL     1       7.221  -2.880  -2.866  0.00  0.00    +0.000 A 
ATOM     30  C   UNL     1       6.103  -2.639  -3.643  0.00  0.00    +0.004 A 
ATOM     31  C   UNL     1       5.193  -1.671  -3.263  0.00  0.00    +0.045 A 
ENDBRANCH  25  26
ENDBRANCH  24  25
ENDBRANCH  23  24
ENDBRANCH  21  23
ENDBRANCH  19  21
ENDBRANCH   1  19
TORSDOF 8
