REMARK  Name = ZINC67266389
REMARK  5 active torsions:
REMARK  status: ('A' for Active; 'I' for Inactive)
REMARK    1  A    between atoms: C_6  and  C_7
REMARK    2  A    between atoms: N_9  and  C_10
REMARK    3  A    between atoms: C_11  and  C_15
REMARK    4  A    between atoms: N_17  and  C_18
REMARK    5  A    between atoms: C_18  and  C_19
REMARK                            x       y       z     vdW  Elec       q    Type
REMARK                         _______ _______ _______ _____ _____    ______ ____
ROOT
ATOM      1  C   UNL     1      -3.630  -0.829   0.023  0.00  0.00    +0.084 A 
ATOM      2  C   UNL     1      -4.926  -0.331   0.029  0.00  0.00    +0.065 A 
ATOM      3  C   UNL     1      -5.992  -1.306   0.032  0.00  0.00    +0.022 A 
ATOM      4  C   UNL     1      -5.608  -2.596   0.029  0.00  0.00    +0.048 A 
ATOM      5  S   UNL     1      -3.832  -2.494   0.015  0.00  0.00    -0.081 S 
ENDROOT
BRANCH   1   8
ATOM      6  C   UNL     1      -1.264  -0.766   0.007  0.00  0.00    +0.249 C 
ATOM      7  O   UNL     1      -1.242  -1.982   0.000  0.00  0.00    -0.270 OA
ATOM      8  N   UNL     1      -2.443  -0.114   0.019  0.00  0.00    -0.275 N 
ATOM      9  H   UNL     1      -2.461   0.856   0.024  0.00  0.00    +0.156 HD
BRANCH   6  15
ATOM     10  C   UNL     1      -0.017   1.392   0.010  0.00  0.00    +0.013 A 
ATOM     11  C   UNL     1       1.171   2.088   0.002  0.00  0.00    +0.004 A 
ATOM     12  C   UNL     1       2.388   1.417  -0.012  0.00  0.00    -0.044 A 
ATOM     13  C   UNL     1       2.414   0.039  -0.014  0.00  0.00    -0.043 A 
ATOM     14  C   UNL     1       1.224  -0.673  -0.010  0.00  0.00    +0.017 A 
ATOM     15  C   UNL     1       0.002  -0.004   0.002  0.00  0.00    +0.037 A 
ATOM     16  C   UNL     1       3.699  -0.748  -0.012  0.00  0.00    +0.035 C 
ATOM     17  C   UNL     1       4.869   0.132  -0.445  0.00  0.00    +0.005 C 
ATOM     18  C   UNL     1       4.849   1.413   0.397  0.00  0.00    +0.005 C 
ATOM     19  C   UNL     1       3.644   2.250  -0.027  0.00  0.00    +0.035 C 
ENDBRANCH   6  15
ENDBRANCH   1   8
BRANCH   2  20
ATOM     20  C   UNL     1      -5.198   1.110   0.033  0.00  0.00    +0.247 C 
ATOM     21  O   UNL     1      -4.275   1.903   0.030  0.00  0.00    -0.270 OA
ATOM     22  N   UNL     1      -6.470   1.555   0.039  0.00  0.00    -0.303 N 
ATOM     23  H   UNL     1      -7.205   0.922   0.041  0.00  0.00    +0.150 HD
BRANCH  22  24
ATOM     24  C   UNL     1      -6.742   2.994   0.042  0.00  0.00    +0.200 C 
BRANCH  24  25
ATOM     25  C   UNL     1      -8.232   3.224   0.049  0.00  0.00    +0.228 C 
ATOM     26  O   UNL     1      -8.991   2.278   0.050  0.00  0.00    -0.274 OA
ATOM     27  N   UNL     1      -8.720   4.480   0.053  0.00  0.00    -0.328 N 
ATOM     28  H   UNL     1      -8.113   5.237   0.051  0.00  0.00    +0.145 HD
ATOM     29  H   UNL     1      -9.678   4.628   0.057  0.00  0.00    +0.145 HD
ENDBRANCH  24  25
ENDBRANCH  22  24
ENDBRANCH   2  20
TORSDOF 5
