REMARK  Name = ZINC25453088
REMARK  8 active torsions:
REMARK  status: ('A' for Active; 'I' for Inactive)
REMARK    1  A    between atoms: C_1  and  N_2
REMARK    2  A    between atoms: N_2  and  C_3
REMARK    3  A    between atoms: N_2  and  C_28
REMARK    4  A    between atoms: C_3  and  N_4
REMARK    5  A    between atoms: N_16  and  C_19
REMARK    6  A    between atoms: C_19  and  C_20
REMARK    7  A    between atoms: C_25  and  O_26
REMARK    8  A    between atoms: O_26  and  C_27
REMARK                            x       y       z     vdW  Elec       q    Type
REMARK                         _______ _______ _______ _____ _____    ______ ____
ROOT
ATOM      1  N   UNL     1       1.446   3.349  -0.202  0.00  0.00    -0.255 N 
ATOM      2  C   UNL     1       1.391   4.097  -1.322  0.00  0.00    +0.182 A 
ATOM      3  S   UNL     1       1.233   3.512  -2.923  0.00  0.00    -0.011 S 
ATOM      4  N   UNL     1       1.480   5.392  -0.952  0.00  0.00    -0.257 N 
ATOM      5  C   UNL     1       1.470   6.564  -1.707  0.00  0.00    +0.064 A 
ATOM      6  C   UNL     1       1.349   6.520  -3.088  0.00  0.00    +0.027 A 
ATOM      7  C   UNL     1       1.344   7.695  -3.814  0.00  0.00    +0.002 A 
ATOM      8  C   UNL     1       1.458   8.919  -3.175  0.00  0.00    +0.001 A 
ATOM      9  C   UNL     1       1.579   8.981  -1.802  0.00  0.00    +0.015 A 
ATOM     10  C   UNL     1       1.587   7.802  -1.058  0.00  0.00    +0.064 A 
ATOM     11  C   UNL     1       1.715   7.826   0.410  0.00  0.00    +0.263 A 
ATOM     12  O   UNL     1       1.817   8.882   1.004  0.00  0.00    -0.267 OA
ATOM     13  N   UNL     1       1.718   6.659   1.085  0.00  0.00    -0.272 N 
ATOM     14  C   UNL     1       1.601   5.446   0.418  0.00  0.00    +0.238 A 
ATOM     15  N   UNL     1       1.583   4.225   0.881  0.00  0.00    -0.133 NA
ENDROOT
BRANCH   1  16
ATOM     16  C   UNL     1       1.382   1.887  -0.133  0.00  0.00    +0.072 C 
BRANCH  16  18
ATOM     17  C   UNL     1      -0.792   1.791  -1.195  0.00  0.00    -0.093 C 
ATOM     18  N   UNL     1      -0.018   1.465   0.010  0.00  0.00    +0.395 N 
ATOM     19  H   UNL     1      -0.454   2.021   0.853  0.00  0.00    -0.079 HD
BRANCH  18  20
ATOM     20  C   UNL     1      -0.106   0.032   0.320  0.00  0.00    -0.035 C 
ATOM     21  C   UNL     1      -1.550  -0.342   0.721  0.00  0.00    -0.006 C 
ATOM     22  C   UNL     1      -1.512  -0.194   2.259  0.00  0.00    +0.034 C 
ATOM     23  C   UNL     1      -0.067  -0.427   2.645  0.00  0.00    -0.046 A 
ATOM     24  C   UNL     1       0.741  -0.297   1.531  0.00  0.00    -0.058 A 
ATOM     25  C   UNL     1       2.110  -0.469   1.648  0.00  0.00    +0.002 A 
ATOM     26  C   UNL     1       2.670  -0.770   2.875  0.00  0.00    +0.000 A 
ATOM     27  C   UNL     1       1.862  -0.899   3.989  0.00  0.00    +0.000 A 
ATOM     28  C   UNL     1       0.496  -0.728   3.874  0.00  0.00    +0.004 A 
ENDBRANCH  18  20
ENDBRANCH  16  18
ENDBRANCH   1  16
BRANCH  13  29
ATOM     29  C   UNL     1       1.844   6.670   2.544  0.00  0.00    +0.167 C 
BRANCH  29  30
ATOM     30  C   UNL     1       3.302   6.605   2.922  0.00  0.00    +0.014 A 
ATOM     31  C   UNL     1       3.861   5.405   3.316  0.00  0.00    +0.009 A 
ATOM     32  C   UNL     1       5.199   5.344   3.659  0.00  0.00    +0.001 A 
ATOM     33  C   UNL     1       5.978   6.486   3.618  0.00  0.00    +0.004 A 
ATOM     34  C   UNL     1       5.422   7.689   3.230  0.00  0.00    +0.046 A 
ATOM     35  C   UNL     1       4.081   7.752   2.881  0.00  0.00    +0.125 A 
BRANCH  35  36
ATOM     36  O   UNL     1       3.532   8.934   2.498  0.00  0.00    -0.495 OA
ATOM     37  C   UNL     1       4.394  10.074   2.479  0.00  0.00    +0.277 C 
ENDBRANCH  35  36
ENDBRANCH  29  30
ENDBRANCH  13  29
TORSDOF 6
