REMARK  Name = ZINC41584600
REMARK  10 active torsions:
REMARK  status: ('A' for Active; 'I' for Inactive)
REMARK    1  A    between atoms: C_1  and  C_2
REMARK    2  A    between atoms: C_2  and  N_3
REMARK    3  A    between atoms: C_5  and  C_14
REMARK    4  A    between atoms: C_10  and  O_12
REMARK    5  A    between atoms: O_12  and  C_13
REMARK    6  A    between atoms: C_19  and  C_40
REMARK    7  A    between atoms: C_21  and  O_39
REMARK    8  A    between atoms: C_22  and  C_25
REMARK    9  A    between atoms: C_25  and  N_26
REMARK   10  A    between atoms: C_31  and  C_33
REMARK                            x       y       z     vdW  Elec       q    Type
REMARK                         _______ _______ _______ _____ _____    ______ ____
ROOT
ATOM      1  C   UNL     1      -3.728  -1.901   1.455  0.00  0.00    +0.060 C 
ATOM      2  C   UNL     1      -3.499  -1.862   2.798  0.00  0.00    +0.176 C 
ATOM      3  C   UNL     1      -4.367  -2.365   3.803  0.00  0.00    +0.232 C 
ATOM      4  O   UNL     1      -5.447  -2.909   3.644  0.00  0.00    -0.283 OA
ATOM      5  C   UNL     1      -3.682  -2.090   5.078  0.00  0.00    +0.071 A 
ATOM      6  C   UNL     1      -4.003  -2.333   6.413  0.00  0.00    -0.033 A 
ATOM      7  C   UNL     1      -3.141  -1.950   7.401  0.00  0.00    +0.050 A 
ATOM      8  C   UNL     1      -1.942  -1.318   7.079  0.00  0.00    +0.122 A 
ATOM      9  C   UNL     1      -1.610  -1.070   5.758  0.00  0.00    +0.020 A 
ATOM     10  C   UNL     1      -2.476  -1.453   4.742  0.00  0.00    +0.145 A 
ATOM     11  O   UNL     1      -2.402  -1.342   3.398  0.00  0.00    -0.451 OA
ATOM     12  C   UNL     1      -5.299  -3.017   6.765  0.00  0.00    +0.045 C 
ENDROOT
BRANCH   1  15
ATOM     13  N   UNL     1      -1.018  -0.166  -0.266  0.00  0.00    -0.346 N 
ATOM     14  C   UNL     1      -1.591  -0.666   0.856  0.00  0.00    +0.094 A 
ATOM     15  C   UNL     1      -2.799  -1.248   0.536  0.00  0.00    +0.004 A 
ATOM     16  C   UNL     1      -2.966  -1.080  -0.921  0.00  0.00    +0.011 A 
ATOM     17  C   UNL     1      -1.825  -0.393  -1.364  0.00  0.00    +0.050 A 
ATOM     18  C   UNL     1      -1.697  -0.081  -2.714  0.00  0.00    +0.030 A 
ATOM     19  C   UNL     1      -2.686  -0.442  -3.602  0.00  0.00    +0.047 A 
ATOM     20  C   UNL     1      -3.819  -1.120  -3.162  0.00  0.00    +0.121 A 
ATOM     21  C   UNL     1      -3.958  -1.446  -1.826  0.00  0.00    +0.056 A 
BRANCH  13  23
ATOM     22  C   UNL     1       0.044   2.037  -0.304  0.00  0.00    +0.027 C 
ATOM     23  C   UNL     1       0.274   0.524  -0.307  0.00  0.00    +0.118 C 
ENDBRANCH  13  23
BRANCH  20  24
ATOM     24  O   UNL     1      -4.787  -1.470  -4.050  0.00  0.00    -0.495 OA
ATOM     25  C   UNL     1      -4.575  -1.110  -5.417  0.00  0.00    +0.277 C 
ENDBRANCH  20  24
ENDBRANCH   1  15
BRANCH   8  26
ATOM     26  O   UNL     1      -1.093  -0.941   8.069  0.00  0.00    -0.506 OA
ATOM     27  H   UNL     1      -0.445  -1.617   8.310  0.00  0.00    +0.292 HD
ENDBRANCH   8  26
BRANCH   9  28
ATOM     28  C   UNL     1      -0.311  -0.384   5.422  0.00  0.00    -0.035 C 
BRANCH  28  29
ATOM     29  N   UNL     1      -0.481   1.071   5.535  0.00  0.00    +0.387 N 
ATOM     30  C   UNL     1      -1.465   1.524   4.544  0.00  0.00    -0.078 C 
ATOM     31  C   UNL     1      -1.707   3.026   4.710  0.00  0.00    -0.019 C 
ATOM     32  C   UNL     1      -0.388   3.776   4.503  0.00  0.00    -0.003 C 
ATOM     33  C   UNL     1       0.652   3.243   5.493  0.00  0.00    -0.011 C 
ATOM     34  C   UNL     1       0.807   1.733   5.298  0.00  0.00    -0.036 C 
ATOM     35  H   UNL     1      -0.810   1.299   6.461  0.00  0.00    -0.080 HD
BRANCH  34  36
ATOM     36  C   UNL     1       1.830   1.203   6.269  0.00  0.00    -0.043 A 
ATOM     37  C   UNL     1       3.089   0.827   5.828  0.00  0.00    +0.005 A 
ATOM     38  C   UNL     1       3.998   0.345   6.757  0.00  0.00    +0.020 A 
ATOM     39  C   UNL     1       3.621   0.257   8.084  0.00  0.00    +0.111 A 
ATOM     40  N   UNL     1       2.414   0.623   8.468  0.00  0.00    -0.263 NA
ATOM     41  C   UNL     1       1.526   1.092   7.613  0.00  0.00    +0.112 A 
ENDBRANCH  34  36
ENDBRANCH  28  29
ENDBRANCH   9  28
TORSDOF 7
