REMARK  Name = ZINC08833341
REMARK  9 active torsions:
REMARK  status: ('A' for Active; 'I' for Inactive)
REMARK    1  A    between atoms: C_1  and  C_2
REMARK    2  A    between atoms: C_4  and  C_34
REMARK    3  A    between atoms: C_9  and  C_11
REMARK    4  A    between atoms: C_14  and  N_18
REMARK    5  A    between atoms: C_16  and  O_17
REMARK    6  A    between atoms: N_18  and  C_19
REMARK    7  A    between atoms: C_19  and  N_21
REMARK    8  A    between atoms: C_22  and  C_24
REMARK    9  A    between atoms: C_25  and  C_26
REMARK                            x       y       z     vdW  Elec       q    Type
REMARK                         _______ _______ _______ _____ _____    ______ ____
ROOT
ATOM      1  C   UNL     1      -6.104   2.738  -0.118  0.00  0.00    +0.078 A 
ATOM      2  C   UNL     1      -4.947   3.521  -0.146  0.00  0.00    +0.018 A 
ATOM      3  C   UNL     1      -3.709   2.921  -0.100  0.00  0.00    +0.024 A 
ATOM      4  C   UNL     1      -3.604   1.535  -0.027  0.00  0.00    +0.036 A 
ATOM      5  C   UNL     1      -4.748   0.748  -0.005  0.00  0.00    +0.069 A 
ATOM      6  C   UNL     1      -5.997   1.342  -0.044  0.00  0.00    +0.131 A 
ENDROOT
BRANCH   1  15
ATOM      7  C   UNL     1     -13.251   4.565  -0.293  0.00  0.00    +0.044 C 
ATOM      8  C   UNL     1     -11.748   4.678  -0.282  0.00  0.00    -0.048 A 
ATOM      9  C   UNL     1     -11.150   5.928  -0.342  0.00  0.00    +0.010 A 
ATOM     10  C   UNL     1      -9.776   6.048  -0.332  0.00  0.00    -0.006 A 
ATOM     11  C   UNL     1      -8.983   4.913  -0.264  0.00  0.00    +0.159 A 
ATOM     12  C   UNL     1      -9.584   3.645  -0.204  0.00  0.00    +0.110 A 
ATOM     13  C   UNL     1     -10.977   3.539  -0.215  0.00  0.00    +0.035 A 
ATOM     14  N   UNL     1      -8.575   2.737  -0.146  0.00  0.00    -0.209 NA
ATOM     15  C   UNL     1      -7.432   3.377  -0.167  0.00  0.00    +0.232 A 
ATOM     16  O   UNL     1      -7.648   4.705  -0.233  0.00  0.00    -0.435 OA
ATOM     17  C   UNL     1      -9.137   7.411  -0.396  0.00  0.00    +0.047 C 
ENDBRANCH   1  15
BRANCH   6  18
ATOM     18  O   UNL     1      -7.117   0.574  -0.017  0.00  0.00    -0.506 OA
ATOM     19  H   UNL     1      -7.431   0.306  -0.891  0.00  0.00    +0.292 HD
ENDBRANCH   6  18
BRANCH   4  20
ATOM     20  N   UNL     1      -2.345   0.934   0.018  0.00  0.00    -0.296 N 
ATOM     21  H   UNL     1      -1.632   1.259  -0.553  0.00  0.00    +0.154 HD
BRANCH  20  22
ATOM     22  C   UNL     1      -2.121  -0.098   0.856  0.00  0.00    +0.141 C 
ATOM     23  S   UNL     1      -3.334  -0.580   1.963  0.00  0.00    -0.018 S 
BRANCH  22  24
ATOM     24  N   UNL     1      -0.942  -0.750   0.821  0.00  0.00    -0.264 N 
ATOM     25  C   UNL     1      -0.716  -1.779   1.662  0.00  0.00    +0.242 C 
ATOM     26  O   UNL     1      -1.578  -2.122   2.449  0.00  0.00    -0.270 OA
ATOM     27  H   UNL     1      -0.255  -0.477   0.193  0.00  0.00    +0.157 HD
BRANCH  25  28
ATOM     28  C   UNL     1       0.565  -2.483   1.628  0.00  0.00    +0.068 C 
ATOM     29  C   UNL     1       0.792  -3.513   2.470  0.00  0.00    +0.014 C 
BRANCH  29  30
ATOM     30  C   UNL     1       2.080  -4.221   2.436  0.00  0.00    -0.006 A 
ATOM     31  C   UNL     1       3.072  -3.833   1.528  0.00  0.00    +0.011 A 
ATOM     32  C   UNL     1       4.279  -4.497   1.506  0.00  0.00    +0.020 A 
ATOM     33  C   UNL     1       4.508  -5.555   2.372  0.00  0.00    +0.042 A 
ATOM     34  C   UNL     1       3.531  -5.949   3.270  0.00  0.00    +0.040 A 
ATOM     35  C   UNL     1       2.319  -5.289   3.308  0.00  0.00    +0.049 A 
ATOM     36 CL   UNL     1       1.094  -5.784   4.435  0.00  0.00    -0.083 Cl
ATOM     37 CL   UNL     1       6.030  -6.390   2.330  0.00  0.00    -0.083 Cl
ENDBRANCH  29  30
ENDBRANCH  25  28
ENDBRANCH  22  24
ENDBRANCH  20  22
ENDBRANCH   4  20
TORSDOF 7
