REMARK  Name = ZINC39674014
REMARK  9 active torsions:
REMARK  status: ('A' for Active; 'I' for Inactive)
REMARK    1  A    between atoms: C_1  and  C_2
REMARK    2  A    between atoms: C_2  and  O_3
REMARK    3  A    between atoms: O_3  and  C_4
REMARK    4  A    between atoms: C_9  and  C_10
REMARK    5  A    between atoms: C_14  and  C_23
REMARK    6  A    between atoms: N_25  and  C_26
REMARK    7  A    between atoms: C_26  and  C_27
REMARK    8  A    between atoms: C_27  and  C_28
REMARK    9  A    between atoms: C_36  and  C_38
REMARK                            x       y       z     vdW  Elec       q    Type
REMARK                         _______ _______ _______ _____ _____    ______ ____
ROOT
ATOM      1  C   UNL     1       1.862  -1.591  -3.416  0.00  0.00    +0.250 C 
ATOM      2  O   UNL     1       1.729  -0.393  -3.253  0.00  0.00    -0.270 OA
ATOM      3  N   UNL     1       2.617  -2.053  -4.432  0.00  0.00    -0.296 N 
ATOM      4  C   UNL     1       2.809  -3.461  -4.853  0.00  0.00    +0.121 C 
ATOM      5  C   UNL     1       2.821  -3.408  -6.397  0.00  0.00    +0.100 C 
ATOM      6  C   UNL     1       3.238  -1.967  -6.738  0.00  0.00    -0.004 C 
ATOM      7  C   UNL     1       3.436  -1.267  -5.386  0.00  0.00    +0.115 C 
ATOM      8  C   UNL     1       2.135  -1.271  -7.529  0.00  0.00    -0.010 C 
ATOM      9  C   UNL     1       2.596   0.140  -7.905  0.00  0.00    -0.082 C 
ATOM     10  N   UNL     1       3.823   0.059  -8.706  0.00  0.00    +0.379 N 
ATOM     11  C   UNL     1       4.905  -0.528  -7.906  0.00  0.00    -0.082 C 
ATOM     12  C   UNL     1       4.542  -1.968  -7.530  0.00  0.00    -0.010 C 
ATOM     13  H   UNL     1       3.656  -0.517  -9.517  0.00  0.00    -0.086 HD
ATOM     14  H   UNL     1       4.091   0.985  -9.004  0.00  0.00    -0.086 HD
ENDROOT
BRANCH   1  20
ATOM     15  C   UNL     1      -0.052  -2.225  -1.949  0.00  0.00    +0.133 A 
ATOM     16  C   UNL     1      -0.670  -3.126  -1.094  0.00  0.00    +0.046 A 
ATOM     17  C   UNL     1      -0.053  -4.321  -0.784  0.00  0.00    +0.004 A 
ATOM     18  C   UNL     1       1.185  -4.631  -1.322  0.00  0.00    +0.001 A 
ATOM     19  C   UNL     1       1.813  -3.748  -2.173  0.00  0.00    +0.017 A 
ATOM     20  C   UNL     1       1.198  -2.538  -2.500  0.00  0.00    +0.078 A 
BRANCH  15  21
ATOM     21  O   UNL     1      -0.657  -1.050  -2.254  0.00  0.00    -0.491 OA
BRANCH  21  23
ATOM     22  C   UNL     1      -2.452   0.562  -2.113  0.00  0.00    +0.048 C 
ATOM     23  C   UNL     1      -1.930  -0.801  -1.654  0.00  0.00    +0.226 C 
ENDBRANCH  21  23
ENDBRANCH  15  21
ENDBRANCH   1  20
BRANCH   5  24
ATOM     24  C   UNL     1       3.822  -4.391  -6.948  0.00  0.00    +0.218 C 
ATOM     25  O   UNL     1       4.821  -4.659  -6.315  0.00  0.00    -0.275 OA
ATOM     26  N   UNL     1       3.607  -4.972  -8.145  0.00  0.00    -0.315 N 
ATOM     27  H   UNL     1       2.808  -4.757  -8.652  0.00  0.00    +0.149 HD
BRANCH  26  28
ATOM     28  C   UNL     1       4.580  -5.927  -8.681  0.00  0.00    +0.109 C 
BRANCH  28  29
ATOM     29  C   UNL     1       4.101  -6.434 -10.042  0.00  0.00    +0.056 C 
BRANCH  29  30
ATOM     30  C   UNL     1       5.101  -7.417 -10.593  0.00  0.00    -0.018 A 
ATOM     31  C   UNL     1       5.107  -8.867 -10.381  0.00  0.00    +0.003 A 
ATOM     32  C   UNL     1       4.284  -9.748  -9.677  0.00  0.00    +0.010 A 
ATOM     33  C   UNL     1       4.567 -11.085  -9.675  0.00  0.00    +0.001 A 
ATOM     34  C   UNL     1       5.665 -11.574 -10.367  0.00  0.00    +0.002 A 
ATOM     35  C   UNL     1       6.491 -10.723 -11.069  0.00  0.00    +0.026 A 
ATOM     36  C   UNL     1       6.222  -9.358 -11.085  0.00  0.00    +0.047 A 
ATOM     37  N   UNL     1       6.838  -8.277 -11.675  0.00  0.00    -0.358 N 
ATOM     38  C   UNL     1       6.154  -7.131 -11.376  0.00  0.00    +0.017 A 
ATOM     39  H   UNL     1       7.637  -8.322 -12.224  0.00  0.00    +0.166 HD
ATOM     40  C   UNL     1       6.528  -5.751 -11.852  0.00  0.00    +0.063 C 
ENDBRANCH  29  30
ENDBRANCH  28  29
ENDBRANCH  26  28
ENDBRANCH   5  24
TORSDOF 7
