REMARK  Name = ZINC43425652
REMARK  3 active torsions:
REMARK  status: ('A' for Active; 'I' for Inactive)
REMARK    1  A    between atoms: C_1  and  C_2
REMARK    2  A    between atoms: C_4  and  C_23
REMARK    3  A    between atoms: C_7  and  C_8
REMARK                            x       y       z     vdW  Elec       q    Type
REMARK                         _______ _______ _______ _____ _____    ______ ____
ROOT
ATOM      1  C   UNL     1      -2.471  -0.451  -1.168  0.00  0.00    +0.044 C 
ATOM      2  C   UNL     1      -1.181  -0.945  -0.566  0.00  0.00    -0.035 A 
ATOM      3  C   UNL     1       0.020  -0.786  -1.234  0.00  0.00    +0.027 A 
ATOM      4  C   UNL     1       1.188  -1.250  -0.656  0.00  0.00    +0.041 A 
ATOM      5  N   UNL     1       1.179  -1.843   0.522  0.00  0.00    -0.236 NA
ATOM      6  C   UNL     1       0.058  -2.021   1.204  0.00  0.00    +0.133 A 
ATOM      7  C   UNL     1      -1.168  -1.571   0.685  0.00  0.00    +0.055 A 
ATOM      8  N   UNL     1       0.095  -2.647   2.436  0.00  0.00    -0.307 N 
ATOM      9  C   UNL     1       0.151  -1.873   3.689  0.00  0.00    +0.135 C 
ATOM     10  C   UNL     1       1.290  -2.418   4.557  0.00  0.00    +0.179 C 
ATOM     11  O   UNL     1       1.167  -3.839   4.683  0.00  0.00    -0.373 OA
ATOM     12  C   UNL     1       1.256  -4.530   3.439  0.00  0.00    +0.139 C 
ATOM     13  C   UNL     1       0.073  -4.111   2.550  0.00  0.00    +0.104 C 
ATOM     14  C   UNL     1       0.224  -4.767   1.180  0.00  0.00    +0.025 C 
ATOM     15  C   UNL     1       0.194  -6.289   1.353  0.00  0.00    +0.002 C 
ATOM     16  C   UNL     1       1.333  -6.732   2.272  0.00  0.00    +0.003 C 
ATOM     17  C   UNL     1       1.198  -6.043   3.637  0.00  0.00    +0.033 C 
ATOM     18  C   UNL     1       2.495  -1.076  -1.387  0.00  0.00    +0.065 C 
ENDROOT
BRANCH   7  19
ATOM     19  C   UNL     1      -2.420  -1.761   1.443  0.00  0.00    +0.098 C 
ATOM     20  N   UNL     1      -3.089  -0.703   1.900  0.00  0.00    -0.387 N 
ATOM     21  N   UNL     1      -2.881  -2.991   1.671  0.00  0.00    -0.344 N 
ATOM     22  H   UNL     1      -3.912  -0.828   2.399  0.00  0.00    +0.157 HD
ATOM     23  H   UNL     1      -2.394  -3.761   1.339  0.00  0.00    +0.144 HD
ATOM     24  H   UNL     1      -3.704  -3.115   2.170  0.00  0.00    +0.144 HD
ATOM     25  H   UNL     1      -2.754   0.192   1.734  0.00  0.00    +0.157 HD
ENDBRANCH   7  19
TORSDOF 1
