REMARK  Name = ZINC59170541
REMARK  7 active torsions:
REMARK  status: ('A' for Active; 'I' for Inactive)
REMARK    1  A    between atoms: C_1  and  C_2
REMARK    2  A    between atoms: C_5  and  S_8
REMARK    3  A    between atoms: S_8  and  N_11
REMARK    4  A    between atoms: N_11  and  N_12
REMARK    5  A    between atoms: C_14  and  C_24
REMARK    6  A    between atoms: C_19  and  O_23
REMARK    7  A    between atoms: N_26  and  C_27
REMARK                            x       y       z     vdW  Elec       q    Type
REMARK                         _______ _______ _______ _____ _____    ______ ____
ROOT
ATOM      1  N   UNL     1       2.975  -5.282   1.254  0.00  0.00    -0.260 N 
ATOM      2  C   UNL     1       4.240  -5.484   1.015  0.00  0.00    +0.225 A 
ATOM      3  C   UNL     1       4.695  -6.021  -0.288  0.00  0.00    +0.099 A 
ATOM      4  C   UNL     1       5.971  -5.699  -0.690  0.00  0.00    +0.030 A 
ATOM      5  C   UNL     1       6.771  -4.854   0.201  0.00  0.00    +0.018 A 
ATOM      6  C   UNL     1       7.960  -4.267  -0.249  0.00  0.00    +0.015 A 
ATOM      7  C   UNL     1       8.691  -3.480   0.594  0.00  0.00    +0.046 A 
ATOM      8  C   UNL     1       8.262  -3.256   1.900  0.00  0.00    +0.120 A 
ATOM      9  C   UNL     1       7.086  -3.831   2.362  0.00  0.00    +0.092 A 
ATOM     10  C   UNL     1       6.336  -4.632   1.521  0.00  0.00    +0.141 A 
ATOM     11  O   UNL     1       5.188  -5.202   1.956  0.00  0.00    -0.437 OA
ATOM     12  H   UNL     1       2.676  -5.089   2.156  0.00  0.00    +0.189 HD
ENDROOT
BRANCH   3  13
ATOM     13  C   UNL     1       3.820  -6.863  -1.118  0.00  0.00    +0.253 C 
ATOM     14  O   UNL     1       3.647  -8.032  -0.827  0.00  0.00    -0.270 OA
ATOM     15  N   UNL     1       3.211  -6.341  -2.200  0.00  0.00    -0.281 N 
ATOM     16  H   UNL     1       3.288  -5.393  -2.390  0.00  0.00    +0.155 HD
BRANCH  15  17
ATOM     17  C   UNL     1       2.467  -7.166  -3.050  0.00  0.00    +0.034 A 
ATOM     18  C   UNL     1       1.835  -8.295  -2.546  0.00  0.00    +0.025 A 
ATOM     19  C   UNL     1       1.101  -9.108  -3.388  0.00  0.00    +0.022 A 
ATOM     20  C   UNL     1       0.995  -8.798  -4.732  0.00  0.00    +0.041 A 
ATOM     21  C   UNL     1       1.625  -7.674  -5.238  0.00  0.00    +0.022 A 
ATOM     22  C   UNL     1       2.355  -6.854  -4.399  0.00  0.00    +0.025 A 
ATOM     23 CL   UNL     1       0.072  -9.822  -5.787  0.00  0.00    -0.084 Cl
ENDBRANCH  15  17
ENDBRANCH   3  13
BRANCH   1  24
ATOM     24  N   UNL     1       2.046  -5.345   0.207  0.00  0.00    -0.157 N 
ATOM     25  H   UNL     1       2.351  -5.331  -0.714  0.00  0.00    +0.194 HD
BRANCH  24  26
ATOM     26  S   UNL     1       0.427  -5.441   0.542  0.00  0.00    +0.085 S 
ATOM     27  O   UNL     1       0.258  -6.548   1.417  0.00  0.00    -0.149 OA
ATOM     28  O   UNL     1      -0.252  -5.343  -0.703  0.00  0.00    -0.149 OA
BRANCH  26  33
ATOM     29  C   UNL     1      -1.043  -0.512   3.696  0.00  0.00    +0.044 C 
ATOM     30  C   UNL     1      -0.676  -1.743   2.909  0.00  0.00    -0.050 A 
ATOM     31  C   UNL     1      -0.751  -1.728   1.528  0.00  0.00    +0.005 A 
ATOM     32  C   UNL     1      -0.414  -2.858   0.806  0.00  0.00    +0.029 A 
ATOM     33  C   UNL     1      -0.002  -4.001   1.463  0.00  0.00    +0.110 A 
ATOM     34  C   UNL     1       0.075  -4.016   2.843  0.00  0.00    +0.029 A 
ATOM     35  C   UNL     1      -0.258  -2.885   3.566  0.00  0.00    +0.005 A 
ENDBRANCH  26  33
ENDBRANCH  24  26
ENDBRANCH   1  24
BRANCH   8  36
ATOM     36  O   UNL     1       8.999  -2.470   2.726  0.00  0.00    -0.507 OA
ATOM     37  H   UNL     1       8.759  -1.534   2.695  0.00  0.00    +0.292 HD
ENDBRANCH   8  36
TORSDOF 6
