REMARK  Name = ZINC36005228
REMARK  12 active torsions:
REMARK  status: ('A' for Active; 'I' for Inactive)
REMARK    1  A    between atoms: C_1  and  C_2
REMARK    2  A    between atoms: C_2  and  O_3
REMARK    3  A    between atoms: O_3  and  C_4
REMARK    4  A    between atoms: C_4  and  C_6
REMARK    5  A    between atoms: C_7  and  C_24
REMARK    6  A    between atoms: N_8  and  C_23
REMARK    7  A    between atoms: C_12  and  C_14
REMARK    8  A    between atoms: C_17  and  C_20
REMARK    9  A    between atoms: C_20  and  C_21
REMARK   10  A    between atoms: C_20  and  C_22
REMARK   11  A    between atoms: C_24  and  N_25
REMARK   12  A    between atoms: C_31  and  C_33
REMARK                            x       y       z     vdW  Elec       q    Type
REMARK                         _______ _______ _______ _____ _____    ______ ____
ROOT
ATOM      1  C   UNL     1      -1.934  -2.118  -0.013  0.00  0.00    +0.080 C 
ATOM      2  C   UNL     1      -2.275  -3.406  -0.231  0.00  0.00    +0.041 C 
ATOM      3  N   UNL     1      -3.581  -3.772  -0.395  0.00  0.00    -0.260 N 
ATOM      4  C   UNL     1      -4.604  -2.908  -0.355  0.00  0.00    +0.307 C 
ATOM      5  O   UNL     1      -5.734  -3.328  -0.513  0.00  0.00    -0.252 OA
ATOM      6  N   UNL     1      -4.422  -1.589  -0.146  0.00  0.00    -0.288 N 
ATOM      7  C   UNL     1      -3.049  -1.094   0.049  0.00  0.00    +0.144 C 
ATOM      8  C   UNL     1      -3.879  -5.187  -0.628  0.00  0.00    +0.139 C 
ATOM      9  H   UNL     1      -5.177  -0.982  -0.122  0.00  0.00    +0.151 HD
ENDROOT
BRANCH   7  10
ATOM     10  C   UNL     1      -2.982  -0.415   1.393  0.00  0.00    -0.022 A 
ATOM     11  C   UNL     1      -3.507  -1.038   2.509  0.00  0.00    +0.006 A 
ATOM     12  C   UNL     1      -3.445  -0.416   3.742  0.00  0.00    +0.004 A 
ATOM     13  C   UNL     1      -2.859   0.831   3.858  0.00  0.00    -0.045 A 
ATOM     14  C   UNL     1      -2.333   1.454   2.741  0.00  0.00    +0.004 A 
ATOM     15  C   UNL     1      -2.391   0.829   1.510  0.00  0.00    +0.006 A 
BRANCH  13  16
ATOM     16  C   UNL     1      -2.793   1.510   5.201  0.00  0.00    +0.013 C 
ATOM     17  C   UNL     1      -1.331   1.763   5.574  0.00  0.00    +0.012 C 
ATOM     18  C   UNL     1      -3.540   2.844   5.136  0.00  0.00    +0.012 C 
ENDBRANCH  13  16
ENDBRANCH   7  10
BRANCH   1  19
ATOM     19  C   UNL     1      -0.582  -1.739   0.158  0.00  0.00    +0.339 C 
ATOM     20  O   UNL     1      -0.159  -1.480   1.269  0.00  0.00    -0.245 OA
BRANCH  19  21
ATOM     21  O   UNL     1       0.238  -1.664  -0.911  0.00  0.00    -0.462 OA
BRANCH  21  23
ATOM     22  C   UNL     1       2.361  -1.246  -1.986  0.00  0.00    +0.048 C 
ATOM     23  C   UNL     1       1.591  -1.274  -0.665  0.00  0.00    +0.229 C 
ENDBRANCH  21  23
ENDBRANCH  19  21
ENDBRANCH   1  19
BRANCH   2  24
ATOM     24  C   UNL     1      -1.198  -4.458  -0.294  0.00  0.00    +0.136 C 
BRANCH  24  25
ATOM     25  N   UNL     1      -1.356  -5.390   0.831  0.00  0.00    -0.294 NA
ATOM     26  C   UNL     1      -1.118  -4.713   2.112  0.00  0.00    +0.104 C 
ATOM     27  C   UNL     1      -1.468  -5.664   3.261  0.00  0.00    +0.123 C 
ATOM     28  N   UNL     1      -0.723  -6.918   3.073  0.00  0.00    -0.295 N 
ATOM     29  C   UNL     1      -0.802  -7.585   1.764  0.00  0.00    +0.123 C 
ATOM     30  C   UNL     1      -0.479  -6.558   0.674  0.00  0.00    +0.104 C 
ATOM     31  C   UNL     1       0.013  -7.442   4.073  0.00  0.00    +0.247 C 
ATOM     32  O   UNL     1       0.701  -8.425   3.871  0.00  0.00    -0.270 OA
BRANCH  31  33
ATOM     33  C   UNL     1      -0.015  -6.823   5.414  0.00  0.00    +0.037 A 
ATOM     34  C   UNL     1      -1.182  -6.214   5.880  0.00  0.00    +0.016 A 
ATOM     35  C   UNL     1      -1.203  -5.638   7.132  0.00  0.00    +0.039 A 
ATOM     36  C   UNL     1      -0.068  -5.662   7.928  0.00  0.00    +0.123 A 
ATOM     37  C   UNL     1       1.094  -6.266   7.470  0.00  0.00    +0.039 A 
ATOM     38  C   UNL     1       1.124  -6.850   6.222  0.00  0.00    +0.016 A 
ATOM     39  F   UNL     1      -0.093  -5.095   9.154  0.00  0.00    -0.205 F 
ENDBRANCH  31  33
ENDBRANCH  24  25
ENDBRANCH   2  24
TORSDOF 8
