REMARK  Name = ZINC34756780
REMARK  9 active torsions:
REMARK  status: ('A' for Active; 'I' for Inactive)
REMARK    1  A    between atoms: C_1  and  C_2
REMARK    2  A    between atoms: C_7  and  N_8
REMARK    3  A    between atoms: C_9  and  C_11
REMARK    4  A    between atoms: C_11  and  S_12
REMARK    5  A    between atoms: S_12  and  C_13
REMARK    6  A    between atoms: N_29  and  C_32
REMARK    7  A    between atoms: C_32  and  C_33
REMARK    8  A    between atoms: C_33  and  C_34
REMARK    9  A    between atoms: C_33  and  C_35
REMARK                            x       y       z     vdW  Elec       q    Type
REMARK                         _______ _______ _______ _____ _____    ______ ____
ROOT
ATOM      1  C   UNL     1      -0.162  -0.095   7.713  0.00  0.00    +0.191 A 
ATOM      2  N   UNL     1      -0.250  -0.666   8.909  0.00  0.00    -0.206 NA
ATOM      3  C   UNL     1      -0.560   0.021   9.995  0.00  0.00    +0.134 A 
ATOM      4  C   UNL     1      -0.809   1.418   9.886  0.00  0.00    +0.051 A 
ATOM      5  C   UNL     1      -1.167   2.369  10.942  0.00  0.00    -0.025 A 
ATOM      6  C   UNL     1      -1.351   3.652  10.573  0.00  0.00    -0.004 A 
ATOM      7  S   UNL     1      -1.064   3.675   8.823  0.00  0.00    -0.073 S 
ATOM      8  C   UNL     1      -0.698   1.956   8.589  0.00  0.00    +0.115 A 
ATOM      9  N   UNL     1      -0.378   1.203   7.554  0.00  0.00    -0.214 NA
ATOM     10  C   UNL     1      -1.720   4.806  11.454  0.00  0.00    +0.043 C 
ATOM     11  C   UNL     1      -2.225   4.251  12.794  0.00  0.00    +0.005 C 
ATOM     12  C   UNL     1      -1.239   3.188  13.287  0.00  0.00    +0.005 C 
ATOM     13  C   UNL     1      -1.329   1.946  12.400  0.00  0.00    +0.037 C 
ATOM     14  N   UNL     1      -0.641  -0.611  11.223  0.00  0.00    -0.318 N 
ATOM     15  C   UNL     1      -1.933  -1.081  11.747  0.00  0.00    +0.088 C 
ATOM     16  C   UNL     1      -1.778  -2.542  12.181  0.00  0.00    -0.060 C 
ATOM     17  N   UNL     1      -0.662  -2.654  13.129  0.00  0.00    +0.382 N 
ATOM     18  C   UNL     1       0.598  -2.304  12.462  0.00  0.00    -0.060 C 
ATOM     19  C   UNL     1       0.561  -0.837  12.039  0.00  0.00    +0.088 C 
ATOM     20  H   UNL     1      -0.816  -2.027  13.904  0.00  0.00    -0.082 HD
ENDROOT
BRANCH   1  21
ATOM     21  S   UNL     1       0.257  -1.080   6.314  0.00  0.00    -0.077 S 
BRANCH  21  22
ATOM     22  C   UNL     1       0.267   0.098   4.935  0.00  0.00    +0.173 C 
BRANCH  22  24
ATOM     23  N   UNL     1       0.683   0.055   2.497  0.00  0.00    -0.285 N 
ATOM     24  C   UNL     1       0.616  -0.624   3.659  0.00  0.00    +0.227 C 
ATOM     25  O   UNL     1       0.836  -1.817   3.678  0.00  0.00    -0.275 OA
ATOM     26  H   UNL     1       0.573   1.019   2.491  0.00  0.00    +0.155 HD
BRANCH  23  33
ATOM     27  C   UNL     1      -0.557   1.035   0.131  0.00  0.00    +0.045 C 
ATOM     28  C   UNL     1       0.327  -0.186   0.120  0.00  0.00    -0.029 A 
ATOM     29  C   UNL     1       0.560  -0.861  -1.062  0.00  0.00    +0.005 A 
ATOM     30  C   UNL     1       1.371  -1.981  -1.072  0.00  0.00    +0.000 A 
ATOM     31  C   UNL     1       1.952  -2.428   0.100  0.00  0.00    +0.002 A 
ATOM     32  C   UNL     1       1.723  -1.758   1.286  0.00  0.00    +0.023 A 
ATOM     33  C   UNL     1       0.913  -0.630   1.298  0.00  0.00    +0.036 A 
ENDBRANCH  23  33
ENDBRANCH  22  24
ENDBRANCH  21  22
ENDBRANCH   1  21
BRANCH  17  34
ATOM     34  C   UNL     1      -0.583  -4.033  13.629  0.00  0.00    -0.076 C 
BRANCH  34  35
ATOM     35  C   UNL     1       0.497  -4.123  14.708  0.00  0.00    -0.034 C 
ATOM     36  C   UNL     1       0.085  -3.279  15.915  0.00  0.00    +0.005 C 
ATOM     37  C   UNL     1       0.666  -5.582  15.140  0.00  0.00    +0.005 C 
ENDBRANCH  34  35
ENDBRANCH  17  34
TORSDOF 6
