REMARK  Name = ZINC35664588
REMARK  11 active torsions:
REMARK  status: ('A' for Active; 'I' for Inactive)
REMARK    1  A    between atoms: C_1  and  C_2
REMARK    2  A    between atoms: C_2  and  N_3
REMARK    3  A    between atoms: N_10  and  C_13
REMARK    4  A    between atoms: C_13  and  C_14
REMARK    5  A    between atoms: C_15  and  C_32
REMARK    6  A    between atoms: C_16  and  C_24
REMARK    7  A    between atoms: N_21  and  C_22
REMARK    8  A    between atoms: C_22  and  C_23
REMARK    9  A    between atoms: C_32  and  O_34
REMARK   10  A    between atoms: O_34  and  C_35
REMARK   11  A    between atoms: C_35  and  C_36
REMARK                            x       y       z     vdW  Elec       q    Type
REMARK                         _______ _______ _______ _____ _____    ______ ____
ROOT
ATOM      1  C   UNL     1       4.955  -6.065  -2.234  0.00  0.00    +0.010 C 
ATOM      2  C   UNL     1       5.855  -6.641  -3.060  0.00  0.00    +0.077 C 
ATOM      3  C   UNL     1       5.657  -8.102  -3.410  0.00  0.00    +0.145 C 
ATOM      4  N   UNL     1       4.491  -8.778  -2.816  0.00  0.00    -0.288 N 
ATOM      5  C   UNL     1       3.680  -8.067  -2.008  0.00  0.00    +0.307 C 
ATOM      6  O   UNL     1       2.715  -8.617  -1.513  0.00  0.00    -0.252 OA
ATOM      7  N   UNL     1       3.905  -6.778  -1.728  0.00  0.00    -0.261 N 
ATOM      8  H   UNL     1       4.311  -9.713  -3.003  0.00  0.00    +0.151 HD
ENDROOT
BRANCH   3   9
ATOM      9  C   UNL     1       6.894  -8.852  -2.987  0.00  0.00    -0.003 A 
ATOM     10  C   UNL     1       6.965  -9.411  -1.725  0.00  0.00    +0.007 A 
ATOM     11  C   UNL     1       8.099 -10.100  -1.336  0.00  0.00    +0.002 A 
ATOM     12  C   UNL     1       9.163 -10.229  -2.209  0.00  0.00    +0.021 A 
ATOM     13  C   UNL     1       9.093  -9.671  -3.472  0.00  0.00    +0.060 A 
ATOM     14  C   UNL     1       7.955  -8.986  -3.864  0.00  0.00    +0.064 A 
ATOM     15 CL   UNL     1       7.862  -8.291  -5.452  0.00  0.00    -0.082 Cl
ATOM     16 CL   UNL     1      10.429  -9.833  -4.569  0.00  0.00    -0.082 Cl
ENDBRANCH   3   9
BRANCH   7  17
ATOM     17  C   UNL     1       2.971  -6.091  -0.833  0.00  0.00    +0.111 C 
ATOM     18  C   UNL     1       1.775  -5.579  -1.639  0.00  0.00    +0.025 C 
ENDBRANCH   7  17
BRANCH   2  19
ATOM     19  C   UNL     1       6.945  -5.905  -3.581  0.00  0.00    +0.339 C 
ATOM     20  O   UNL     1       8.066  -6.086  -3.144  0.00  0.00    -0.245 OA
BRANCH  19  21
ATOM     21  O   UNL     1       6.741  -5.002  -4.563  0.00  0.00    -0.462 OA
BRANCH  21  22
ATOM     22  C   UNL     1       7.899  -4.374  -5.117  0.00  0.00    +0.229 C 
ATOM     23  C   UNL     1       7.468  -3.303  -6.120  0.00  0.00    +0.048 C 
ENDBRANCH  21  22
ENDBRANCH  19  21
ENDBRANCH   2  19
BRANCH   1  24
ATOM     24  C   UNL     1       5.114  -4.614  -1.860  0.00  0.00    -0.026 C 
BRANCH  24  32
ATOM     25  N   UNL     1       9.911  -4.191   0.551  0.00  0.00    -0.300 N 
ATOM     26  C   UNL     1       9.043  -3.424   1.239  0.00  0.00    +0.302 C 
ATOM     27  O   UNL     1       9.400  -2.347   1.679  0.00  0.00    -0.253 OA
ATOM     28  N   UNL     1       7.780  -3.849   1.440  0.00  0.00    -0.287 N 
ATOM     29  C   UNL     1       6.816  -2.936   2.088  0.00  0.00    +0.107 C 
ATOM     30  C   UNL     1       5.440  -3.007   1.402  0.00  0.00    +0.000 C 
ATOM     31  C   UNL     1       5.628  -3.107  -0.096  0.00  0.00    -0.077 C 
ATOM     32  N   UNL     1       5.630  -4.515  -0.488  0.00  0.00    +0.384 N 
ATOM     33  C   UNL     1       6.893  -5.145  -0.441  0.00  0.00    -0.059 C 
ATOM     34  C   UNL     1       7.415  -5.182   1.009  0.00  0.00    +0.091 C 
ATOM     35  H   UNL     1       9.650  -5.080   0.263  0.00  0.00    +0.150 HD
ATOM     36  H   UNL     1       5.000  -5.016   0.121  0.00  0.00    -0.081 HD
BRANCH  25  38
ATOM     37  C   UNL     1      12.027  -4.745  -0.543  0.00  0.00    +0.024 C 
ATOM     38  C   UNL     1      11.250  -3.684   0.238  0.00  0.00    +0.102 C 
ENDBRANCH  25  38
ENDBRANCH  24  32
ENDBRANCH   1  24
TORSDOF 8
