REMARK  Name = ZINC54074735
REMARK  5 active torsions:
REMARK  status: ('A' for Active; 'I' for Inactive)
REMARK    1  A    between atoms: C_1  and  C_2
REMARK    2  A    between atoms: C_2  and  C_4
REMARK    3  A    between atoms: C_2  and  N_16
REMARK    4  A    between atoms: C_11  and  C_13
REMARK    5  A    between atoms: N_16  and  C_17
REMARK                            x       y       z     vdW  Elec       q    Type
REMARK                         _______ _______ _______ _____ _____    ______ ____
ROOT
ATOM      1  C   UNL     1       0.755  -0.339   1.344  0.00  0.00    +0.202 C 
ATOM      2  O   UNL     1       0.302  -1.120   2.154  0.00  0.00    -0.277 OA
ATOM      3  N   UNL     1       2.054   0.016   1.404  0.00  0.00    -0.291 N 
ATOM      4  C   UNL     1       2.584   1.067   0.524  0.00  0.00    +0.108 C 
ATOM      5  C   UNL     1       3.799   0.514  -0.228  0.00  0.00    +0.019 C 
ATOM      6  C   UNL     1       4.812  -0.032   0.781  0.00  0.00    +0.004 C 
ATOM      7  C   UNL     1       4.177  -1.174   1.578  0.00  0.00    +0.032 C 
ATOM      8  C   UNL     1       2.965  -0.636   2.354  0.00  0.00    +0.162 C 
ENDROOT
BRANCH   8   9
ATOM      9  C   UNL     1       2.253  -1.776   3.035  0.00  0.00    +0.231 C 
ATOM     10  O   UNL     1       1.830  -2.705   2.381  0.00  0.00    -0.274 OA
ATOM     11  N   UNL     1       2.087  -1.763   4.373  0.00  0.00    -0.328 N 
ATOM     12  H   UNL     1       2.425  -1.020   4.897  0.00  0.00    +0.145 HD
ATOM     13  H   UNL     1       1.628  -2.497   4.812  0.00  0.00    +0.145 HD
ENDBRANCH   8   9
BRANCH   1  15
ATOM     14  C   UNL     1      -0.304   1.739   0.501  0.00  0.00    -0.004 C 
ATOM     15  C   UNL     1      -0.135   0.236   0.272  0.00  0.00    +0.013 C 
BRANCH  15  16
ATOM     16  N   UNL     1      -1.449  -0.418   0.324  0.00  0.00    +0.385 N 
ATOM     17  C   UNL     1      -2.276   0.055  -0.794  0.00  0.00    -0.099 C 
ATOM     18  H   UNL     1      -1.330  -1.418   0.255  0.00  0.00    -0.085 HD
ATOM     19  H   UNL     1      -1.903  -0.193   1.196  0.00  0.00    -0.085 HD
ENDBRANCH  15  16
ENDBRANCH   1  15
TORSDOF 3
