REMARK  Name = ZINC45118556
REMARK  8 active torsions:
REMARK  status: ('A' for Active; 'I' for Inactive)
REMARK    1  A    between atoms: C_1  and  C_2
REMARK    2  A    between atoms: C_2  and  C_3
REMARK    3  A    between atoms: C_2  and  N_4
REMARK    4  A    between atoms: C_7  and  C_10
REMARK    5  A    between atoms: C_10  and  N_11
REMARK    6  A    between atoms: N_11  and  C_12
REMARK    7  A    between atoms: C_15  and  N_22
REMARK    8  A    between atoms: C_17  and  C_18
REMARK                            x       y       z     vdW  Elec       q    Type
REMARK                         _______ _______ _______ _____ _____    ______ ____
ROOT
ATOM      1  C   UNL     1      -5.632  -2.280  -3.908  0.00  0.00    +0.039 A 
ATOM      2  C   UNL     1      -6.481  -1.184  -3.824  0.00  0.00    +0.025 A 
ATOM      3  C   UNL     1      -7.718  -1.221  -4.437  0.00  0.00    +0.024 A 
ATOM      4  C   UNL     1      -8.113  -2.354  -5.137  0.00  0.00    +0.025 A 
ATOM      5  C   UNL     1      -7.263  -3.449  -5.221  0.00  0.00    +0.037 A 
ATOM      6  C   UNL     1      -6.024  -3.410  -4.613  0.00  0.00    +0.077 A 
ENDROOT
BRANCH   6   7
ATOM      7  C   UNL     1      -5.099  -4.596  -4.710  0.00  0.00    +0.419 C 
ATOM      8  F   UNL     1      -5.710  -5.603  -5.464  0.00  0.00    -0.166 F 
ATOM      9  F   UNL     1      -3.906  -4.208  -5.330  0.00  0.00    -0.166 F 
ATOM     10  F   UNL     1      -4.822  -5.077  -3.426  0.00  0.00    -0.166 F 
ENDBRANCH   6   7
BRANCH   4  11
ATOM     11  N   UNL     1      -9.367  -2.392  -5.757  0.00  0.00    -0.358 N 
ATOM     12  H   UNL     1      -9.961  -1.627  -5.698  0.00  0.00    +0.142 HD
ATOM     13  H   UNL     1      -9.643  -3.183  -6.246  0.00  0.00    +0.142 HD
ENDBRANCH   4  11
BRANCH   1  14
ATOM     14  N   UNL     1      -4.378  -2.242  -3.287  0.00  0.00    -0.343 N 
ATOM     15  H   UNL     1      -3.783  -3.006  -3.349  0.00  0.00    +0.146 HD
BRANCH  14  16
ATOM     16  C   UNL     1      -3.964  -1.049  -2.544  0.00  0.00    +0.103 C 
BRANCH  16  20
ATOM     17  N   UNL     1      -1.376  -0.512   0.012  0.00  0.00    +0.381 N 
ATOM     18  C   UNL     1      -1.361  -1.991  -0.017  0.00  0.00    -0.078 C 
ATOM     19  C   UNL     1      -2.580  -2.381  -0.889  0.00  0.00    -0.015 C 
ATOM     20  C   UNL     1      -2.563  -1.267  -1.969  0.00  0.00    -0.012 C 
ATOM     21  C   UNL     1      -2.093  -0.026  -1.181  0.00  0.00    -0.074 C 
ATOM     22  H   UNL     1      -1.849  -0.196   0.846  0.00  0.00    -0.081 HD
BRANCH  17  24
ATOM     23  C   UNL     1      -0.019   1.526   0.010  0.00  0.00    -0.014 C 
ATOM     24  C   UNL     1       0.002  -0.004   0.002  0.00  0.00    -0.075 C 
ATOM     25  C   UNL     1       0.742  -0.511   1.242  0.00  0.00    -0.014 C 
ENDBRANCH  17  24
ENDBRANCH  16  20
ENDBRANCH  14  16
ENDBRANCH   1  14
TORSDOF 6
