REMARK  Name = ZINC16828477
REMARK  13 active torsions:
REMARK  status: ('A' for Active; 'I' for Inactive)
REMARK    1  A    between atoms: C_1  and  C_2
REMARK    2  A    between atoms: C_2  and  O_3
REMARK    3  A    between atoms: O_3  and  C_4
REMARK    4  A    between atoms: C_7  and  C_10
REMARK    5  A    between atoms: C_13  and  S_22
REMARK    6  A    between atoms: N_14  and  C_15
REMARK    7  A    between atoms: S_22  and  C_23
REMARK    8  A    between atoms: C_23  and  C_25
REMARK    9  A    between atoms: C_23  and  C_26
REMARK   10  A    between atoms: N_31  and  C_32
REMARK   11  A    between atoms: C_32  and  C_33
REMARK   12  A    between atoms: C_32  and  C_34
REMARK   13  A    between atoms: C_32  and  C_35
REMARK                            x       y       z     vdW  Elec       q    Type
REMARK                         _______ _______ _______ _____ _____    ______ ____
ROOT
ATOM      1  C   UNL     1      -3.141   0.607   1.118  0.00  0.00    +0.169 A 
ATOM      2  N   UNL     1      -4.203  -0.019   0.667  0.00  0.00    -0.128 NA
ATOM      3  N   UNL     1      -4.207  -0.011  -0.617  0.00  0.00    -0.122 NA
ATOM      4  C   UNL     1      -3.150   0.626  -1.069  0.00  0.00    +0.197 A 
ATOM      5  N   UNL     1      -2.430   1.038   0.020  0.00  0.00    -0.267 N 
ENDROOT
BRANCH   5   6
ATOM      6  C   UNL     1      -1.224   1.754   0.017  0.00  0.00    +0.086 A 
ATOM      7  C   UNL     1      -0.013   1.076   0.008  0.00  0.00    +0.029 A 
ATOM      8  C   UNL     1       1.174   1.783   0.000  0.00  0.00    +0.002 A 
ATOM      9  C   UNL     1       1.157   3.166   0.007  0.00  0.00    +0.003 A 
ATOM     10  C   UNL     1      -0.046   3.846   0.022  0.00  0.00    +0.040 A 
ATOM     11  C   UNL     1      -1.238   3.144   0.030  0.00  0.00    +0.147 A 
ATOM     12  F   UNL     1      -2.415   3.808   0.044  0.00  0.00    -0.203 F 
ENDBRANCH   5   6
BRANCH   1  16
ATOM     13  C   UNL     1      -2.093   1.193   5.194  0.00  0.00    +0.121 A 
ATOM     14  C   UNL     1      -3.381   0.795   4.860  0.00  0.00    +0.046 A 
ATOM     15  C   UNL     1      -3.725   0.604   3.539  0.00  0.00    +0.015 A 
ATOM     16  C   UNL     1      -2.776   0.811   2.536  0.00  0.00    +0.020 A 
ATOM     17  C   UNL     1      -1.481   1.206   2.876  0.00  0.00    +0.015 A 
ATOM     18  C   UNL     1      -1.147   1.400   4.199  0.00  0.00    +0.046 A 
BRANCH  13  19
ATOM     19  O   UNL     1      -1.758   1.380   6.497  0.00  0.00    -0.492 OA
BRANCH  19  21
ATOM     20  C   UNL     1      -0.228   1.948   8.280  0.00  0.00    +0.048 C 
ATOM     21  C   UNL     1      -0.416   1.789   6.770  0.00  0.00    +0.225 C 
ENDBRANCH  19  21
ENDBRANCH  13  19
ENDBRANCH   1  16
BRANCH   4  22
ATOM     22  S   UNL     1      -2.735   0.896  -2.760  0.00  0.00    -0.073 S 
BRANCH  22  23
ATOM     23  C   UNL     1      -4.136   0.077  -3.562  0.00  0.00    +0.137 C 
ATOM     24  C   UNL     1      -5.426   0.827  -3.225  0.00  0.00    +0.029 C 
BRANCH  23  25
ATOM     25  C   UNL     1      -3.930   0.077  -5.055  0.00  0.00    +0.233 C 
ATOM     26  O   UNL     1      -3.160   0.865  -5.561  0.00  0.00    -0.274 OA
ATOM     27  N   UNL     1      -4.601  -0.800  -5.827  0.00  0.00    -0.239 N 
ATOM     28  C   UNL     1      -4.417  -0.801  -7.162  0.00  0.00    +0.306 C 
ATOM     29  O   UNL     1      -3.645  -0.011  -7.670  0.00  0.00    -0.252 OA
ATOM     30  N   UNL     1      -5.088  -1.678  -7.935  0.00  0.00    -0.294 N 
ATOM     31  H   UNL     1      -5.217  -1.431  -5.422  0.00  0.00    +0.159 HD
ATOM     32  H   UNL     1      -5.704  -2.308  -7.530  0.00  0.00    +0.151 HD
BRANCH  30  33
ATOM     33  C   UNL     1      -4.888  -1.678  -9.386  0.00  0.00    +0.028 C 
ATOM     34  C   UNL     1      -3.417  -1.962  -9.698  0.00  0.00    +0.031 C 
ATOM     35  C   UNL     1      -5.762  -2.762 -10.021  0.00  0.00    +0.031 C 
ATOM     36  C   UNL     1      -5.276  -0.312  -9.955  0.00  0.00    +0.031 C 
ENDBRANCH  30  33
ENDBRANCH  23  25
ENDBRANCH  22  23
ENDBRANCH   4  22
TORSDOF 8
