REMARK  Name = ZINC11788789
REMARK  10 active torsions:
REMARK  status: ('A' for Active; 'I' for Inactive)
REMARK    1  A    between atoms: C_1  and  C_2
REMARK    2  A    between atoms: C_2  and  C_4
REMARK    3  A    between atoms: C_2  and  N_65
REMARK    4  A    between atoms: C_4  and  C_5
REMARK    5  A    between atoms: C_8  and  O_11
REMARK    6  A    between atoms: C_17  and  S_23
REMARK    7  A    between atoms: C_18  and  C_19
REMARK    8  A    between atoms: C_19  and  O_21
REMARK    9  A    between atoms: O_21  and  C_22
REMARK   10  A    between atoms: S_23  and  N_26
REMARK                            x       y       z     vdW  Elec       q    Type
REMARK                         _______ _______ _______ _____ _____    ______ ____
ROOT
ATOM      1  C   UNL     1       1.911  -4.073  -3.196  0.00  0.00    -0.073 C 
ATOM      2  C   UNL     1       0.385  -3.944  -3.190  0.00  0.00    +0.018 C 
ATOM      3  C   UNL     1      -0.008  -3.007  -2.054  0.00  0.00    -0.025 A 
ATOM      4  C   UNL     1       0.873  -2.739  -1.060  0.00  0.00    -0.021 A 
ATOM      5  S   UNL     1       0.009  -1.630   0.013  0.00  0.00    -0.074 S 
ATOM      6  C   UNL     1      -1.494  -1.527  -0.845  0.00  0.00    +0.157 A 
ATOM      7  C   UNL     1      -1.294  -2.353  -1.931  0.00  0.00    +0.096 A 
ATOM      8  C   UNL     1       2.261  -3.283  -0.932  0.00  0.00    -0.035 C 
ATOM      9  N   UNL     1       2.378  -4.446  -1.845  0.00  0.00    +0.385 N 
ATOM     10  H   UNL     1       1.792  -5.211  -1.488  0.00  0.00    -0.081 HD
ENDROOT
BRANCH   6  11
ATOM     11  S   UNL     1      -2.931  -0.599  -0.426  0.00  0.00    +0.068 S 
ATOM     12  O   UNL     1      -3.920  -1.538  -0.028  0.00  0.00    -0.152 OA
ATOM     13  O   UNL     1      -3.141   0.325  -1.485  0.00  0.00    -0.152 OA
BRANCH  11  14
ATOM     14  N   UNL     1      -2.561   0.297   0.917  0.00  0.00    -0.176 NA
ATOM     15  C   UNL     1      -2.888  -0.186   2.228  0.00  0.00    +0.109 C 
ATOM     16  C   UNL     1      -4.297   0.182   2.757  0.00  0.00    +0.017 C 
ATOM     17  C   UNL     1      -4.635   1.650   2.397  0.00  0.00    +0.001 C 
ATOM     18  C   UNL     1      -3.424   2.526   2.541  0.00  0.00    +0.001 C 
ATOM     19  C   UNL     1      -2.850   2.660   1.135  0.00  0.00    +0.017 C 
ATOM     20  C   UNL     1      -1.877   1.627   0.783  0.00  0.00    +0.109 C 
ENDBRANCH  11  14
ENDBRANCH   6  11
BRANCH   9  22
ATOM     21  C   UNL     1       3.833  -6.252  -2.625  0.00  0.00    -0.013 C 
ATOM     22  C   UNL     1       3.783  -4.904  -1.903  0.00  0.00    -0.067 C 
BRANCH  22  23
ATOM     23  C   UNL     1       4.316  -5.068  -0.478  0.00  0.00    +0.019 C 
BRANCH  23  24
ATOM     24  C   UNL     1       5.768  -5.467  -0.529  0.00  0.00    -0.049 A 
ATOM     25  C   UNL     1       6.121  -6.801  -0.438  0.00  0.00    +0.007 A 
ATOM     26  C   UNL     1       7.452  -7.170  -0.490  0.00  0.00    +0.045 A 
ATOM     27  C   UNL     1       8.434  -6.199  -0.621  0.00  0.00    +0.117 A 
ATOM     28  C   UNL     1       8.078  -4.861  -0.706  0.00  0.00    +0.045 A 
ATOM     29  C   UNL     1       6.746  -4.498  -0.660  0.00  0.00    +0.007 A 
BRANCH  27  30
ATOM     30  O   UNL     1       9.744  -6.559  -0.667  0.00  0.00    -0.507 OA
ATOM     31  H   UNL     1      10.173  -6.594   0.199  0.00  0.00    +0.292 HD
ENDBRANCH  27  30
ENDBRANCH  23  24
ENDBRANCH  22  23
ENDBRANCH   9  22
BRANCH   7  32
ATOM     32  C   UNL     1      -2.351  -2.559  -2.933  0.00  0.00    +0.342 C 
ATOM     33  O   UNL     1      -2.421  -1.828  -3.902  0.00  0.00    -0.245 OA
BRANCH  32  34
ATOM     34  O   UNL     1      -3.241  -3.559  -2.778  0.00  0.00    -0.464 OA
ATOM     35  C   UNL     1      -4.256  -3.704  -3.807  0.00  0.00    +0.280 C 
ENDBRANCH  32  34
ENDBRANCH   7  32
TORSDOF 8
