REMARK  Name = ZINC50114681
REMARK  5 active torsions:
REMARK  status: ('A' for Active; 'I' for Inactive)
REMARK    1  A    between atoms: C_1  and  N_2
REMARK    2  A    between atoms: C_6  and  C_8
REMARK    3  A    between atoms: C_8  and  N_9
REMARK    4  A    between atoms: C_13  and  C_15
REMARK    5  A    between atoms: C_15  and  O_16
REMARK                            x       y       z     vdW  Elec       q    Type
REMARK                         _______ _______ _______ _____ _____    ______ ____
ROOT
ATOM      1  C   UNL     1       1.207  -4.179  -2.054  0.00  0.00    +0.019 C 
ENDROOT
BRANCH   1   7
ATOM      2  C   UNL     1      -0.018   1.461   0.010  0.00  0.00    +0.129 C 
ATOM      3  N   UNL     1       0.002  -0.004   0.002  0.00  0.00    -0.302 N 
ATOM      4  C   UNL     1       0.585  -0.664  -1.018  0.00  0.00    +0.306 C 
ATOM      5  O   UNL     1       1.094  -0.045  -1.931  0.00  0.00    -0.252 OA
ATOM      6  N   UNL     1       0.603  -2.012  -1.025  0.00  0.00    -0.242 N 
ATOM      7  C   UNL     1       1.186  -2.673  -2.045  0.00  0.00    +0.204 C 
ATOM      8  O   UNL     1       1.694  -2.054  -2.956  0.00  0.00    -0.277 OA
ATOM      9  H   UNL     1      -0.404  -0.499   0.731  0.00  0.00    +0.150 HD
ATOM     10  H   UNL     1       0.197  -2.507  -0.297  0.00  0.00    +0.159 HD
ENDBRANCH   1   7
BRANCH   1  11
ATOM     11  N   UNL     1       1.894  -4.653  -3.262  0.00  0.00    +0.389 N 
ATOM     12  C   UNL     1       1.107  -4.286  -4.459  0.00  0.00    -0.078 C 
ATOM     13  C   UNL     1       1.292  -5.476  -5.434  0.00  0.00    -0.020 C 
ATOM     14  C   UNL     1       1.300  -6.682  -4.459  0.00  0.00    -0.015 C 
ATOM     15  C   UNL     1       2.023  -6.121  -3.217  0.00  0.00    -0.042 C 
ATOM     16  H   UNL     1       2.810  -4.234  -3.319  0.00  0.00    -0.081 HD
BRANCH  15  17
ATOM     17  C   UNL     1       3.501  -6.516  -3.253  0.00  0.00    +0.140 C 
BRANCH  17  18
ATOM     18  O   UNL     1       4.066  -6.130  -4.507  0.00  0.00    -0.397 OA
ATOM     19  H   UNL     1       5.003  -6.350  -4.600  0.00  0.00    +0.209 HD
ENDBRANCH  17  18
ENDBRANCH  15  17
ENDBRANCH   1  11
TORSDOF 4
