REMARK  Name = ZINC54725671
REMARK  13 active torsions:
REMARK  status: ('A' for Active; 'I' for Inactive)
REMARK    1  A    between atoms: C_1  and  C_2
REMARK    2  A    between atoms: C_5  and  C_26
REMARK    3  A    between atoms: N_8  and  C_10
REMARK    4  A    between atoms: C_10  and  C_11
REMARK    5  A    between atoms: C_10  and  C_12
REMARK    6  A    between atoms: C_10  and  C_13
REMARK    7  A    between atoms: C_13  and  N_14
REMARK    8  A    between atoms: N_17  and  C_18
REMARK    9  A    between atoms: C_18  and  C_19
REMARK   10  A    between atoms: N_21  and  C_22
REMARK   11  A    between atoms: C_22  and  C_23
REMARK   12  A    between atoms: C_22  and  C_24
REMARK   13  A    between atoms: C_22  and  C_25
REMARK                            x       y       z     vdW  Elec       q    Type
REMARK                         _______ _______ _______ _____ _____    ______ ____
ROOT
ATOM      1  N   UNL     1       2.001   1.661   3.436  0.00  0.00    -0.301 N 
ATOM      2  C   UNL     1       1.527   2.460   4.412  0.00  0.00    +0.300 C 
ATOM      3  O   UNL     1       1.211   1.985   5.486  0.00  0.00    -0.253 OA
ATOM      4  N   UNL     1       1.403   3.785   4.198  0.00  0.00    -0.291 N 
ATOM      5  H   UNL     1       2.253   2.039   2.579  0.00  0.00    +0.150 HD
ATOM      6  H   UNL     1       1.655   4.163   3.342  0.00  0.00    +0.151 HD
ENDROOT
BRANCH   1   7
ATOM      7  C   UNL     1       2.136   0.221   3.668  0.00  0.00    +0.093 C 
BRANCH   7   8
ATOM      8  C   UNL     1       2.570  -0.467   2.372  0.00  0.00    -0.055 C 
ATOM      9  C   UNL     1       2.628  -1.980   2.592  0.00  0.00    -0.008 C 
ATOM     10  C   UNL     1       3.953   0.043   1.963  0.00  0.00    -0.008 C 
BRANCH   8  16
ATOM     11  C   UNL     1      -0.773   1.282   0.483  0.00  0.00    +0.005 C 
ATOM     12  C   UNL     1      -0.757  -0.239   0.650  0.00  0.00    -0.031 C 
ATOM     13  C   UNL     1      -0.373  -0.895  -0.679  0.00  0.00    +0.003 C 
ATOM     14  C   UNL     1       1.048  -0.466  -1.058  0.00  0.00    -0.031 C 
ATOM     15  C   UNL     1       2.007  -0.843   0.073  0.00  0.00    -0.075 C 
ATOM     16  N   UNL     1       1.602  -0.164   1.310  0.00  0.00    +0.384 N 
ATOM     17  C   UNL     1       0.269  -0.624   1.718  0.00  0.00    -0.075 C 
ATOM     18  C   UNL     1       1.470  -1.176  -2.345  0.00  0.00    +0.005 C 
ATOM     19  H   UNL     1       1.579   0.833   1.153  0.00  0.00    -0.081 HD
ENDBRANCH   8  16
ENDBRANCH   7   8
ENDBRANCH   1   7
BRANCH   4  20
ATOM     20  C   UNL     1       0.888   4.653   5.260  0.00  0.00    +0.201 C 
BRANCH  20  21
ATOM     21  C   UNL     1       0.849   6.077   4.769  0.00  0.00    +0.231 C 
ATOM     22  O   UNL     1       1.215   6.341   3.643  0.00  0.00    -0.274 OA
ATOM     23  N   UNL     1       0.406   7.058   5.581  0.00  0.00    -0.309 N 
ATOM     24  H   UNL     1       0.113   6.847   6.481  0.00  0.00    +0.149 HD
BRANCH  23  25
ATOM     25  C   UNL     1       0.368   8.442   5.104  0.00  0.00    +0.026 C 
ATOM     26  C   UNL     1      -0.545   8.535   3.880  0.00  0.00    +0.031 C 
ATOM     27  C   UNL     1      -0.170   9.349   6.212  0.00  0.00    +0.031 C 
ATOM     28  C   UNL     1       1.781   8.889   4.721  0.00  0.00    +0.031 C 
ENDBRANCH  23  25
ENDBRANCH  20  21
ENDBRANCH   4  20
TORSDOF 6
