REMARK  Name = ZINC50672994
REMARK  3 active torsions:
REMARK  status: ('A' for Active; 'I' for Inactive)
REMARK    1  A    between atoms: C_6  and  S_7
REMARK    2  A    between atoms: S_7  and  N_10
REMARK    3  A    between atoms: N_10  and  C_11
REMARK                            x       y       z     vdW  Elec       q    Type
REMARK                         _______ _______ _______ _____ _____    ______ ____
ROOT
ATOM      1  S   UNL     1      -1.786  -1.929  -0.388  0.00  0.00    +0.062 S 
ATOM      2  O   UNL     1      -2.048  -3.244   0.084  0.00  0.00    -0.153 OA
ATOM      3  O   UNL     1      -2.747  -0.885  -0.307  0.00  0.00    -0.153 OA
ENDROOT
BRANCH   1   9
ATOM      4  C   UNL     1       0.244  -2.153   1.433  0.00  0.00    +0.048 A 
ATOM      5  C   UNL     1       1.372  -1.666   2.083  0.00  0.00    +0.038 A 
ATOM      6  C   UNL     1       1.859  -0.418   1.748  0.00  0.00    +0.128 A 
ATOM      7  N   UNL     1       1.268   0.313   0.822  0.00  0.00    -0.238 NA
ATOM      8  C   UNL     1       0.192  -0.115   0.181  0.00  0.00    +0.143 A 
ATOM      9  C   UNL     1      -0.354  -1.363   0.468  0.00  0.00    +0.146 A 
ATOM     10  N   UNL     1      -0.400   0.689  -0.787  0.00  0.00    -0.342 N 
ATOM     11 BR   UNL     1       2.230  -2.702   3.412  0.00  0.00    -0.049 Br
ATOM     12  H   UNL     1       0.009   1.535  -1.030  0.00  0.00    +0.144 HD
ATOM     13  H   UNL     1      -1.220   0.405  -1.218  0.00  0.00    +0.144 HD
ENDBRANCH   1   9
BRANCH   1  14
ATOM     14  N   UNL     1      -1.376  -2.073  -1.986  0.00  0.00    -0.188 NA
ATOM     15  H   UNL     1      -1.811  -1.515  -2.651  0.00  0.00    +0.148 HD
BRANCH  14  16
ATOM     16  C   UNL     1      -0.358  -3.043  -2.397  0.00  0.00    +0.061 C 
ATOM     17  C   UNL     1       0.711  -2.363  -3.277  0.00  0.00    +0.000 C 
ATOM     18  C   UNL     1       1.118  -3.442  -4.294  0.00  0.00    -0.077 C 
ATOM     19  N   UNL     1       0.062  -4.463  -4.311  0.00  0.00    +0.383 N 
ATOM     20  C   UNL     1      -0.974  -4.117  -3.313  0.00  0.00    -0.050 C 
ATOM     21  C   UNL     1      -2.119  -3.467  -4.128  0.00  0.00    -0.016 C 
ATOM     22  C   UNL     1      -2.072  -4.273  -5.452  0.00  0.00    -0.020 C 
ATOM     23  C   UNL     1      -0.560  -4.535  -5.644  0.00  0.00    -0.078 C 
ATOM     24  H   UNL     1       0.455  -5.360  -4.073  0.00  0.00    -0.081 HD
ENDBRANCH  14  16
ENDBRANCH   1  14
TORSDOF 3
