REMARK  Name = ZINC39639421
REMARK  11 active torsions:
REMARK  status: ('A' for Active; 'I' for Inactive)
REMARK    1  A    between atoms: C_1  and  C_2
REMARK    2  A    between atoms: C_5  and  C_8
REMARK    3  A    between atoms: C_8  and  C_10
REMARK    4  A    between atoms: C_8  and  N_11
REMARK    5  A    between atoms: C_12  and  C_14
REMARK    6  A    between atoms: C_25  and  C_27
REMARK    7  A    between atoms: C_27  and  C_29
REMARK    8  A    between atoms: C_27  and  O_32
REMARK    9  A    between atoms: C_29  and  C_30
REMARK   10  A    between atoms: C_29  and  C_31
REMARK   11  A    between atoms: O_32  and  C_33
REMARK                            x       y       z     vdW  Elec       q    Type
REMARK                         _______ _______ _______ _____ _____    ______ ____
ROOT
ATOM      1  C   UNL     1       2.344  -6.876   2.530  0.00  0.00    +0.100 C 
ATOM      2  C   UNL     1       3.456  -5.805   2.478  0.00  0.00    +0.121 C 
ATOM      3  N   UNL     1       4.707  -6.574   2.273  0.00  0.00    -0.297 N 
ATOM      4  C   UNL     1       4.329  -7.646   1.321  0.00  0.00    +0.115 C 
ATOM      5  C   UNL     1       2.920  -8.082   1.769  0.00  0.00    -0.004 C 
ATOM      6  C   UNL     1       2.055  -8.402   0.554  0.00  0.00    -0.010 C 
ATOM      7  C   UNL     1       2.615  -9.640  -0.153  0.00  0.00    -0.082 C 
ATOM      8  N   UNL     1       2.624 -10.775   0.778  0.00  0.00    +0.379 N 
ATOM      9  C   UNL     1       3.531 -10.496   1.898  0.00  0.00    -0.082 C 
ATOM     10  C   UNL     1       3.011  -9.294   2.691  0.00  0.00    -0.010 C 
ATOM     11  C   UNL     1       5.914  -6.350   2.828  0.00  0.00    +0.257 C 
ATOM     12  O   UNL     1       6.872  -7.011   2.484  0.00  0.00    -0.272 OA
ATOM     13  H   UNL     1       1.692 -10.926   1.132  0.00  0.00    -0.086 HD
ATOM     14  H   UNL     1       2.936 -11.603   0.293  0.00  0.00    -0.086 HD
ENDROOT
BRANCH   1  16
ATOM     15  N   UNL     1      -0.099  -6.920   2.141  0.00  0.00    -0.308 N 
ATOM     16  C   UNL     1       1.098  -6.372   1.849  0.00  0.00    +0.219 C 
ATOM     17  O   UNL     1       1.171  -5.474   1.037  0.00  0.00    -0.275 OA
ATOM     18  H   UNL     1      -0.158  -7.638   2.790  0.00  0.00    +0.149 HD
BRANCH  15  19
ATOM     19  C   UNL     1      -1.310  -6.430   1.478  0.00  0.00    +0.100 C 
ATOM     20  C   UNL     1      -1.478  -7.140   0.134  0.00  0.00    +0.033 C 
BRANCH  19  25
ATOM     21  C   UNL     1      -5.904  -7.513   4.813  0.00  0.00    +0.044 C 
ATOM     22  C   UNL     1      -4.706  -7.231   3.943  0.00  0.00    -0.050 A 
ATOM     23  C   UNL     1      -4.614  -6.032   3.261  0.00  0.00    +0.004 A 
ATOM     24  C   UNL     1      -3.515  -5.772   2.464  0.00  0.00    +0.006 A 
ATOM     25  C   UNL     1      -2.507  -6.712   2.349  0.00  0.00    -0.027 A 
ATOM     26  C   UNL     1      -2.599  -7.911   3.031  0.00  0.00    +0.006 A 
ATOM     27  C   UNL     1      -3.696  -8.168   3.832  0.00  0.00    +0.004 A 
ENDBRANCH  19  25
ENDBRANCH  15  19
ENDBRANCH   1  16
BRANCH  11  28
ATOM     28  C   UNL     1       6.075  -5.278   3.875  0.00  0.00    +0.261 C 
BRANCH  28  29
ATOM     29  C   UNL     1       5.789  -5.868   5.257  0.00  0.00    +0.033 C 
ATOM     30  C   UNL     1       6.084  -4.819   6.331  0.00  0.00    +0.011 C 
ATOM     31  C   UNL     1       4.319  -6.284   5.340  0.00  0.00    +0.011 C 
ENDBRANCH  28  29
BRANCH  28  32
ATOM     32  O   UNL     1       7.412  -4.774   3.839  0.00  0.00    -0.479 OA
BRANCH  32  33
ATOM     33  C   UNL     1       7.580  -3.450   4.094  0.00  0.00    +0.122 A 
ATOM     34  C   UNL     1       8.852  -2.897   4.090  0.00  0.00    +0.045 A 
ATOM     35  C   UNL     1       9.020  -1.551   4.349  0.00  0.00    +0.004 A 
ATOM     36  C   UNL     1       7.920  -0.754   4.612  0.00  0.00    +0.000 A 
ATOM     37  C   UNL     1       6.651  -1.303   4.618  0.00  0.00    +0.004 A 
ATOM     38  C   UNL     1       6.478  -2.648   4.353  0.00  0.00    +0.045 A 
ENDBRANCH  32  33
ENDBRANCH  28  32
ENDBRANCH  11  28
TORSDOF 7
