REMARK  Name = ZINC01568008
REMARK  8 active torsions:
REMARK  status: ('A' for Active; 'I' for Inactive)
REMARK    1  A    between atoms: C_1  and  C_2
REMARK    2  A    between atoms: C_2  and  C_4
REMARK    3  A    between atoms: C_2  and  N_43
REMARK    4  A    between atoms: C_4  and  N_5
REMARK    5  A    between atoms: C_8  and  C_21
REMARK    6  A    between atoms: N_12  and  C_13
REMARK    7  A    between atoms: C_25  and  N_43
REMARK    8  A    between atoms: C_26  and  N_43
REMARK                            x       y       z     vdW  Elec       q    Type
REMARK                         _______ _______ _______ _____ _____    ______ ____
ROOT
ATOM      1  N   UNL     1       7.073   1.175  -0.465  0.00  0.00    -0.315 N 
ATOM      2  C   UNL     1       5.872   1.845  -0.347  0.00  0.00    +0.220 A 
ATOM      3  N   UNL     1       5.849   3.176  -0.340  0.00  0.00    -0.195 NA
ATOM      4  C   UNL     1       4.700   3.818  -0.227  0.00  0.00    +0.187 A 
ATOM      5  N   UNL     1       3.569   3.142  -0.120  0.00  0.00    -0.195 NA
ATOM      6  C   UNL     1       3.584   1.811  -0.126  0.00  0.00    +0.224 A 
ATOM      7  N   UNL     1       4.738   1.162  -0.234  0.00  0.00    -0.181 NA
ATOM      8  N   UNL     1       2.402   1.106  -0.014  0.00  0.00    -0.283 N 
ATOM      9  H   UNL     1       7.089   0.205  -0.470  0.00  0.00    +0.149 HD
ATOM     10  H   UNL     1       2.419   0.139   0.062  0.00  0.00    +0.155 HD
ENDROOT
BRANCH   8  11
ATOM     11  C   UNL     1       1.179   1.786  -0.011  0.00  0.00    +0.035 A 
ATOM     12  C   UNL     1       1.026   2.946  -0.760  0.00  0.00    +0.025 A 
ATOM     13  C   UNL     1      -0.181   3.616  -0.755  0.00  0.00    +0.023 A 
ATOM     14  C   UNL     1      -1.239   3.134  -0.004  0.00  0.00    +0.059 A 
ATOM     15  C   UNL     1      -1.091   1.975   0.740  0.00  0.00    +0.061 A 
ATOM     16  C   UNL     1       0.117   1.304   0.742  0.00  0.00    +0.044 A 
ATOM     17 CL   UNL     1      -2.422   1.369   1.675  0.00  0.00    -0.082 Cl
ATOM     18 CL   UNL     1      -2.755   3.979  -0.000  0.00  0.00    -0.082 Cl
ENDBRANCH   8  11
BRANCH   4  19
ATOM     19  C   UNL     1       4.679   5.325  -0.220  0.00  0.00    +0.250 C 
ATOM     20 CL   UNL     1       3.078   5.900   0.379  0.00  0.00    -0.075 Cl
ATOM     21 CL   UNL     1       5.982   5.939   0.864  0.00  0.00    -0.075 Cl
ATOM     22 CL   UNL     1       4.950   5.937  -1.894  0.00  0.00    -0.075 Cl
ENDBRANCH   4  19
BRANCH   1  23
ATOM     23  C   UNL     1       8.324   1.929  -0.583  0.00  0.00    +0.089 C 
BRANCH  23  25
ATOM     24  C   UNL     1      10.812   1.736  -0.696  0.00  0.00    -0.012 C 
ATOM     25  C   UNL     1       9.498   0.954  -0.699  0.00  0.00    -0.055 C 
BRANCH  25  28
ATOM     26  C   UNL     1      10.520  -1.000   0.300  0.00  0.00    -0.096 C 
ATOM     27  C   UNL     1       9.617   0.749   1.711  0.00  0.00    -0.096 C 
ATOM     28  N   UNL     1       9.453   0.012   0.440  0.00  0.00    +0.379 N 
ATOM     29  H   UNL     1       8.542  -0.462   0.444  0.00  0.00    -0.082 HD
ENDBRANCH  25  28
ENDBRANCH  23  25
ENDBRANCH   1  23
TORSDOF 5
