REMARK  Name = ZINC58847038
REMARK  7 active torsions:
REMARK  status: ('A' for Active; 'I' for Inactive)
REMARK    1  A    between atoms: C_1  and  O_2
REMARK    2  A    between atoms: O_2  and  C_3
REMARK    3  A    between atoms: C_6  and  C_12
REMARK    4  A    between atoms: C_8  and  N_9
REMARK    5  A    between atoms: C_23  and  S_28
REMARK    6  A    between atoms: S_28  and  N_31
REMARK    7  A    between atoms: N_31  and  C_32
REMARK                            x       y       z     vdW  Elec       q    Type
REMARK                         _______ _______ _______ _____ _____    ______ ____
ROOT
ATOM      1  C   UNL     1      -4.982  -2.087   0.116  0.00  0.00    +0.105 C 
ATOM      2  C   UNL     1      -5.479  -2.161  -1.297  0.00  0.00    +0.029 C 
ATOM      3  C   UNL     1      -5.330  -0.818  -2.041  0.00  0.00    +0.033 C 
ATOM      4  C   UNL     1      -6.437  -0.852  -3.074  0.00  0.00    -0.030 C 
ATOM      5  C   UNL     1      -7.334  -1.753  -2.768  0.00  0.00    -0.023 C 
ATOM      6  C   UNL     1      -6.971  -2.430  -1.469  0.00  0.00    +0.049 C 
ATOM      7  C   UNL     1      -7.811  -1.825  -0.380  0.00  0.00    -0.018 A 
ATOM      8  C   UNL     1      -9.181  -1.735  -0.578  0.00  0.00    +0.034 A 
ATOM      9  C   UNL     1      -9.993  -1.176   0.389  0.00  0.00    +0.109 A 
ATOM     10  C   UNL     1      -9.444  -0.700   1.566  0.00  0.00    +0.030 A 
ATOM     11  C   UNL     1      -8.083  -0.788   1.773  0.00  0.00    +0.025 A 
ATOM     12  C   UNL     1      -7.263  -1.357   0.801  0.00  0.00    +0.031 A 
ATOM     13  N   UNL     1      -5.910  -1.481   1.048  0.00  0.00    -0.336 N 
ATOM     14  H   UNL     1      -5.564  -1.117   1.878  0.00  0.00    +0.147 HD
ENDROOT
BRANCH   1  18
ATOM     15  C   UNL     1      -1.354   0.172   0.157  0.00  0.00    +0.150 A 
ATOM     16  C   UNL     1      -2.579   0.824   0.161  0.00  0.00    +0.048 A 
ATOM     17  C   UNL     1      -3.750   0.092   0.148  0.00  0.00    +0.009 A 
ATOM     18  C   UNL     1      -3.703  -1.290   0.130  0.00  0.00    -0.025 A 
ATOM     19  C   UNL     1      -2.484  -1.942   0.126  0.00  0.00    +0.042 A 
ATOM     20  C   UNL     1      -1.309  -1.214   0.134  0.00  0.00    +0.168 A 
BRANCH  20  21
ATOM     21  N   UNL     1      -0.005  -1.913   0.123  0.00  0.00    +0.060 N 
ATOM     22  O   UNL     1       0.034  -3.121   0.103  0.00  0.00    -0.126 OA
ATOM     23  O   UNL     1       1.023  -1.276   0.135  0.00  0.00    -0.126 OA
ENDBRANCH  20  21
BRANCH  15  25
ATOM     24  C   UNL     1      -0.323   2.314   0.193  0.00  0.00    +0.277 C 
ATOM     25  O   UNL     1      -0.201   0.890   0.169  0.00  0.00    -0.493 OA
ENDBRANCH  15  25
ENDBRANCH   1  18
BRANCH   9  26
ATOM     26  S   UNL     1     -11.731  -1.070   0.123  0.00  0.00    +0.072 S 
ATOM     27  O   UNL     1     -12.204  -0.011   0.945  0.00  0.00    -0.150 OA
ATOM     28  O   UNL     1     -11.929  -1.088  -1.284  0.00  0.00    -0.150 OA
BRANCH  26  29
ATOM     29  N   UNL     1     -12.403  -2.463   0.714  0.00  0.00    -0.213 N 
ATOM     30  H   UNL     1     -12.895  -3.054   0.121  0.00  0.00    +0.174 HD
BRANCH  29  31
ATOM     31  C   UNL     1     -12.262  -2.789   2.066  0.00  0.00    +0.083 A 
ATOM     32  C   UNL     1     -12.267  -1.788   3.027  0.00  0.00    +0.027 A 
ATOM     33  C   UNL     1     -12.128  -2.113   4.363  0.00  0.00    +0.002 A 
ATOM     34  C   UNL     1     -11.984  -3.434   4.744  0.00  0.00    +0.003 A 
ATOM     35  C   UNL     1     -11.978  -4.436   3.790  0.00  0.00    +0.040 A 
ATOM     36  C   UNL     1     -12.123  -4.118   2.452  0.00  0.00    +0.146 A 
ATOM     37  F   UNL     1     -12.124  -5.097   1.521  0.00  0.00    -0.204 F 
ENDBRANCH  29  31
ENDBRANCH  26  29
ENDBRANCH   9  26
TORSDOF 6
