REMARK  Name = ZINC63134596
REMARK  3 active torsions:
REMARK  status: ('A' for Active; 'I' for Inactive)
REMARK    1  A    between atoms: C_6  and  N_10
REMARK    2  A    between atoms: C_11  and  C_13
REMARK    3  A    between atoms: C_14  and  O_27
REMARK                            x       y       z     vdW  Elec       q    Type
REMARK                         _______ _______ _______ _____ _____    ______ ____
ROOT
ATOM      1  C   UNL     1       4.718  -4.527  -2.394  0.00  0.00    +0.198 C 
ATOM      2  C   UNL     1       6.144  -4.085  -2.714  0.00  0.00    +0.167 C 
ATOM      3  C   UNL     1       6.163  -2.712  -3.314  0.00  0.00    +0.004 A 
ATOM      4  C   UNL     1       7.194  -1.806  -3.206  0.00  0.00    +0.008 A 
ATOM      5  C   UNL     1       7.116  -0.568  -3.822  0.00  0.00    +0.001 A 
ATOM      6  C   UNL     1       6.014  -0.177  -4.579  0.00  0.00    +0.005 A 
ATOM      7  C   UNL     1       4.972  -1.080  -4.686  0.00  0.00    -0.024 A 
ATOM      8  C   UNL     1       5.047  -2.308  -4.049  0.00  0.00    +0.045 A 
ATOM      9  N   UNL     1       3.891  -3.070  -4.192  0.00  0.00    -0.270 N 
ATOM     10  C   UNL     1       3.751  -4.231  -3.515  0.00  0.00    +0.235 C 
ATOM     11  O   UNL     1       2.871  -5.015  -3.800  0.00  0.00    -0.274 OA
ATOM     12  C   UNL     1       2.976  -2.374  -5.091  0.00  0.00    +0.118 C 
ATOM     13  C   UNL     1       3.661  -1.024  -5.411  0.00  0.00    +0.056 C 
ENDROOT
BRANCH   1  15
ATOM     14  N   UNL     1       3.522  -2.756  -1.248  0.00  0.00    -0.205 NA
ATOM     15  C   UNL     1       4.255  -3.813  -1.150  0.00  0.00    +0.260 C 
ATOM     16  O   UNL     1       4.607  -4.279   0.066  0.00  0.00    -0.270 OA
BRANCH  14  22
ATOM     17  C   UNL     1      -0.016   1.344   0.009  0.00  0.00    +0.002 A 
ATOM     18  C   UNL     1       1.158   2.118   0.002  0.00  0.00    +0.002 A 
ATOM     19  C   UNL     1       2.389   1.570  -0.013  0.00  0.00    +0.027 A 
ATOM     20  C   UNL     1       2.533   0.108  -0.022  0.00  0.00    +0.062 A 
ATOM     21  N   UNL     1       3.569  -0.680  -0.036  0.00  0.00    -0.345 N 
ATOM     22  C   UNL     1       3.071  -2.062  -0.039  0.00  0.00    +0.302 C 
ATOM     23  N   UNL     1       1.606  -1.974  -0.024  0.00  0.00    -0.345 N 
ATOM     24  C   UNL     1       1.290  -0.712  -0.014  0.00  0.00    +0.062 A 
ATOM     25  C   UNL     1       0.002  -0.004   0.002  0.00  0.00    +0.027 A 
ATOM     26  H   UNL     1       4.499  -0.405  -0.045  0.00  0.00    +0.163 HD
ATOM     27  H   UNL     1       0.987  -2.721  -0.022  0.00  0.00    +0.163 HD
ENDBRANCH  14  22
ENDBRANCH   1  15
BRANCH   2  28
ATOM     28  O   UNL     1       6.915  -4.080  -1.511  0.00  0.00    -0.386 OA
ATOM     29  H   UNL     1       7.835  -3.809  -1.634  0.00  0.00    +0.210 HD
ENDBRANCH   2  28
TORSDOF 3
