REMARK  Name = ZINC11228705
REMARK  8 active torsions:
REMARK  status: ('A' for Active; 'I' for Inactive)
REMARK    1  A    between atoms: C_6  and  N_7
REMARK    2  A    between atoms: C_8  and  C_27
REMARK    3  A    between atoms: C_11  and  S_12
REMARK    4  A    between atoms: S_12  and  C_13
REMARK    5  A    between atoms: C_13  and  C_14
REMARK    6  A    between atoms: N_16  and  C_17
REMARK    7  A    between atoms: C_18  and  C_25
REMARK    8  A    between atoms: C_27  and  N_59
REMARK                            x       y       z     vdW  Elec       q    Type
REMARK                         _______ _______ _______ _____ _____    ______ ____
ROOT
ATOM      1  N   UNL     1       4.975   1.030   2.629  0.00  0.00    -0.276 N 
ATOM      2  C   UNL     1       4.456  -0.149   2.163  0.00  0.00    +0.122 A 
ATOM      3  N   UNL     1       5.366  -0.703   1.413  0.00  0.00    -0.135 NA
ATOM      4  N   UNL     1       6.413   0.041   1.364  0.00  0.00    -0.122 NA
ATOM      5  C   UNL     1       6.231   1.117   2.095  0.00  0.00    +0.197 A 
ENDROOT
BRANCH   1  11
ATOM      6  C   UNL     1       3.247   2.673   3.029  0.00  0.00    +0.029 A 
ATOM      7  C   UNL     1       2.629   3.581   3.866  0.00  0.00    +0.040 A 
ATOM      8  C   UNL     1       3.113   3.784   5.148  0.00  0.00    +0.124 A 
ATOM      9  C   UNL     1       4.214   3.073   5.594  0.00  0.00    +0.040 A 
ATOM     10  C   UNL     1       4.832   2.160   4.761  0.00  0.00    +0.029 A 
ATOM     11  C   UNL     1       4.348   1.956   3.477  0.00  0.00    +0.050 A 
ATOM     12  F   UNL     1       2.510   4.676   5.964  0.00  0.00    -0.205 F 
ENDBRANCH   1  11
BRANCH   5  13
ATOM     13  S   UNL     1       7.387   2.424   2.341  0.00  0.00    -0.076 S 
BRANCH  13  14
ATOM     14  C   UNL     1       8.765   1.819   1.335  0.00  0.00    +0.173 C 
BRANCH  14  15
ATOM     15  C   UNL     1       9.902   2.805   1.397  0.00  0.00    +0.228 C 
ATOM     16  O   UNL     1       9.793   3.817   2.056  0.00  0.00    -0.275 OA
ATOM     17  N   UNL     1      11.042   2.562   0.719  0.00  0.00    -0.278 N 
ATOM     18  H   UNL     1      11.130   1.753   0.192  0.00  0.00    +0.155 HD
BRANCH  17  19
ATOM     19  C   UNL     1      12.090   3.471   0.776  0.00  0.00    +0.090 A 
ATOM     20  C   UNL     1      13.327   3.396   0.161  0.00  0.00    +0.084 A 
ATOM     21  C   UNL     1      14.261   4.498   0.381  0.00  0.00    -0.018 A 
ATOM     22  C   UNL     1      13.808   5.480   1.182  0.00  0.00    -0.004 A 
ATOM     23  S   UNL     1      12.169   4.969   1.639  0.00  0.00    -0.077 S 
ATOM     24  C   UNL     1      14.823   6.575   1.362  0.00  0.00    +0.043 C 
ATOM     25  C   UNL     1      15.833   6.363   0.213  0.00  0.00    +0.010 C 
ATOM     26  C   UNL     1      15.680   4.854  -0.065  0.00  0.00    +0.037 C 
BRANCH  20  27
ATOM     27  C   UNL     1      13.678   2.280  -0.664  0.00  0.00    +0.102 C 
ATOM     28  N   UNL     1      13.957   1.394  -1.319  0.00  0.00    -0.191 NA
ENDBRANCH  20  27
ENDBRANCH  17  19
ENDBRANCH  14  15
ENDBRANCH  13  14
ENDBRANCH   5  13
BRANCH   2  29
ATOM     29  C   UNL     1       3.089  -0.705   2.468  0.00  0.00    -0.001 C 
BRANCH  29  35
ATOM     30  C   UNL     1       1.779  -1.678   4.256  0.00  0.00    -0.078 C 
ATOM     31  C   UNL     1       1.866  -2.315   5.644  0.00  0.00    -0.019 C 
ATOM     32  C   UNL     1       2.632  -3.637   5.546  0.00  0.00    -0.004 C 
ATOM     33  C   UNL     1       4.021  -3.371   4.959  0.00  0.00    -0.019 C 
ATOM     34  C   UNL     1       3.871  -2.703   3.590  0.00  0.00    -0.078 C 
ATOM     35  N   UNL     1       3.147  -1.424   3.757  0.00  0.00    +0.384 N 
ATOM     36  H   UNL     1       3.648  -0.844   4.440  0.00  0.00    -0.081 HD
ENDBRANCH  29  35
ENDBRANCH   2  29
TORSDOF 8
