REMARK  Name = ZINC37199374
REMARK  9 active torsions:
REMARK  status: ('A' for Active; 'I' for Inactive)
REMARK    1  A    between atoms: C_1  and  C_2
REMARK    2  A    between atoms: C_2  and  C_3
REMARK    3  A    between atoms: C_2  and  C_4
REMARK    4  A    between atoms: C_4  and  C_6
REMARK    5  A    between atoms: C_4  and  N_11
REMARK    6  A    between atoms: N_11  and  C_12
REMARK    7  A    between atoms: C_12  and  C_13
REMARK    8  A    between atoms: C_16  and  S_19
REMARK    9  A    between atoms: S_19  and  N_22
REMARK                            x       y       z     vdW  Elec       q    Type
REMARK                         _______ _______ _______ _____ _____    ______ ____
ROOT
ATOM      1  C   UNL     1      -1.073  -0.688   2.246  0.00  0.00    -0.046 C 
ENDROOT
BRANCH   1   2
ATOM      2  C   UNL     1      -1.688  -0.233   3.544  0.00  0.00    -0.064 A 
ATOM      3  C   UNL     1      -1.356   1.001   4.071  0.00  0.00    +0.003 A 
ATOM      4  C   UNL     1      -1.921   1.419   5.262  0.00  0.00    +0.029 A 
ATOM      5  C   UNL     1      -2.818   0.603   5.925  0.00  0.00    +0.105 A 
ATOM      6  C   UNL     1      -3.151  -0.631   5.398  0.00  0.00    +0.029 A 
ATOM      7  C   UNL     1      -2.590  -1.047   4.205  0.00  0.00    +0.003 A 
BRANCH   5   8
ATOM      8  S   UNL     1      -3.537   1.134   7.444  0.00  0.00    +0.056 S 
ATOM      9  O   UNL     1      -3.926  -0.040   8.142  0.00  0.00    -0.153 OA
ATOM     10  O   UNL     1      -2.646   2.092   8.001  0.00  0.00    -0.153 OA
BRANCH   8  11
ATOM     11  N   UNL     1      -4.930   1.946   7.068  0.00  0.00    -0.204 NA
ATOM     12  H   UNL     1      -5.198   2.046   6.141  0.00  0.00    +0.144 HD
ATOM     13  H   UNL     1      -5.478   2.322   7.774  0.00  0.00    +0.144 HD
ENDBRANCH   8  11
ENDBRANCH   5   8
ENDBRANCH   1   2
BRANCH   1  14
ATOM     14  N   UNL     1      -1.915  -0.250   1.125  0.00  0.00    +0.387 N 
ATOM     15  H   UNL     1      -2.059   0.747   1.182  0.00  0.00    -0.085 HD
ATOM     16  H   UNL     1      -2.806  -0.722   1.169  0.00  0.00    -0.085 HD
BRANCH  14  17
ATOM     17  C   UNL     1      -1.250  -0.578  -0.144  0.00  0.00    -0.031 C 
BRANCH  17  18
ATOM     18  C   UNL     1      -1.159  -2.075  -0.291  0.00  0.00    -0.024 A 
ATOM     19  C   UNL     1      -0.135  -2.824  -0.768  0.00  0.00    +0.009 A 
ATOM     20  C   UNL     1      -0.274  -4.199  -0.811  0.00  0.00    +0.008 A 
ATOM     21  C   UNL     1      -1.431  -4.756  -0.376  0.00  0.00    +0.045 A 
ATOM     22  S   UNL     1      -2.368  -3.321   0.123  0.00  0.00    -0.103 S 
ENDBRANCH  17  18
BRANCH  17  24
ATOM     23  C   UNL     1      -2.109   1.526  -1.184  0.00  0.00    +0.006 C 
ATOM     24  C   UNL     1      -2.058   0.001  -1.307  0.00  0.00    -0.027 C 
ATOM     25  C   UNL     1      -1.393  -0.382  -2.631  0.00  0.00    +0.006 C 
ENDBRANCH  17  24
ENDBRANCH  14  17
ENDBRANCH   1  14
TORSDOF 7
