REMARK  Name = ZINC12473793
REMARK  14 active torsions:
REMARK  status: ('A' for Active; 'I' for Inactive)
REMARK    1  A    between atoms: C_1  and  C_2
REMARK    2  A    between atoms: C_7  and  N_8
REMARK    3  A    between atoms: N_8  and  C_9
REMARK    4  A    between atoms: C_9  and  C_11
REMARK    5  A    between atoms: C_9  and  C_18
REMARK    6  A    between atoms: C_14  and  O_17
REMARK    7  A    between atoms: N_20  and  C_21
REMARK    8  A    between atoms: C_21  and  C_22
REMARK    9  A    between atoms: C_22  and  C_23
REMARK   10  A    between atoms: C_23  and  C_24
REMARK   11  A    between atoms: C_23  and  C_25
REMARK   12  A    between atoms: C_26  and  C_28
REMARK   13  A    between atoms: C_29  and  N_36
REMARK   14  A    between atoms: C_30  and  C_33
REMARK                            x       y       z     vdW  Elec       q    Type
REMARK                         _______ _______ _______ _____ _____    ______ ____
ROOT
ATOM      1  N   UNL     1       3.391   1.663  -1.003  0.00  0.00    -0.251 N 
ATOM      2  C   UNL     1       4.539   1.050  -1.353  0.00  0.00    +0.262 C 
ATOM      3  O   UNL     1       4.842  -0.013  -0.843  0.00  0.00    -0.269 OA
ENDROOT
BRANCH   1  10
ATOM      4  C   UNL     1       1.702   1.621  -3.292  0.00  0.00    +0.045 C 
ATOM      5  C   UNL     1       2.221   2.909  -2.708  0.00  0.00    -0.029 A 
ATOM      6  C   UNL     1       1.875   4.117  -3.282  0.00  0.00    +0.005 A 
ATOM      7  C   UNL     1       2.356   5.300  -2.750  0.00  0.00    +0.000 A 
ATOM      8  C   UNL     1       3.179   5.277  -1.639  0.00  0.00    +0.002 A 
ATOM      9  C   UNL     1       3.524   4.073  -1.057  0.00  0.00    +0.024 A 
ATOM     10  C   UNL     1       3.043   2.884  -1.589  0.00  0.00    +0.041 A 
ENDBRANCH   1  10
BRANCH   2  11
ATOM     11  C   UNL     1       5.422   1.663  -2.347  0.00  0.00    +0.116 A 
ATOM     12  C   UNL     1       6.643   1.205  -2.849  0.00  0.00    +0.076 A 
ATOM     13  C   UNL     1       7.191   2.073  -3.793  0.00  0.00    +0.155 A 
ATOM     14  N   UNL     1       6.546   3.176  -4.104  0.00  0.00    -0.203 NA
ATOM     15  S   UNL     1       5.224   3.187  -3.246  0.00  0.00    +0.019 S 
BRANCH  13  16
ATOM     16  C   UNL     1       8.480   1.758  -4.434  0.00  0.00    +0.262 C 
ATOM     17  O   UNL     1       9.072   0.736  -4.141  0.00  0.00    -0.269 OA
ATOM     18  N   UNL     1       9.004   2.601  -5.346  0.00  0.00    -0.324 N 
ATOM     19  H   UNL     1       8.532   3.416  -5.580  0.00  0.00    +0.145 HD
ATOM     20  H   UNL     1       9.852   2.394  -5.768  0.00  0.00    +0.145 HD
ENDBRANCH  13  16
BRANCH  12  21
ATOM     21  N   UNL     1       7.244   0.018  -2.451  0.00  0.00    -0.355 N 
ATOM     22  H   UNL     1       6.814  -0.545  -1.789  0.00  0.00    +0.142 HD
ATOM     23  H   UNL     1       8.094  -0.247  -2.836  0.00  0.00    +0.142 HD
ENDBRANCH  12  21
ENDBRANCH   2  11
BRANCH   1  24
ATOM     24  C   UNL     1       2.507   1.050  -0.008  0.00  0.00    +0.197 C 
BRANCH  24  25
ATOM     25  C   UNL     1       1.235   1.851   0.095  0.00  0.00    -0.018 A 
ATOM     26  C   UNL     1       0.022   1.264  -0.215  0.00  0.00    +0.009 A 
ATOM     27  C   UNL     1      -1.144   1.998  -0.126  0.00  0.00    +0.046 A 
ATOM     28  C   UNL     1      -1.100   3.322   0.286  0.00  0.00    +0.117 A 
ATOM     29  C   UNL     1       0.118   3.909   0.597  0.00  0.00    +0.046 A 
ATOM     30  C   UNL     1       1.283   3.172   0.501  0.00  0.00    +0.009 A 
BRANCH  28  31
ATOM     31  O   UNL     1      -2.247   4.045   0.379  0.00  0.00    -0.507 OA
ATOM     32  H   UNL     1      -2.487   4.508  -0.435  0.00  0.00    +0.292 HD
ENDBRANCH  28  31
ENDBRANCH  24  25
BRANCH  24  33
ATOM     33  C   UNL     1       3.198   1.027   1.331  0.00  0.00    +0.238 C 
ATOM     34  O   UNL     1       4.317   1.479   1.444  0.00  0.00    -0.273 OA
ATOM     35  N   UNL     1       2.571   0.505   2.404  0.00  0.00    -0.313 N 
ATOM     36  H   UNL     1       1.675   0.144   2.314  0.00  0.00    +0.149 HD
BRANCH  35  37
ATOM     37  C   UNL     1       3.241   0.484   3.706  0.00  0.00    +0.104 C 
BRANCH  37  38
ATOM     38  C   UNL     1       2.319  -0.157   4.745  0.00  0.00    +0.022 C 
BRANCH  38  39
ATOM     39  C   UNL     1       3.019  -0.179   6.104  0.00  0.00    -0.016 C 
ATOM     40  C   UNL     1       3.240   1.255   6.588  0.00  0.00    +0.007 C 
ATOM     41  C   UNL     1       2.149  -0.930   7.114  0.00  0.00    +0.007 C 
ENDBRANCH  38  39
ENDBRANCH  37  38
ENDBRANCH  35  37
ENDBRANCH  24  33
ENDBRANCH   1  24
TORSDOF 11
