REMARK  Name = ZINC39360231
REMARK  7 active torsions:
REMARK  status: ('A' for Active; 'I' for Inactive)
REMARK    1  A    between atoms: C_1  and  C_2
REMARK    2  A    between atoms: C_2  and  N_3
REMARK    3  A    between atoms: C_7  and  C_9
REMARK    4  A    between atoms: C_9  and  N_10
REMARK    5  A    between atoms: C_11  and  C_13
REMARK    6  A    between atoms: C_17  and  C_35
REMARK    7  A    between atoms: C_21  and  C_30
REMARK                            x       y       z     vdW  Elec       q    Type
REMARK                         _______ _______ _______ _____ _____    ______ ____
ROOT
ATOM      1  C   UNL     1      -3.517  -1.351  -3.811  0.00  0.00    +0.103 A 
ATOM      2  C   UNL     1      -4.010  -0.482  -2.733  0.00  0.00    +0.194 A 
ATOM      3  O   UNL     1      -3.324  -0.241  -1.752  0.00  0.00    -0.287 OA
ATOM      4  C   UNL     1      -5.309   0.066  -2.871  0.00  0.00    +0.073 A 
ATOM      5  C   UNL     1      -6.057  -0.274  -3.938  0.00  0.00    +0.025 A 
ATOM      6  N   UNL     1      -5.609  -1.142  -4.888  0.00  0.00    -0.315 N 
ATOM      7  C   UNL     1      -4.356  -1.617  -4.879  0.00  0.00    +0.041 A 
ATOM      8  C   UNL     1      -3.820  -2.409  -6.038  0.00  0.00    +0.074 C 
ATOM      9  C   UNL     1      -4.083  -3.910  -5.845  0.00  0.00    +0.094 C 
ATOM     10  S   UNL     1      -5.779  -4.088  -5.198  0.00  0.00    -0.114 S 
ATOM     11  C   UNL     1      -6.688  -2.907  -6.143  0.00  0.00    +0.032 A 
ATOM     12  C   UNL     1      -6.511  -1.558  -5.884  0.00  0.00    +0.060 A 
ATOM     13  C   UNL     1      -7.220  -0.622  -6.620  0.00  0.00    +0.027 A 
ATOM     14  C   UNL     1      -8.103  -1.044  -7.598  0.00  0.00    +0.002 A 
ATOM     15  C   UNL     1      -8.281  -2.394  -7.843  0.00  0.00    +0.001 A 
ATOM     16  C   UNL     1      -7.572  -3.321  -7.127  0.00  0.00    +0.017 A 
ATOM     17  C   UNL     1      -7.433   0.322  -4.084  0.00  0.00    +0.064 C 
ENDROOT
BRANCH   9  18
ATOM     18  C   UNL     1      -3.960  -4.626  -7.166  0.00  0.00    +0.003 A 
ATOM     19  C   UNL     1      -3.117  -5.627  -7.518  0.00  0.00    +0.012 A 
ATOM     20  C   UNL     1      -3.183  -6.138  -8.801  0.00  0.00    +0.008 A 
ATOM     21  C   UNL     1      -4.088  -5.622  -9.668  0.00  0.00    +0.045 A 
ATOM     22  S   UNL     1      -4.891  -4.380  -8.669  0.00  0.00    -0.100 S 
ENDBRANCH   9  18
BRANCH   1  24
ATOM     23  N   UNL     1      -1.314  -1.558  -2.774  0.00  0.00    -0.313 N 
ATOM     24  C   UNL     1      -2.160  -1.921  -3.758  0.00  0.00    +0.249 C 
ATOM     25  O   UNL     1      -1.803  -2.720  -4.603  0.00  0.00    -0.270 OA
ATOM     26  H   UNL     1      -1.569  -0.861  -2.148  0.00  0.00    +0.149 HD
BRANCH  23  27
ATOM     27  C   UNL     1      -0.011  -2.215  -2.648  0.00  0.00    +0.089 C 
BRANCH  27  32
ATOM     28  N   UNL     1       0.844  -0.158  -1.607  0.00  0.00    +0.382 N 
ATOM     29  C   UNL     1       2.273   0.213  -1.689  0.00  0.00    -0.078 C 
ATOM     30  C   UNL     1       3.024  -0.944  -0.985  0.00  0.00    -0.020 C 
ATOM     31  C   UNL     1       2.187  -2.175  -1.425  0.00  0.00    -0.016 C 
ATOM     32  C   UNL     1       0.747  -1.621  -1.459  0.00  0.00    -0.051 C 
ATOM     33  H   UNL     1       0.371   0.131  -2.450  0.00  0.00    -0.081 HD
BRANCH  28  35
ATOM     34  C   UNL     1       0.222   2.013  -0.660  0.00  0.00    -0.017 C 
ATOM     35  C   UNL     1       0.230   0.498  -0.445  0.00  0.00    -0.082 C 
ENDBRANCH  28  35
ENDBRANCH  27  32
ENDBRANCH  23  27
ENDBRANCH   1  24
TORSDOF 5
