REMARK  Name = ZINC09542651
REMARK  9 active torsions:
REMARK  status: ('A' for Active; 'I' for Inactive)
REMARK    1  A    between atoms: C_1  and  C_2
REMARK    2  A    between atoms: C_2  and  O_3
REMARK    3  A    between atoms: O_3  and  C_4
REMARK    4  A    between atoms: C_8  and  C_11
REMARK    5  A    between atoms: C_9  and  O_10
REMARK    6  A    between atoms: C_14  and  C_26
REMARK    7  A    between atoms: C_16  and  C_18
REMARK    8  A    between atoms: C_22  and  O_24
REMARK    9  A    between atoms: O_24  and  C_25
REMARK                            x       y       z     vdW  Elec       q    Type
REMARK                         _______ _______ _______ _____ _____    ______ ____
ROOT
ATOM      1  C   UNL     1      -3.580   2.084  -0.854  0.00  0.00    -0.028 C 
ATOM      2  C   UNL     1      -3.291   3.219  -1.842  0.00  0.00    +0.044 C 
ATOM      3  C   UNL     1      -2.013   3.909  -1.452  0.00  0.00    +0.040 C 
ATOM      4  N   UNL     1      -1.166   3.404  -0.637  0.00  0.00    -0.299 NA
ATOM      5  C   UNL     1      -1.332   2.114   0.020  0.00  0.00    +0.081 C 
ATOM      6  N   UNL     1      -2.342   1.301  -0.674  0.00  0.00    +0.401 N 
ATOM      7  H   UNL     1      -1.981   1.020  -1.593  0.00  0.00    -0.081 HD
ATOM      8  H   UNL     1      -2.547   0.463  -0.117  0.00  0.00    -0.081 HD
ENDROOT
BRANCH   3   9
ATOM      9  C   UNL     1      -1.723   5.233  -2.037  0.00  0.00    -0.003 A 
ATOM     10  C   UNL     1      -0.547   5.907  -1.700  0.00  0.00    +0.010 A 
ATOM     11  C   UNL     1      -0.281   7.143  -2.250  0.00  0.00    +0.002 A 
ATOM     12  C   UNL     1      -1.177   7.717  -3.136  0.00  0.00    +0.015 A 
ATOM     13  C   UNL     1      -2.344   7.055  -3.475  0.00  0.00    +0.018 A 
ATOM     14  C   UNL     1      -2.620   5.815  -2.935  0.00  0.00    +0.025 A 
ATOM     15 BR   UNL     1      -3.561   7.849  -4.686  0.00  0.00    -0.050 Br
ENDBRANCH   3   9
BRANCH   1  20
ATOM     16  C   UNL     1      -6.994   0.739  -1.783  0.00  0.00    +0.162 A 
ATOM     17  C   UNL     1      -6.656  -0.445  -2.417  0.00  0.00    +0.049 A 
ATOM     18  C   UNL     1      -5.327  -0.807  -2.543  0.00  0.00    +0.004 A 
ATOM     19  C   UNL     1      -4.334   0.014  -2.042  0.00  0.00    +0.006 A 
ATOM     20  C   UNL     1      -4.665   1.195  -1.403  0.00  0.00    -0.016 A 
ATOM     21  C   UNL     1      -5.995   1.563  -1.274  0.00  0.00    +0.160 A 
BRANCH  21  22
ATOM     22  O   UNL     1      -6.322   2.726  -0.650  0.00  0.00    -0.503 OA
ATOM     23  H   UNL     1      -6.374   3.489  -1.242  0.00  0.00    +0.292 HD
ENDBRANCH  21  22
BRANCH  16  24
ATOM     24  O   UNL     1      -8.301   1.096  -1.659  0.00  0.00    -0.489 OA
BRANCH  24  26
ATOM     25  C   UNL     1     -10.675   0.768  -1.971  0.00  0.00    +0.048 C 
ATOM     26  C   UNL     1      -9.272   0.202  -2.205  0.00  0.00    +0.226 C 
ENDBRANCH  24  26
ENDBRANCH  16  24
ENDBRANCH   1  20
BRANCH   5  27
ATOM     27  C   UNL     1      -0.017   1.379   0.010  0.00  0.00    -0.037 A 
ATOM     28  C   UNL     1       0.002  -0.004   0.002  0.00  0.00    +0.004 A 
ATOM     29  C   UNL     1       1.207  -0.681  -0.014  0.00  0.00    +0.004 A 
ATOM     30  C   UNL     1       2.396   0.022  -0.022  0.00  0.00    +0.045 A 
ATOM     31  C   UNL     1       2.380   1.409  -0.013  0.00  0.00    +0.120 A 
ATOM     32  C   UNL     1       1.169   2.087   0.002  0.00  0.00    +0.049 A 
BRANCH  31  33
ATOM     33  O   UNL     1       3.548   2.104  -0.021  0.00  0.00    -0.495 OA
ATOM     34  C   UNL     1       4.756   1.341  -0.037  0.00  0.00    +0.277 C 
ENDBRANCH  31  33
ENDBRANCH   5  27
TORSDOF 7
