REMARK  Name = ZINC64019213
REMARK  8 active torsions:
REMARK  status: ('A' for Active; 'I' for Inactive)
REMARK    1  A    between atoms: C_1  and  C_2
REMARK    2  A    between atoms: C_6  and  N_9
REMARK    3  A    between atoms: C_7  and  C_8
REMARK    4  A    between atoms: C_10  and  O_36
REMARK    5  A    between atoms: C_13  and  O_35
REMARK    6  A    between atoms: C_14  and  C_18
REMARK    7  A    between atoms: C_25  and  O_30
REMARK    8  A    between atoms: O_30  and  C_31
REMARK                            x       y       z     vdW  Elec       q    Type
REMARK                         _______ _______ _______ _____ _____    ______ ____
ROOT
ATOM      1  N   UNL     1       0.052  -2.797   2.393  0.00  0.00    -0.225 N 
ATOM      2  C   UNL     1      -1.217  -3.174   2.998  0.00  0.00    +0.338 C 
ATOM      3  N   UNL     1      -1.070  -4.269   3.943  0.00  0.00    -0.204 NA
ATOM      4  C   UNL     1       0.033  -4.596   4.496  0.00  0.00    +0.200 C 
ATOM      5  C   UNL     1       1.324  -3.879   4.227  0.00  0.00    +0.179 C 
ATOM      6  C   UNL     1       1.234  -3.107   2.942  0.00  0.00    +0.237 C 
ATOM      7  O   UNL     1       2.255  -2.752   2.390  0.00  0.00    -0.274 OA
ENDROOT
BRANCH   5   8
ATOM      8  C   UNL     1       1.616  -2.914   5.379  0.00  0.00    +0.101 C 
ATOM      9  C   UNL     1       1.840  -3.705   6.670  0.00  0.00    +0.124 C 
ATOM     10  C   UNL     1       1.952  -2.674   7.787  0.00  0.00    -0.036 C 
ATOM     11  C   UNL     1       3.095  -2.920   8.411  0.00  0.00    +0.003 A 
ATOM     12  C   UNL     1       3.711  -2.326   9.608  0.00  0.00    +0.055 A 
ATOM     13  C   UNL     1       4.927  -2.817   9.976  0.00  0.00    +0.121 A 
ATOM     14  C   UNL     1       5.603  -3.834   9.288  0.00  0.00    +0.047 A 
ATOM     15  C   UNL     1       5.126  -4.453   8.178  0.00  0.00    +0.029 A 
ATOM     16  C   UNL     1       3.814  -4.013   7.685  0.00  0.00    +0.043 A 
ATOM     17  N   UNL     1       3.102  -4.444   6.664  0.00  0.00    -0.376 N 
ATOM     18  C   UNL     1       0.928  -1.578   7.959  0.00  0.00    +0.048 C 
ATOM     19  C   UNL     1       0.719  -0.962   6.563  0.00  0.00    +0.085 C 
ATOM     20  N   UNL     1       0.466  -2.018   5.578  0.00  0.00    -0.310 NA
ATOM     21  H   UNL     1       0.156  -1.627   4.701  0.00  0.00    +0.122 HD
ATOM     22  H   UNL     1       3.359  -5.123   6.021  0.00  0.00    +0.160 HD
BRANCH  13  23
ATOM     23  O   UNL     1       5.521  -2.287  11.078  0.00  0.00    -0.495 OA
ATOM     24  C   UNL     1       6.796  -2.817  11.446  0.00  0.00    +0.277 C 
ENDBRANCH  13  23
ENDBRANCH   5   8
BRANCH   1  30
ATOM     25  C   UNL     1      -0.018   1.503   0.010  0.00  0.00    +0.044 C 
ATOM     26  C   UNL     1       0.002  -0.004   0.002  0.00  0.00    -0.046 A 
ATOM     27  C   UNL     1       0.006  -0.688  -1.200  0.00  0.00    +0.004 A 
ATOM     28  C   UNL     1       0.025  -2.071  -1.212  0.00  0.00    +0.002 A 
ATOM     29  C   UNL     1       0.041  -2.773  -0.022  0.00  0.00    +0.024 A 
ATOM     30  C   UNL     1       0.037  -2.089   1.186  0.00  0.00    +0.044 A 
ATOM     31  C   UNL     1       0.023  -0.700   1.194  0.00  0.00    -0.026 A 
ATOM     32  C   UNL     1       0.025   0.046   2.504  0.00  0.00    +0.046 C 
ENDBRANCH   1  30
BRANCH   4  33
ATOM     33  O   UNL     1       0.039  -5.631   5.360  0.00  0.00    -0.495 OA
ATOM     34  H   UNL     1      -0.827  -6.045   5.484  0.00  0.00    +0.293 HD
ENDBRANCH   4  33
BRANCH   2  35
ATOM     35  O   UNL     1      -2.123  -3.571   1.967  0.00  0.00    -0.356 OA
ATOM     36  H   UNL     1      -2.995  -3.837   2.291  0.00  0.00    +0.214 HD
ENDBRANCH   2  35
TORSDOF 5
