REMARK  Name = ZINC39710366
REMARK  12 active torsions:
REMARK  status: ('A' for Active; 'I' for Inactive)
REMARK    1  A    between atoms: C_1  and  C_2
REMARK    2  A    between atoms: C_9  and  C_14
REMARK    3  A    between atoms: C_14  and  C_16
REMARK    4  A    between atoms: C_14  and  N_26
REMARK    5  A    between atoms: N_21  and  C_22
REMARK    6  A    between atoms: C_22  and  C_23
REMARK    7  A    between atoms: C_22  and  C_24
REMARK    8  A    between atoms: C_22  and  C_25
REMARK    9  A    between atoms: N_26  and  C_27
REMARK   10  A    between atoms: N_26  and  C_33
REMARK   11  A    between atoms: C_27  and  C_28
REMARK   12  A    between atoms: C_33  and  C_34
REMARK                            x       y       z     vdW  Elec       q    Type
REMARK                         _______ _______ _______ _____ _____    ______ ____
ROOT
ATOM      1  C   UNL     1      -1.384  -4.997   3.345  0.00  0.00    -0.008 C 
ENDROOT
BRANCH   1  10
ATOM      2  C   UNL     1      -1.065   2.100   2.616  0.00  0.00    +0.044 C 
ATOM      3  C   UNL     1      -0.790   0.687   2.169  0.00  0.00    -0.050 A 
ATOM      4  C   UNL     1      -0.552   0.432   0.818  0.00  0.00    +0.005 A 
ATOM      5  C   UNL     1      -0.297  -0.814   0.342  0.00  0.00    +0.024 A 
ATOM      6  C   UNL     1      -0.262  -1.919   1.213  0.00  0.00    +0.040 A 
ATOM      7  N   UNL     1      -0.010  -3.137   0.734  0.00  0.00    -0.285 N 
ATOM      8  C   UNL     1       0.037  -4.217   1.496  0.00  0.00    +0.223 C 
ATOM      9  O   UNL     1       0.272  -5.303   1.002  0.00  0.00    -0.275 OA
ATOM     10  C   UNL     1      -0.202  -4.096   2.984  0.00  0.00    +0.088 C 
ATOM     11  C   UNL     1      -0.488  -2.712   3.534  0.00  0.00    -0.006 C 
ATOM     12  C   UNL     1      -0.509  -1.679   2.645  0.00  0.00    -0.007 A 
ATOM     13  C   UNL     1      -0.773  -0.310   3.091  0.00  0.00    +0.012 A 
ATOM     14  H   UNL     1       0.146  -3.236  -0.218  0.00  0.00    +0.155 HD
ENDBRANCH   1  10
BRANCH   1  15
ATOM     15  C   UNL     1      -2.614  -4.572   2.541  0.00  0.00    +0.205 C 
ATOM     16  N   UNL     1      -2.325  -4.614   1.101  0.00  0.00    -0.152 NA
ATOM     17  N   UNL     1      -2.455  -3.480   0.634  0.00  0.00    -0.070 NA
ATOM     18  N   UNL     1      -2.825  -2.538   1.594  0.00  0.00    -0.179 N 
ATOM     19  N   UNL     1      -2.944  -3.157   2.814  0.00  0.00    -0.183 NA
ATOM     20  H   UNL     1      -2.976  -1.595   1.426  0.00  0.00    +0.191 HD
BRANCH  19  21
ATOM     21  C   UNL     1      -4.309  -3.028   3.342  0.00  0.00    +0.035 C 
ATOM     22  C   UNL     1      -4.429  -3.820   4.645  0.00  0.00    +0.029 C 
ATOM     23  C   UNL     1      -4.614  -1.553   3.611  0.00  0.00    +0.029 C 
ATOM     24  C   UNL     1      -5.306  -3.576   2.318  0.00  0.00    +0.029 C 
ENDBRANCH  19  21
ENDBRANCH   1  15
BRANCH   1  25
ATOM     25  N   UNL     1      -1.050  -6.393   3.028  0.00  0.00    +0.392 N 
ATOM     26  H   UNL     1      -0.889  -6.483   2.036  0.00  0.00    -0.080 HD
BRANCH  25  27
ATOM     27  C   UNL     1       0.162  -6.785   3.759  0.00  0.00    -0.002 C 
BRANCH  27  28
ATOM     28  C   UNL     1      -0.020  -6.494   5.226  0.00  0.00    +0.089 A 
ATOM     29  C   UNL     1      -0.464  -7.364   6.151  0.00  0.00    +0.042 A 
ATOM     30  C   UNL     1      -0.479  -6.676   7.386  0.00  0.00    +0.041 A 
ATOM     31  C   UNL     1      -0.042  -5.427   7.142  0.00  0.00    +0.195 A 
ATOM     32  O   UNL     1       0.240  -5.324   5.833  0.00  0.00    -0.470 OA
ENDBRANCH  27  28
ENDBRANCH  25  27
BRANCH  25  33
ATOM     33  C   UNL     1      -2.164  -7.265   3.424  0.00  0.00    -0.034 C 
BRANCH  33  34
ATOM     34  C   UNL     1      -1.879  -8.676   2.981  0.00  0.00    -0.027 A 
ATOM     35  C   UNL     1      -1.329  -9.697   3.683  0.00  0.00    +0.009 A 
ATOM     36  C   UNL     1      -1.161 -10.922   3.065  0.00  0.00    +0.008 A 
ATOM     37  C   UNL     1      -1.550 -11.066   1.775  0.00  0.00    +0.045 A 
ATOM     38  S   UNL     1      -2.185  -9.441   1.397  0.00  0.00    -0.103 S 
ENDBRANCH  33  34
ENDBRANCH  25  33
ENDBRANCH   1  25
TORSDOF 8
