REMARK  Name = ZINC05345891
REMARK  9 active torsions:
REMARK  status: ('A' for Active; 'I' for Inactive)
REMARK    1  A    between atoms: C_1  and  C_2
REMARK    2  A    between atoms: C_2  and  C_3
REMARK    3  A    between atoms: C_3  and  C_4
REMARK    4  A    between atoms: C_4  and  N_5
REMARK    5  A    between atoms: C_10  and  C_28
REMARK    6  A    between atoms: C_20  and  C_27
REMARK    7  A    between atoms: C_21  and  C_26
REMARK    8  A    between atoms: C_28  and  C_29
REMARK    9  A    between atoms: C_29  and  C_30
REMARK                            x       y       z     vdW  Elec       q    Type
REMARK                         _______ _______ _______ _____ _____    ______ ____
ROOT
ATOM      1  N   UNL     1      -3.944   3.529   1.399  0.00  0.00    -0.242 N 
ATOM      2  C   UNL     1      -3.214   4.532   0.899  0.00  0.00    +0.224 C 
ATOM      3  O   UNL     1      -3.640   5.628   0.602  0.00  0.00    -0.275 OA
ATOM      4  C   UNL     1      -1.776   4.088   0.762  0.00  0.00    +0.073 C 
ATOM      5  C   UNL     1      -1.414   3.985  -0.734  0.00  0.00    -0.057 C 
ATOM      6  C   UNL     1      -1.467   1.778   0.032  0.00  0.00    +0.050 C 
ATOM      7  C   UNL     1      -1.804   2.619   1.270  0.00  0.00    +0.088 C 
ATOM      8  C   UNL     1      -3.253   2.410   1.646  0.00  0.00    +0.225 C 
ATOM      9  O   UNL     1      -3.718   1.386   2.101  0.00  0.00    -0.275 OA
ATOM     10  C   UNL     1      -0.017   1.387   0.010  0.00  0.00    -0.027 A 
ATOM     11  C   UNL     1       1.159   2.105   0.002  0.00  0.00    +0.005 A 
ATOM     12  C   UNL     1       2.374   1.444  -0.011  0.00  0.00    +0.004 A 
ATOM     13  C   UNL     1       2.404   0.061  -0.017  0.00  0.00    -0.046 A 
ATOM     14  C   UNL     1       1.230  -0.662  -0.011  0.00  0.00    -0.026 A 
ATOM     15  C   UNL     1       0.002  -0.004   0.002  0.00  0.00    +0.039 A 
ATOM     16  N   UNL     1      -1.302  -0.505   0.009  0.00  0.00    -0.286 N 
ATOM     17  C   UNL     1      -2.223   0.478   0.022  0.00  0.00    +0.211 C 
ATOM     18  O   UNL     1      -3.428   0.341   0.029  0.00  0.00    -0.277 OA
ATOM     19  C   UNL     1       1.275  -2.168  -0.018  0.00  0.00    +0.046 C 
ATOM     20  C   UNL     1       3.728  -0.659  -0.031  0.00  0.00    +0.044 C 
ATOM     21  H   UNL     1      -1.518  -1.450   0.004  0.00  0.00    +0.155 HD
ATOM     22  N   UNL     1      -1.806   2.622  -1.101  0.00  0.00    +0.394 N 
ATOM     23  H   UNL     1      -1.294   2.318  -1.936  0.00  0.00    -0.083 HD
ATOM     24  H   UNL     1      -2.816   2.581  -1.284  0.00  0.00    -0.083 HD
ENDROOT
BRANCH   1  25
ATOM     25  C   UNL     1      -5.382   3.645   1.655  0.00  0.00    +0.116 C 
BRANCH  25  26
ATOM     26  C   UNL     1      -5.607   4.151   3.081  0.00  0.00    +0.019 C 
BRANCH  26  28
ATOM     27  C   UNL     1      -7.333   4.778   4.775  0.00  0.00    +0.004 C 
ATOM     28  C   UNL     1      -7.108   4.272   3.348  0.00  0.00    -0.002 C 
ENDBRANCH  26  28
ENDBRANCH  25  26
ENDBRANCH   1  25
BRANCH   5  29
ATOM     29  C   UNL     1      -2.188   5.028  -1.543  0.00  0.00    -0.006 C 
BRANCH  29  30
ATOM     30  C   UNL     1      -1.723   4.992  -3.000  0.00  0.00    +0.094 C 
BRANCH  30  31
ATOM     31  C   UNL     1      -2.486   6.019  -3.796  0.00  0.00    +0.210 C 
ATOM     32  O   UNL     1      -3.319   6.712  -3.252  0.00  0.00    -0.276 OA
ATOM     33  N   UNL     1      -2.242   6.168  -5.113  0.00  0.00    -0.329 N 
ATOM     34  H   UNL     1      -1.575   5.614  -5.548  0.00  0.00    +0.145 HD
ATOM     35  H   UNL     1      -2.733   6.829  -5.626  0.00  0.00    +0.145 HD
ENDBRANCH  30  31
ENDBRANCH  29  30
ENDBRANCH   5  29
TORSDOF 6
