REMARK  Name = ZINC63375931
REMARK  5 active torsions:
REMARK  status: ('A' for Active; 'I' for Inactive)
REMARK    1  A    between atoms: C_2  and  C_3
REMARK    2  A    between atoms: C_3  and  N_4
REMARK    3  A    between atoms: C_5  and  C_7
REMARK    4  A    between atoms: C_12  and  N_13
REMARK    5  A    between atoms: C_29  and  C_34
REMARK                            x       y       z     vdW  Elec       q    Type
REMARK                         _______ _______ _______ _____ _____    ______ ____
ROOT
ATOM      1  N   UNL     1       4.909  -4.442   1.918  0.00  0.00    -0.192 N 
ATOM      2  C   UNL     1       5.926  -3.571   2.088  0.00  0.00    +0.248 C 
ATOM      3  O   UNL     1       6.103  -2.827   3.028  0.00  0.00    -0.273 OA
ATOM      4  C   UNL     1       6.798  -3.718   0.861  0.00  0.00    +0.169 C 
ATOM      5  C   UNL     1       6.910  -2.367   0.131  0.00  0.00    +0.065 C 
ATOM      6  C   UNL     1       7.248  -2.686  -1.306  0.00  0.00    -0.034 C 
ATOM      7  C   UNL     1       8.245  -2.261  -2.075  0.00  0.00    -0.001 A 
ATOM      8  C   UNL     1       9.304  -1.267  -1.843  0.00  0.00    +0.010 A 
ATOM      9  C   UNL     1      10.191  -1.087  -2.858  0.00  0.00    +0.001 A 
ATOM     10  C   UNL     1      10.128  -1.788  -4.067  0.00  0.00    +0.002 A 
ATOM     11  C   UNL     1       9.183  -2.714  -4.369  0.00  0.00    +0.026 A 
ATOM     12  C   UNL     1       8.191  -2.985  -3.382  0.00  0.00    +0.043 A 
ATOM     13  N   UNL     1       7.175  -3.795  -3.411  0.00  0.00    -0.375 N 
ATOM     14  C   UNL     1       6.431  -3.648  -2.159  0.00  0.00    +0.131 C 
ATOM     15  C   UNL     1       6.355  -4.974  -1.389  0.00  0.00    +0.135 C 
ATOM     16  N   UNL     1       6.037  -4.658   0.014  0.00  0.00    -0.264 N 
ATOM     17  C   UNL     1       5.000  -5.085   0.746  0.00  0.00    +0.317 C 
ATOM     18  O   UNL     1       4.228  -5.954   0.387  0.00  0.00    -0.252 OA
ATOM     19  H   UNL     1       6.949  -4.395  -4.139  0.00  0.00    +0.160 HD
ENDROOT
BRANCH  15  20
ATOM     20  C   UNL     1       5.279  -5.851  -1.977  0.00  0.00    -0.023 A 
ATOM     21  C   UNL     1       3.975  -5.396  -2.039  0.00  0.00    +0.005 A 
ATOM     22  C   UNL     1       2.988  -6.200  -2.579  0.00  0.00    +0.002 A 
ATOM     23  C   UNL     1       3.304  -7.458  -3.057  0.00  0.00    +0.020 A 
ATOM     24  C   UNL     1       4.609  -7.912  -2.995  0.00  0.00    +0.041 A 
ATOM     25  C   UNL     1       5.598  -7.106  -2.460  0.00  0.00    +0.025 A 
ATOM     26 CL   UNL     1       5.008  -9.492  -3.595  0.00  0.00    -0.084 Cl
ENDBRANCH  15  20
BRANCH   1  32
ATOM     27  C   UNL     1       2.716  -3.889   2.795  0.00  0.00    +0.059 A 
ATOM     28  C   UNL     1       1.704  -4.112   3.731  0.00  0.00    +0.015 A 
ATOM     29  C   UNL     1       1.867  -5.074   4.704  0.00  0.00    +0.001 A 
ATOM     30  C   UNL     1       3.032  -5.821   4.760  0.00  0.00    +0.002 A 
ATOM     31  C   UNL     1       4.041  -5.612   3.842  0.00  0.00    +0.025 A 
ATOM     32  C   UNL     1       3.891  -4.652   2.851  0.00  0.00    +0.058 A 
BRANCH  27  34
ATOM     33  N   UNL     1       1.417  -2.131   1.699  0.00  0.00    -0.308 N 
ATOM     34  C   UNL     1       2.548  -2.861   1.750  0.00  0.00    +0.246 C 
ATOM     35  O   UNL     1       3.430  -2.674   0.934  0.00  0.00    -0.270 OA
ATOM     36  H   UNL     1       0.713  -2.280   2.350  0.00  0.00    +0.149 HD
BRANCH  33  37
ATOM     37  C   UNL     1       1.249  -1.110   0.661  0.00  0.00    +0.131 C 
BRANCH  37  39
ATOM     38  C   UNL     1      -0.164   0.861   0.943  0.00  0.00    +0.005 C 
ATOM     39  C   UNL     1      -0.091  -0.442   0.825  0.00  0.00    -0.016 C 
ENDBRANCH  37  39
ENDBRANCH  33  37
ENDBRANCH  27  34
ENDBRANCH   1  32
TORSDOF 5
