REMARK  Name = ZINC38567452
REMARK  5 active torsions:
REMARK  status: ('A' for Active; 'I' for Inactive)
REMARK    1  A    between atoms: C_6  and  C_10
REMARK    2  A    between atoms: N_14  and  C_18
REMARK    3  A    between atoms: C_18  and  C_20
REMARK    4  A    between atoms: C_18  and  C_24
REMARK    5  A    between atoms: C_20  and  C_21
REMARK                            x       y       z     vdW  Elec       q    Type
REMARK                         _______ _______ _______ _____ _____    ______ ____
ROOT
ATOM      1  C   UNL     1       3.559  -2.789   1.188  0.00  0.00    +0.039 C 
ATOM      2  C   UNL     1       4.317  -3.884   1.059  0.00  0.00    +0.076 C 
ATOM      3  C   UNL     1       4.902  -4.759   2.106  0.00  0.00    +0.259 C 
ATOM      4  O   UNL     1       4.731  -4.543   3.290  0.00  0.00    -0.269 OA
ATOM      5  N   UNL     1       5.618  -5.786   1.681  0.00  0.00    -0.241 N 
ATOM      6  C   UNL     1       5.804  -6.022   0.367  0.00  0.00    +0.121 C 
ATOM      7  S   UNL     1       6.690  -7.288  -0.369  0.00  0.00    -0.027 S 
ATOM      8  S   UNL     1       4.899  -4.700  -0.421  0.00  0.00    -0.061 S 
ENDROOT
BRANCH   1  14
ATOM      9  C   UNL     1      -0.016   1.344   0.009  0.00  0.00    +0.002 A 
ATOM     10  C   UNL     1       1.158   2.118   0.002  0.00  0.00    +0.002 A 
ATOM     11  C   UNL     1       2.389   1.570  -0.013  0.00  0.00    +0.027 A 
ATOM     12  C   UNL     1       2.533   0.108  -0.022  0.00  0.00    +0.060 A 
ATOM     13  N   UNL     1       3.569  -0.680  -0.036  0.00  0.00    -0.360 N 
ATOM     14  C   UNL     1       3.071  -2.062  -0.039  0.00  0.00    +0.200 C 
ATOM     15  N   UNL     1       1.606  -1.974  -0.024  0.00  0.00    -0.360 N 
ATOM     16  C   UNL     1       1.290  -0.712  -0.014  0.00  0.00    +0.060 A 
ATOM     17  C   UNL     1       0.002  -0.004   0.002  0.00  0.00    +0.027 A 
ATOM     18  H   UNL     1       4.499  -0.405  -0.045  0.00  0.00    +0.162 HD
ATOM     19  H   UNL     1       0.987  -2.721  -0.022  0.00  0.00    +0.162 HD
ENDBRANCH   1  14
BRANCH   5  20
ATOM     20  C   UNL     1       6.224  -6.690   2.663  0.00  0.00    +0.204 C 
BRANCH  20  21
ATOM     21  C   UNL     1       5.695  -8.086   2.454  0.00  0.00    +0.377 C 
ATOM     22  O   UNL     1       5.362  -8.451   1.339  0.00  0.00    -0.244 OA
ATOM     23  O   UNL     1       5.601  -8.850   3.399  0.00  0.00    -0.244 OA
ENDBRANCH  20  21
BRANCH  20  24
ATOM     24  C   UNL     1       7.744  -6.689   2.487  0.00  0.00    +0.130 C 
BRANCH  24  25
ATOM     25  C   UNL     1       8.286  -5.322   2.816  0.00  0.00    +0.213 C 
ATOM     26  O   UNL     1       7.531  -4.436   3.157  0.00  0.00    -0.276 OA
ATOM     27  N   UNL     1       9.610  -5.083   2.731  0.00  0.00    -0.329 N 
ATOM     28  H   UNL     1      10.213  -5.792   2.458  0.00  0.00    +0.145 HD
ATOM     29  H   UNL     1       9.959  -4.203   2.942  0.00  0.00    +0.145 HD
ENDBRANCH  24  25
ENDBRANCH  20  24
ENDBRANCH   5  20
TORSDOF 5
