REMARK  Name = ZINC40555941
REMARK  8 active torsions:
REMARK  status: ('A' for Active; 'I' for Inactive)
REMARK    1  A    between atoms: C_1  and  C_2
REMARK    2  A    between atoms: C_2  and  N_3
REMARK    3  A    between atoms: N_3  and  C_4
REMARK    4  A    between atoms: N_3  and  C_6
REMARK    5  A    between atoms: C_4  and  C_5
REMARK    6  A    between atoms: C_6  and  C_7
REMARK    7  A    between atoms: C_7  and  N_8
REMARK    8  A    between atoms: C_9  and  C_28
REMARK                            x       y       z     vdW  Elec       q    Type
REMARK                         _______ _______ _______ _____ _____    ______ ____
ROOT
ATOM      1  N   UNL     1       2.336  -3.538  -0.352  0.00  0.00    -0.285 N 
ATOM      2  C   UNL     1       3.519  -4.198   0.224  0.00  0.00    +0.144 C 
ATOM      3  C   UNL     1       3.412  -5.636  -0.164  0.00  0.00    +0.072 A 
ATOM      4  C   UNL     1       4.289  -6.779   0.104  0.00  0.00    +0.199 A 
ATOM      5  O   UNL     1       5.222  -6.735   0.887  0.00  0.00    -0.287 OA
ATOM      6  C   UNL     1       3.935  -7.995  -0.668  0.00  0.00    +0.065 A 
ATOM      7  C   UNL     1       4.803  -9.101  -0.675  0.00  0.00    +0.016 A 
ATOM      8  C   UNL     1       4.499 -10.217  -1.381  0.00  0.00    +0.009 A 
ATOM      9  C   UNL     1       3.299 -10.281  -2.120  0.00  0.00    -0.014 A 
ATOM     10  C   UNL     1       2.972 -11.428  -2.861  0.00  0.00    +0.008 A 
ATOM     11  C   UNL     1       1.806 -11.468  -3.566  0.00  0.00    +0.001 A 
ATOM     12  C   UNL     1       0.931 -10.386  -3.564  0.00  0.00    +0.001 A 
ATOM     13  C   UNL     1       1.217  -9.256  -2.857  0.00  0.00    +0.012 A 
ATOM     14  C   UNL     1       2.409  -9.181  -2.121  0.00  0.00    +0.025 A 
ATOM     15  C   UNL     1       2.734  -8.017  -1.381  0.00  0.00    +0.147 A 
ATOM     16  O   UNL     1       1.874  -6.976  -1.388  0.00  0.00    -0.449 OA
ATOM     17  C   UNL     1       2.265  -5.787  -0.892  0.00  0.00    +0.199 A 
ATOM     18  C   UNL     1       1.608  -4.473  -0.996  0.00  0.00    +0.283 C 
ATOM     19  O   UNL     1       0.564  -4.261  -1.580  0.00  0.00    -0.267 OA
ENDROOT
BRANCH   2  20
ATOM     20  C   UNL     1       4.778  -3.597  -0.344  0.00  0.00    -0.021 A 
ATOM     21  C   UNL     1       4.840  -3.260  -1.684  0.00  0.00    +0.006 A 
ATOM     22  C   UNL     1       5.995  -2.709  -2.206  0.00  0.00    +0.001 A 
ATOM     23  C   UNL     1       7.089  -2.494  -1.389  0.00  0.00    +0.015 A 
ATOM     24  C   UNL     1       7.028  -2.830  -0.049  0.00  0.00    +0.018 A 
ATOM     25  C   UNL     1       5.870  -3.377   0.474  0.00  0.00    +0.021 A 
ATOM     26 BR   UNL     1       8.524  -2.537   1.069  0.00  0.00    -0.050 Br
ENDBRANCH   2  20
BRANCH   1  27
ATOM     27  C   UNL     1       2.004  -2.115  -0.240  0.00  0.00    +0.090 C 
BRANCH  27  28
ATOM     28  C   UNL     1       1.156  -1.887   1.013  0.00  0.00    -0.060 C 
BRANCH  28  29
ATOM     29  N   UNL     1       0.823  -0.461   1.126  0.00  0.00    +0.380 N 
ATOM     30  H   UNL     1       1.671   0.085   1.109  0.00  0.00    -0.082 HD
BRANCH  29  32
ATOM     31  C   UNL     1      -0.264   1.445   0.037  0.00  0.00    -0.017 C 
ATOM     32  C   UNL     1      -0.034  -0.067  -0.001  0.00  0.00    -0.082 C 
ENDBRANCH  29  32
BRANCH  29  33
ATOM     33  C   UNL     1       0.111  -0.222   2.389  0.00  0.00    -0.082 C 
ATOM     34  C   UNL     1       1.053  -0.495   3.563  0.00  0.00    -0.017 C 
ENDBRANCH  29  33
ENDBRANCH  28  29
ENDBRANCH  27  28
ENDBRANCH   1  27
TORSDOF 6
