REMARK  Name = ZINC47628514
REMARK  6 active torsions:
REMARK  status: ('A' for Active; 'I' for Inactive)
REMARK    1  A    between atoms: C_1  and  N_2
REMARK    2  A    between atoms: N_2  and  C_3
REMARK    3  A    between atoms: N_2  and  C_7
REMARK    4  A    between atoms: C_3  and  C_4
REMARK    5  A    between atoms: C_7  and  C_8
REMARK    6  A    between atoms: N_10  and  C_11
REMARK                            x       y       z     vdW  Elec       q    Type
REMARK                         _______ _______ _______ _____ _____    ______ ____
ROOT
ATOM      1  C   UNL     1      -0.107  -0.086  -2.424  0.00  0.00    +0.201 C 
ATOM      2  O   UNL     1      -1.141   0.534  -2.297  0.00  0.00    -0.278 OA
ATOM      3  N   UNL     1       0.336  -0.414  -3.654  0.00  0.00    -0.286 N 
ATOM      4  H   UNL     1       1.201  -0.839  -3.760  0.00  0.00    +0.155 HD
ENDROOT
BRANCH   3   5
ATOM      5  C   UNL     1      -0.453  -0.141  -4.778  0.00  0.00    +0.052 A 
ATOM      6  C   UNL     1      -1.831  -0.029  -4.651  0.00  0.00    +0.026 A 
ATOM      7  C   UNL     1      -2.606   0.241  -5.761  0.00  0.00    +0.017 A 
ATOM      8  C   UNL     1      -2.012   0.400  -7.000  0.00  0.00    +0.019 A 
ATOM      9  C   UNL     1      -0.639   0.288  -7.131  0.00  0.00    +0.037 A 
ATOM     10  C   UNL     1       0.143   0.025  -6.022  0.00  0.00    +0.063 A 
ATOM     11 CL   UNL     1       1.866  -0.107  -6.186  0.00  0.00    -0.082 Cl
ATOM     12 BR   UNL     1      -3.078   0.768  -8.518  0.00  0.00    -0.050 Br
ENDBRANCH   3   5
BRANCH   1  13
ATOM     13  C   UNL     1       0.682  -0.491  -1.206  0.00  0.00    +0.019 C 
BRANCH  13  15
ATOM     14  C   UNL     1      -0.017   1.450   0.018  0.00  0.00    -0.095 C 
ATOM     15  N   UNL     1      -0.006  -0.019   0.003  0.00  0.00    +0.389 N 
ATOM     16  H   UNL     1      -0.955  -0.363   0.006  0.00  0.00    -0.081 HD
BRANCH  15  17
ATOM     17  C   UNL     1       0.698  -0.516   1.193  0.00  0.00    +0.019 C 
BRANCH  17  18
ATOM     18  C   UNL     1      -0.075  -0.136   2.429  0.00  0.00    +0.194 C 
ATOM     19  O   UNL     1      -1.111   0.487   2.329  0.00  0.00    -0.278 OA
ATOM     20  N   UNL     1       0.385  -0.488   3.646  0.00  0.00    -0.331 N 
ATOM     21  H   UNL     1       1.213  -0.987   3.726  0.00  0.00    +0.145 HD
ATOM     22  H   UNL     1      -0.113  -0.243   4.442  0.00  0.00    +0.145 HD
ENDBRANCH  17  18
ENDBRANCH  15  17
ENDBRANCH  13  15
ENDBRANCH   1  13
TORSDOF 5
