REMARK  Name = ZINC20060419
REMARK  5 active torsions:
REMARK  status: ('A' for Active; 'I' for Inactive)
REMARK    1  A    between atoms: C_1  and  C_2
REMARK    2  A    between atoms: C_5  and  N_9
REMARK    3  A    between atoms: C_10  and  C_12
REMARK    4  A    between atoms: C_14  and  C_24
REMARK    5  A    between atoms: C_18  and  C_23
REMARK                            x       y       z     vdW  Elec       q    Type
REMARK                         _______ _______ _______ _____ _____    ______ ____
ROOT
ATOM      1  C   UNL     1      -0.003   0.010   0.001  0.00  0.00    +0.166 C 
ATOM      2  C   UNL     1       1.041  -0.436  -1.030  0.00  0.00    +0.140 C 
ATOM      3  N   UNL     1       2.393  -0.171  -0.537  0.00  0.00    -0.272 N 
ATOM      4  N   UNL     1       2.631   1.139  -0.269  0.00  0.00    -0.225 N 
ATOM      5  C   UNL     1       3.840   1.769  -0.194  0.00  0.00    +0.148 A 
ATOM      6  N   UNL     1       3.609   3.019   0.100  0.00  0.00    -0.132 NA
ATOM      7  N   UNL     1       2.341   3.222   0.211  0.00  0.00    -0.121 NA
ATOM      8  C   UNL     1       1.702   2.107  -0.010  0.00  0.00    +0.209 A 
ATOM      9  S   UNL     1      -0.041   1.828   0.005  0.00  0.00    -0.069 S 
ATOM     10  C   UNL     1       5.191   1.137  -0.410  0.00  0.00    +0.090 C 
ATOM     11  H   UNL     1       3.107  -1.000  -0.415  0.00  0.00    +0.167 HD
ENDROOT
BRANCH   2  12
ATOM     12  C   UNL     1       0.886  -1.912  -1.290  0.00  0.00    -0.024 A 
ATOM     13  C   UNL     1       1.423  -2.829  -0.405  0.00  0.00    +0.007 A 
ATOM     14  C   UNL     1       1.276  -4.184  -0.640  0.00  0.00    +0.020 A 
ATOM     15  C   UNL     1       0.601  -4.621  -1.766  0.00  0.00    +0.041 A 
ATOM     16  C   UNL     1       0.070  -3.703  -2.653  0.00  0.00    +0.020 A 
ATOM     17  C   UNL     1       0.212  -2.349  -2.415  0.00  0.00    +0.007 A 
ATOM     18 CL   UNL     1       0.423  -6.322  -2.065  0.00  0.00    -0.084 Cl
ENDBRANCH   2  12
BRANCH   1  20
ATOM     19  N   UNL     1      -2.277  -0.776   0.575  0.00  0.00    -0.284 N 
ATOM     20  C   UNL     1      -1.358  -0.527  -0.380  0.00  0.00    +0.233 C 
ATOM     21  O   UNL     1      -1.623  -0.736  -1.545  0.00  0.00    -0.274 OA
ATOM     22  H   UNL     1      -2.009  -0.674   1.637  0.00  0.00    +0.155 HD
BRANCH  19  27
ATOM     23  C   UNL     1      -7.529  -2.350  -0.885  0.00  0.00    +0.044 C 
ATOM     24  C   UNL     1      -6.134  -1.932  -0.497  0.00  0.00    -0.049 A 
ATOM     25  C   UNL     1      -5.361  -1.205  -1.383  0.00  0.00    +0.005 A 
ATOM     26  C   UNL     1      -4.083  -0.816  -1.029  0.00  0.00    +0.024 A 
ATOM     27  C   UNL     1      -3.572  -1.165   0.214  0.00  0.00    +0.047 A 
ATOM     28  C   UNL     1      -4.352  -1.896   1.102  0.00  0.00    +0.039 A 
ATOM     29  C   UNL     1      -5.631  -2.277   0.744  0.00  0.00    +0.020 A 
ATOM     30 BR   UNL     1      -3.665  -2.367   2.800  0.00  0.00    -0.048 Br
ENDBRANCH  19  27
ENDBRANCH   1  20
TORSDOF 3
