REMARK  Name = ZINC26298016
REMARK  12 active torsions:
REMARK  status: ('A' for Active; 'I' for Inactive)
REMARK    1  A    between atoms: C_1  and  C_2
REMARK    2  A    between atoms: C_2  and  C_4
REMARK    3  A    between atoms: C_2  and  N_14
REMARK    4  A    between atoms: C_7  and  S_10
REMARK    5  A    between atoms: S_10  and  N_13
REMARK    6  A    between atoms: N_14  and  C_15
REMARK    7  A    between atoms: N_14  and  C_16
REMARK    8  A    between atoms: C_16  and  C_17
REMARK    9  A    between atoms: C_17  and  C_19
REMARK   10  A    between atoms: C_21  and  C_30
REMARK   11  A    between atoms: C_21  and  C_31
REMARK   12  A    between atoms: N_28  and  C_29
REMARK                            x       y       z     vdW  Elec       q    Type
REMARK                         _______ _______ _______ _____ _____    ______ ____
ROOT
ATOM      1  N   UNL     1       1.694   1.269  -6.706  0.00  0.00    +0.387 N 
ATOM      2  C   UNL     1       1.408  -0.126  -6.346  0.00  0.00    -0.095 C 
ATOM      3  H   UNL     1       2.083   1.776  -5.811  0.00  0.00    -0.081 HD
ENDROOT
BRANCH   1   5
ATOM      4  C   UNL     1       3.067   2.807  -8.027  0.00  0.00    -0.008 C 
ATOM      5  C   UNL     1       2.726   1.342  -7.750  0.00  0.00    -0.041 C 
BRANCH   5   6
ATOM      6  C   UNL     1       3.963   0.617  -7.285  0.00  0.00    -0.061 A 
ATOM      7  C   UNL     1       4.383   0.738  -5.973  0.00  0.00    +0.004 A 
ATOM      8  C   UNL     1       5.515   0.069  -5.546  0.00  0.00    +0.029 A 
ATOM      9  C   UNL     1       6.232  -0.711  -6.433  0.00  0.00    +0.105 A 
ATOM     10  C   UNL     1       5.816  -0.828  -7.745  0.00  0.00    +0.029 A 
ATOM     11  C   UNL     1       4.681  -0.163  -8.172  0.00  0.00    +0.004 A 
BRANCH   9  12
ATOM     12  S   UNL     1       7.679  -1.558  -5.890  0.00  0.00    +0.056 S 
ATOM     13  O   UNL     1       7.550  -1.723  -4.484  0.00  0.00    -0.153 OA
ATOM     14  O   UNL     1       7.863  -2.656  -6.772  0.00  0.00    -0.153 OA
BRANCH  12  15
ATOM     15  N   UNL     1       8.962  -0.538  -6.130  0.00  0.00    -0.204 NA
ATOM     16  H   UNL     1       9.889  -1.032  -5.802  0.00  0.00    +0.144 HD
ATOM     17  H   UNL     1       8.812   0.383  -5.548  0.00  0.00    +0.144 HD
ENDBRANCH  12  15
ENDBRANCH   9  12
ENDBRANCH   5   6
ENDBRANCH   1   5
BRANCH   1  18
ATOM     18  C   UNL     1       0.471   1.966  -7.125  0.00  0.00    +0.002 C 
BRANCH  18  19
ATOM     19  C   UNL     1      -0.467   2.084  -5.951  0.00  0.00    +0.141 C 
ATOM     20  O   UNL     1      -0.147   1.631  -4.870  0.00  0.00    -0.295 OA
BRANCH  19  21
ATOM     21  C   UNL     1      -1.708   2.717  -6.107  0.00  0.00    +0.064 C 
ATOM     22  C   UNL     1      -2.502   2.927  -5.028  0.00  0.00    +0.024 C 
ATOM     23  C   UNL     1      -2.237   2.467  -3.611  0.00  0.00    +0.030 C 
ATOM     24  C   UNL     1      -3.431   2.966  -2.830  0.00  0.00    -0.015 A 
ATOM     25  C   UNL     1      -3.783   2.872  -1.502  0.00  0.00    +0.006 A 
ATOM     26  C   UNL     1      -4.965   3.439  -1.059  0.00  0.00    +0.000 A 
ATOM     27  C   UNL     1      -5.790   4.098  -1.953  0.00  0.00    +0.002 A 
ATOM     28  C   UNL     1      -5.440   4.194  -3.284  0.00  0.00    +0.024 A 
ATOM     29  C   UNL     1      -4.250   3.626  -3.738  0.00  0.00    +0.038 A 
ATOM     30  N   UNL     1      -3.686   3.595  -5.012  0.00  0.00    -0.305 N 
ATOM     31  C   UNL     1      -4.298   4.207  -6.194  0.00  0.00    +0.135 C 
ATOM     32  C   UNL     1      -2.157   0.940  -3.549  0.00  0.00    +0.022 C 
ATOM     33  C   UNL     1      -0.947   3.094  -3.077  0.00  0.00    +0.022 C 
ENDBRANCH  19  21
ENDBRANCH  18  19
ENDBRANCH   1  18
TORSDOF 7
