REMARK  Name = ZINC39325513
REMARK  6 active torsions:
REMARK  status: ('A' for Active; 'I' for Inactive)
REMARK    1  A    between atoms: C_4  and  C_7
REMARK    2  A    between atoms: C_7  and  N_8
REMARK    3  A    between atoms: N_8  and  C_9
REMARK    4  A    between atoms: N_8  and  S_26
REMARK    5  A    between atoms: C_9  and  C_10
REMARK    6  A    between atoms: S_26  and  C_29
REMARK                            x       y       z     vdW  Elec       q    Type
REMARK                         _______ _______ _______ _____ _____    ______ ____
ROOT
ATOM      1  N   UNL     1       4.213  -0.805   1.384  0.00  0.00    -0.171 NA
ENDROOT
BRANCH   1   2
ATOM      2  S   UNL     1       4.280   0.760   1.919  0.00  0.00    +0.063 S 
ATOM      3  O   UNL     1       5.236   0.790   2.970  0.00  0.00    -0.153 OA
ATOM      4  O   UNL     1       4.393   1.580   0.764  0.00  0.00    -0.153 OA
BRANCH   2   5
ATOM      5  C   UNL     1       2.719   1.129   2.648  0.00  0.00    +0.124 A 
ATOM      6  C   UNL     1       2.639   1.435   3.994  0.00  0.00    +0.030 A 
ATOM      7  C   UNL     1       1.415   1.724   4.566  0.00  0.00    +0.002 A 
ATOM      8  C   UNL     1       0.269   1.708   3.792  0.00  0.00    +0.002 A 
ATOM      9  C   UNL     1       0.347   1.403   2.447  0.00  0.00    +0.022 A 
ATOM     10  C   UNL     1       1.573   1.119   1.873  0.00  0.00    +0.067 A 
ATOM     11 CL   UNL     1       1.674   0.741   0.181  0.00  0.00    -0.082 Cl
ENDBRANCH   2   5
ENDBRANCH   1   2
BRANCH   1  12
ATOM     12  C   UNL     1       5.396  -1.424   0.781  0.00  0.00    +0.144 C 
BRANCH  12  16
ATOM     13  C   UNL     1       4.955  -1.499  -3.467  0.00  0.00    +0.000 A 
ATOM     14  C   UNL     1       5.663  -0.476  -2.864  0.00  0.00    +0.000 A 
ATOM     15  C   UNL     1       5.805  -0.452  -1.489  0.00  0.00    +0.005 A 
ATOM     16  C   UNL     1       5.240  -1.450  -0.718  0.00  0.00    -0.032 A 
ATOM     17  C   UNL     1       4.531  -2.472  -1.322  0.00  0.00    +0.005 A 
ATOM     18  C   UNL     1       4.390  -2.497  -2.696  0.00  0.00    +0.000 A 
ENDBRANCH  12  16
ENDBRANCH   1  12
BRANCH   1  19
ATOM     19  C   UNL     1       2.971  -1.571   1.514  0.00  0.00    +0.126 C 
BRANCH  19  20
ATOM     20  C   UNL     1       3.205  -2.768   2.438  0.00  0.00    +0.114 C 
ATOM     21  C   UNL     1       2.035  -3.718   2.273  0.00  0.00    -0.003 C 
ATOM     22  C   UNL     1       1.316  -4.024   3.386  0.00  0.00    -0.003 A 
ATOM     23  C   UNL     1       0.170  -4.932   3.312  0.00  0.00    +0.059 A 
ATOM     24  C   UNL     1      -0.529  -5.218   4.443  0.00  0.00    +0.163 A 
ATOM     25  C   UNL     1      -0.167  -4.658   5.685  0.00  0.00    +0.164 A 
ATOM     26  C   UNL     1       0.903  -3.794   5.806  0.00  0.00    +0.073 A 
ATOM     27  C   UNL     1       1.676  -3.444   4.693  0.00  0.00    +0.044 A 
ATOM     28  N   UNL     1       2.707  -2.607   4.834  0.00  0.00    -0.284 N 
ATOM     29  C   UNL     1       3.477  -2.236   3.827  0.00  0.00    +0.225 C 
ATOM     30  O   UNL     1       4.403  -1.470   4.017  0.00  0.00    -0.275 OA
ATOM     31  O   UNL     1      -0.873  -4.965   6.806  0.00  0.00    -0.485 OA
ATOM     32  C   UNL     1      -2.173  -5.529   6.618  0.00  0.00    +0.270 C 
ATOM     33  C   UNL     1      -2.068  -6.643   5.568  0.00  0.00    +0.270 C 
ATOM     34  O   UNL     1      -1.594  -6.064   4.348  0.00  0.00    -0.485 OA
ATOM     35  H   UNL     1       2.899  -2.254   5.717  0.00  0.00    +0.155 HD
ENDBRANCH  19  20
ENDBRANCH   1  19
TORSDOF 6
