REMARK  Name = ZINC09553483
REMARK  6 active torsions:
REMARK  status: ('A' for Active; 'I' for Inactive)
REMARK    1  A    between atoms: C_1  and  C_2
REMARK    2  A    between atoms: C_6  and  N_9
REMARK    3  A    between atoms: C_7  and  C_8
REMARK    4  A    between atoms: C_10  and  C_12
REMARK    5  A    between atoms: C_17  and  O_18
REMARK    6  A    between atoms: N_23  and  O_24
REMARK                            x       y       z     vdW  Elec       q    Type
REMARK                         _______ _______ _______ _____ _____    ______ ____
ROOT
ATOM      1  C   UNL     1      -3.668   1.716   0.067  0.00  0.00    +0.100 A 
ATOM      2  C   UNL     1      -2.461   1.013   0.039  0.00  0.00    +0.030 A 
ATOM      3  C   UNL     1      -1.260   1.742   0.043  0.00  0.00    +0.018 A 
ATOM      4  C   UNL     1      -0.018   1.077   0.021  0.00  0.00    +0.015 A 
ATOM      5  C   UNL     1       1.134   1.793   0.031  0.00  0.00    +0.046 A 
ATOM      6  C   UNL     1       1.097   3.201   0.069  0.00  0.00    +0.120 A 
ATOM      7  C   UNL     1      -0.129   3.875   0.097  0.00  0.00    +0.092 A 
ATOM      8  C   UNL     1      -1.307   3.156   0.087  0.00  0.00    +0.141 A 
ATOM      9  O   UNL     1      -2.496   3.796   0.113  0.00  0.00    -0.436 OA
ATOM     10  C   UNL     1      -3.651   3.120   0.104  0.00  0.00    +0.239 A 
ATOM     11  N   UNL     1      -4.825   3.803   0.131  0.00  0.00    -0.196 N 
ATOM     12  H   UNL     1      -5.731   3.324   0.530  0.00  0.00    +0.210 HD
ENDROOT
BRANCH   1  14
ATOM     13  N   UNL     1      -4.962  -0.355   0.143  0.00  0.00    -0.281 N 
ATOM     14  C   UNL     1      -4.949   0.990   0.058  0.00  0.00    +0.253 C 
ATOM     15  O   UNL     1      -5.996   1.605  -0.027  0.00  0.00    -0.270 OA
ATOM     16  H   UNL     1      -4.022  -0.906   0.292  0.00  0.00    +0.155 HD
BRANCH  13  22
ATOM     17  C   UNL     1      -7.447  -4.331  -1.335  0.00  0.00    +0.044 C 
ATOM     18  C   UNL     1      -7.405  -2.980  -0.669  0.00  0.00    -0.046 A 
ATOM     19  C   UNL     1      -8.564  -2.425  -0.157  0.00  0.00    +0.004 A 
ATOM     20  C   UNL     1      -8.530  -1.186   0.454  0.00  0.00    +0.002 A 
ATOM     21  C   UNL     1      -7.337  -0.496   0.555  0.00  0.00    +0.023 A 
ATOM     22  C   UNL     1      -6.172  -1.050   0.043  0.00  0.00    +0.037 A 
ATOM     23  C   UNL     1      -6.210  -2.293  -0.576  0.00  0.00    -0.026 A 
ATOM     24  C   UNL     1      -4.949  -2.895  -1.139  0.00  0.00    +0.046 C 
ENDBRANCH  13  22
ENDBRANCH   1  14
BRANCH   6  25
ATOM     25  O   UNL     1       2.143   3.839   0.078  0.00  0.00    -0.507 OA
ATOM     26  H   UNL     1       2.117   4.939   0.107  0.00  0.00    +0.292 HD
ENDBRANCH   6  25
BRANCH  11  27
ATOM     27  O   UNL     1      -4.883   5.132  -0.355  0.00  0.00    -0.431 OA
ATOM     28  H   UNL     1      -5.833   5.685  -0.333  0.00  0.00    +0.325 HD
ENDBRANCH  11  27
TORSDOF 4
