REMARK  Name = ZINC06025233
REMARK  11 active torsions:
REMARK  status: ('A' for Active; 'I' for Inactive)
REMARK    1  A    between atoms: C_1  and  C_2
REMARK    2  A    between atoms: C_2  and  O_3
REMARK    3  A    between atoms: O_3  and  C_4
REMARK    4  A    between atoms: C_9  and  C_10
REMARK    5  A    between atoms: C_11  and  C_12
REMARK    6  A    between atoms: N_14  and  C_15
REMARK    7  A    between atoms: C_18  and  S_21
REMARK    8  A    between atoms: S_21  and  N_24
REMARK    9  A    between atoms: N_24  and  C_25
REMARK   10  A    between atoms: C_26  and  C_31
REMARK   11  A    between atoms: C_27  and  C_30
REMARK                            x       y       z     vdW  Elec       q    Type
REMARK                         _______ _______ _______ _____ _____    ______ ____
ROOT
ATOM      1  C   UNL     1      -0.914   6.908   5.116  0.00  0.00    +0.034 A 
ATOM      2  C   UNL     1      -2.253   6.952   4.748  0.00  0.00    +0.025 A 
ATOM      3  C   UNL     1      -2.990   5.786   4.693  0.00  0.00    +0.030 A 
ATOM      4  C   UNL     1      -2.398   4.576   5.003  0.00  0.00    +0.109 A 
ATOM      5  C   UNL     1      -1.067   4.529   5.376  0.00  0.00    +0.030 A 
ATOM      6  C   UNL     1      -0.322   5.691   5.428  0.00  0.00    +0.025 A 
ENDROOT
BRANCH   1   9
ATOM      7  C   UNL     1       1.147   8.068   4.862  0.00  0.00    +0.241 C 
ATOM      8  O   UNL     1       1.657   7.046   4.439  0.00  0.00    -0.270 OA
ATOM      9  N   UNL     1      -0.164   8.087   5.174  0.00  0.00    -0.282 N 
ATOM     10  H   UNL     1      -0.588   8.919   5.438  0.00  0.00    +0.155 HD
BRANCH   7  12
ATOM     11  C   UNL     1       3.270   9.253   4.721  0.00  0.00    +0.016 C 
ATOM     12  C   UNL     1       1.957   9.273   5.033  0.00  0.00    +0.068 C 
BRANCH  11  18
ATOM     13  C   UNL     1       5.450  10.449   4.569  0.00  0.00    +0.128 A 
ATOM     14  C   UNL     1       6.208  11.598   4.735  0.00  0.00    +0.047 A 
ATOM     15  C   UNL     1       5.621  12.752   5.215  0.00  0.00    +0.019 A 
ATOM     16  C   UNL     1       4.272  12.773   5.536  0.00  0.00    +0.019 A 
ATOM     17  C   UNL     1       3.501  11.642   5.373  0.00  0.00    +0.026 A 
ATOM     18  C   UNL     1       4.084  10.465   4.892  0.00  0.00    +0.018 A 
ATOM     19 BR   UNL     1       3.486  14.362   6.193  0.00  0.00    -0.050 Br
BRANCH  13  20
ATOM     20  O   UNL     1       6.026   9.315   4.096  0.00  0.00    -0.492 OA
BRANCH  20  22
ATOM     21  C   UNL     1       7.888   8.012   3.274  0.00  0.00    +0.048 C 
ATOM     22  C   UNL     1       7.420   9.375   3.789  0.00  0.00    +0.226 C 
ENDBRANCH  20  22
ENDBRANCH  13  20
ENDBRANCH  11  18
ENDBRANCH   7  12
ENDBRANCH   1   9
BRANCH   4  23
ATOM     23  S   UNL     1      -3.343   3.090   4.932  0.00  0.00    +0.075 S 
ATOM     24  O   UNL     1      -4.704   3.467   5.092  0.00  0.00    -0.150 OA
ATOM     25  O   UNL     1      -2.704   2.160   5.795  0.00  0.00    -0.150 OA
BRANCH  23  26
ATOM     26  N   UNL     1      -3.195   2.489   3.396  0.00  0.00    -0.183 N 
ATOM     27  H   UNL     1      -3.973   2.439   2.818  0.00  0.00    +0.177 HD
BRANCH  26  28
ATOM     28  C   UNL     1      -1.964   2.059   2.938  0.00  0.00    +0.240 A 
ATOM     29  C   UNL     1      -1.682   1.546   1.702  0.00  0.00    +0.035 A 
ATOM     30  C   UNL     1      -0.302   1.269   1.758  0.00  0.00    +0.085 A 
ATOM     31  N   UNL     1       0.101   1.625   2.946  0.00  0.00    -0.081 NA
ATOM     32  O   UNL     1      -0.805   2.065   3.615  0.00  0.00    -0.338 OA
ATOM     33  C   UNL     1       0.544   0.682   0.658  0.00  0.00    +0.069 C 
ATOM     34  C   UNL     1      -2.628   1.326   0.550  0.00  0.00    +0.051 C 
ENDBRANCH  26  28
ENDBRANCH  23  26
ENDBRANCH   4  23
TORSDOF 8
