REMARK  Name = ZINC14274844
REMARK  12 active torsions:
REMARK  status: ('A' for Active; 'I' for Inactive)
REMARK    1  A    between atoms: C_1  and  C_2
REMARK    2  A    between atoms: C_2  and  C_3
REMARK    3  A    between atoms: C_3  and  C_4
REMARK    4  A    between atoms: C_4  and  O_5
REMARK    5  A    between atoms: O_5  and  C_6
REMARK    6  A    between atoms: C_6  and  C_8
REMARK    7  A    between atoms: C_11  and  N_14
REMARK    8  A    between atoms: N_14  and  C_15
REMARK    9  A    between atoms: C_15  and  N_17
REMARK   10  A    between atoms: C_18  and  C_20
REMARK   11  A    between atoms: C_29  and  O_30
REMARK   12  A    between atoms: O_30  and  C_31
REMARK                            x       y       z     vdW  Elec       q    Type
REMARK                         _______ _______ _______ _____ _____    ______ ____
ROOT
ATOM      1  C   UNL     1      -0.027   1.755  -0.249  0.00  0.00    +0.141 C 
ATOM      2  S   UNL     1       0.006   0.076  -0.581  0.00  0.00    -0.018 S 
ENDROOT
BRANCH   1   3
ATOM      3  N   UNL     1       1.117   2.467  -0.264  0.00  0.00    -0.263 N 
ATOM      4  C   UNL     1       2.287   1.858  -0.539  0.00  0.00    +0.253 C 
ATOM      5  O   UNL     1       2.311   0.665  -0.775  0.00  0.00    -0.270 OA
ATOM      6  H   UNL     1       1.099   3.419  -0.076  0.00  0.00    +0.157 HD
BRANCH   4   7
ATOM      7  C   UNL     1       3.539   2.638  -0.555  0.00  0.00    +0.080 A 
ATOM      8  C   UNL     1       3.508   3.997  -0.286  0.00  0.00    +0.025 A 
ATOM      9  C   UNL     1       4.701   4.733  -0.302  0.00  0.00    -0.016 A 
ATOM     10  C   UNL     1       4.705   6.114  -0.034  0.00  0.00    +0.008 A 
ATOM     11  C   UNL     1       5.879   6.801  -0.056  0.00  0.00    +0.001 A 
ATOM     12  C   UNL     1       7.082   6.157  -0.343  0.00  0.00    +0.001 A 
ATOM     13  C   UNL     1       7.117   4.822  -0.607  0.00  0.00    +0.010 A 
ATOM     14  C   UNL     1       5.925   4.077  -0.594  0.00  0.00    -0.000 A 
ATOM     15  C   UNL     1       5.931   2.698  -0.863  0.00  0.00    +0.068 A 
ATOM     16  C   UNL     1       4.762   1.994  -0.839  0.00  0.00    +0.147 A 
ATOM     17 BR   UNL     1       7.558   1.817  -1.252  0.00  0.00    -0.046 Br
BRANCH  16  18
ATOM     18  O   UNL     1       4.776   0.661  -1.095  0.00  0.00    -0.493 OA
ATOM     19  C   UNL     1       4.620   0.260  -2.458  0.00  0.00    +0.277 C 
ENDBRANCH  16  18
ENDBRANCH   4   7
ENDBRANCH   1   3
BRANCH   1  20
ATOM     20  N   UNL     1      -1.197   2.366   0.021  0.00  0.00    -0.297 N 
ATOM     21  H   UNL     1      -1.208   3.298   0.287  0.00  0.00    +0.154 HD
BRANCH  20  25
ATOM     22  C   UNL     1      -4.770   0.248  -0.288  0.00  0.00    +0.059 A 
ATOM     23  C   UNL     1      -4.562   1.119   0.786  0.00  0.00    +0.017 A 
ATOM     24  C   UNL     1      -3.380   1.817   0.885  0.00  0.00    +0.024 A 
ATOM     25  C   UNL     1      -2.393   1.657  -0.083  0.00  0.00    +0.033 A 
ATOM     26  C   UNL     1      -2.599   0.796  -1.156  0.00  0.00    +0.024 A 
ATOM     27  C   UNL     1      -3.776   0.090  -1.259  0.00  0.00    +0.017 A 
BRANCH  22  28
ATOM     28  C   UNL     1      -6.035  -0.502  -0.397  0.00  0.00    +0.339 C 
ATOM     29  O   UNL     1      -6.898  -0.364   0.447  0.00  0.00    -0.245 OA
BRANCH  28  30
ATOM     30  O   UNL     1      -6.234  -1.340  -1.433  0.00  0.00    -0.461 OA
BRANCH  30  31
ATOM     31  C   UNL     1      -7.502  -2.045  -1.476  0.00  0.00    +0.232 C 
BRANCH  31  32
ATOM     32  C   UNL     1      -7.545  -2.943  -2.715  0.00  0.00    +0.041 C 
BRANCH  32  34
ATOM     33  C   UNL     1      -8.923  -4.585  -3.998  0.00  0.00    +0.004 C 
ATOM     34  C   UNL     1      -8.881  -3.687  -2.760  0.00  0.00    -0.000 C 
ENDBRANCH  32  34
ENDBRANCH  31  32
ENDBRANCH  30  31
ENDBRANCH  28  30
ENDBRANCH  22  28
ENDBRANCH  20  25
ENDBRANCH   1  20
TORSDOF 10
