REMARK  Name = ZINC22258693
REMARK  9 active torsions:
REMARK  status: ('A' for Active; 'I' for Inactive)
REMARK    1  A    between atoms: C_1  and  C_2
REMARK    2  A    between atoms: C_2  and  C_3
REMARK    3  A    between atoms: C_2  and  C_4
REMARK    4  A    between atoms: C_4  and  C_6
REMARK    5  A    between atoms: C_4  and  N_19
REMARK    6  A    between atoms: N_8  and  N_9
REMARK    7  A    between atoms: C_10  and  C_12
REMARK    8  A    between atoms: C_17  and  O_18
REMARK    9  A    between atoms: C_20  and  C_22
REMARK                            x       y       z     vdW  Elec       q    Type
REMARK                         _______ _______ _______ _____ _____    ______ ____
ROOT
ATOM      1  C   UNL     1      -0.005  -0.609   6.029  0.00  0.00    +0.250 C 
ATOM      2  O   UNL     1       0.472  -1.713   5.871  0.00  0.00    -0.272 OA
ATOM      3  N   UNL     1      -0.693  -0.023   5.029  0.00  0.00    -0.233 N 
ATOM      4  H   UNL     1      -1.191   0.943   5.197  0.00  0.00    +0.173 HD
ENDROOT
BRANCH   3   5
ATOM      5  N   UNL     1      -0.774  -0.645   3.776  0.00  0.00    -0.230 N 
ATOM      6  C   UNL     1      -1.462  -0.059   2.776  0.00  0.00    +0.264 C 
ATOM      7  O   UNL     1      -2.013   1.009   2.962  0.00  0.00    -0.269 OA
ATOM      8  H   UNL     1      -0.277  -1.611   3.609  0.00  0.00    +0.173 HD
BRANCH   6   9
ATOM      9  C   UNL     1      -1.548  -0.714   1.457  0.00  0.00    +0.079 A 
ATOM     10  C   UNL     1      -0.916  -1.941   1.240  0.00  0.00    +0.017 A 
ATOM     11  C   UNL     1      -0.999  -2.547   0.005  0.00  0.00    +0.001 A 
ATOM     12  C   UNL     1      -1.707  -1.945  -1.023  0.00  0.00    +0.004 A 
ATOM     13  C   UNL     1      -2.340  -0.735  -0.820  0.00  0.00    +0.046 A 
ATOM     14  C   UNL     1      -2.262  -0.108   0.415  0.00  0.00    +0.129 A 
BRANCH  14  15
ATOM     15  O   UNL     1      -2.879   1.084   0.614  0.00  0.00    -0.506 OA
ATOM     16  H   UNL     1      -3.439   1.557  -0.206  0.00  0.00    +0.292 HD
ENDBRANCH  14  15
ENDBRANCH   6   9
ENDBRANCH   3   5
BRANCH   1  17
ATOM     17  C   UNL     1       0.171   0.107   7.343  0.00  0.00    +0.163 C 
BRANCH  17  18
ATOM     18  N   UNL     1       0.322  -0.877   8.419  0.00  0.00    -0.300 N 
ATOM     19  C   UNL     1      -0.004  -0.547   9.684  0.00  0.00    +0.247 C 
ATOM     20  O   UNL     1      -0.425   0.566   9.933  0.00  0.00    -0.270 OA
ATOM     21  H   UNL     1       0.703  -1.884   8.193  0.00  0.00    +0.150 HD
BRANCH  19  22
ATOM     22  C   UNL     1       0.149  -1.539  10.768  0.00  0.00    +0.072 A 
ATOM     23  C   UNL     1       0.626  -2.820  10.485  0.00  0.00    +0.016 A 
ATOM     24  C   UNL     1       0.772  -3.739  11.502  0.00  0.00    +0.001 A 
ATOM     25  C   UNL     1       0.436  -3.399  12.802  0.00  0.00    +0.003 A 
ATOM     26  C   UNL     1      -0.043  -2.135  13.091  0.00  0.00    +0.039 A 
ATOM     27  C   UNL     1      -0.189  -1.201  12.082  0.00  0.00    +0.135 A 
ATOM     28  F   UNL     1      -0.658   0.034  12.365  0.00  0.00    -0.205 F 
ENDBRANCH  19  22
ENDBRANCH  17  18
BRANCH  17  30
ATOM     29  C   UNL     1       1.238   2.049   6.191  0.00  0.00    +0.009 C 
ATOM     30  C   UNL     1       1.418   0.990   7.280  0.00  0.00    +0.012 C 
ATOM     31  C   UNL     1       1.626   1.677   8.631  0.00  0.00    +0.009 C 
ENDBRANCH  17  30
ENDBRANCH   1  17
TORSDOF 7
