REMARK  Name = ZINC54732657
REMARK  7 active torsions:
REMARK  status: ('A' for Active; 'I' for Inactive)
REMARK    1  A    between atoms: C_1  and  C_2
REMARK    2  A    between atoms: C_5  and  C_7
REMARK    3  A    between atoms: C_7  and  C_9
REMARK    4  A    between atoms: C_7  and  N_10
REMARK    5  A    between atoms: N_13  and  N_14
REMARK    6  A    between atoms: C_15  and  C_17
REMARK    7  A    between atoms: N_20  and  C_22
REMARK                            x       y       z     vdW  Elec       q    Type
REMARK                         _______ _______ _______ _____ _____    ______ ____
ROOT
ATOM      1  N   UNL     1       4.385  -4.261   2.488  0.00  0.00    -0.228 N 
ATOM      2  C   UNL     1       5.458  -4.340   3.299  0.00  0.00    +0.284 C 
ATOM      3  O   UNL     1       5.768  -5.406   3.796  0.00  0.00    -0.267 OA
ATOM      4  H   UNL     1       4.138  -3.411   2.091  0.00  0.00    +0.173 HD
ENDROOT
BRANCH   1   8
ATOM      5  N   UNL     1       2.210  -4.147   0.855  0.00  0.00    -0.291 N 
ATOM      6  C   UNL     1       2.553  -5.328   1.406  0.00  0.00    +0.316 C 
ATOM      7  O   UNL     1       1.894  -6.323   1.171  0.00  0.00    -0.251 OA
ATOM      8  N   UNL     1       3.626  -5.407   2.217  0.00  0.00    -0.218 N 
ATOM      9  H   UNL     1       2.735  -3.354   1.042  0.00  0.00    +0.151 HD
ATOM     10  H   UNL     1       3.873  -6.257   2.614  0.00  0.00    +0.174 HD
BRANCH   5  11
ATOM     11  C   UNL     1       1.043  -4.062  -0.027  0.00  0.00    +0.108 C 
ATOM     12  C   UNL     1       1.452  -4.441  -1.452  0.00  0.00    +0.033 C 
BRANCH  11  17
ATOM     13  C   UNL     1      -0.018   1.503   0.010  0.00  0.00    +0.051 C 
ATOM     14  C   UNL     1       0.002  -0.004   0.002  0.00  0.00    -0.013 A 
ATOM     15  C   UNL     1      -1.039  -0.872   0.002  0.00  0.00    +0.011 A 
ATOM     16  C   UNL     1      -0.780  -2.230  -0.007  0.00  0.00    +0.013 A 
ATOM     17  C   UNL     1       0.507  -2.653  -0.016  0.00  0.00    +0.010 A 
ATOM     18  S   UNL     1       1.404  -1.109  -0.018  0.00  0.00    -0.097 S 
ENDBRANCH  11  17
ENDBRANCH   5  11
ENDBRANCH   1   8
BRANCH   2  19
ATOM     19  C   UNL     1       6.258  -3.134   3.584  0.00  0.00    +0.195 A 
ATOM     20  C   UNL     1       7.410  -3.061   4.408  0.00  0.00    +0.229 A 
ATOM     21  C   UNL     1       7.800  -1.762   4.371  0.00  0.00    +0.166 A 
ATOM     22  N   UNL     1       6.922  -1.103   3.566  0.00  0.00    -0.235 N 
ATOM     23  N   UNL     1       6.038  -1.919   3.115  0.00  0.00    -0.158 NA
ATOM     24  O   UNL     1       7.999  -4.080   5.091  0.00  0.00    -0.284 OA
BRANCH  22  25
ATOM     25  C   UNL     1       6.978   0.264   3.268  0.00  0.00    +0.065 A 
ATOM     26  C   UNL     1       7.988   1.053   3.803  0.00  0.00    +0.028 A 
ATOM     27  C   UNL     1       8.040   2.401   3.507  0.00  0.00    +0.002 A 
ATOM     28  C   UNL     1       7.088   2.965   2.678  0.00  0.00    +0.000 A 
ATOM     29  C   UNL     1       6.081   2.183   2.143  0.00  0.00    +0.002 A 
ATOM     30  C   UNL     1       6.027   0.833   2.432  0.00  0.00    +0.028 A 
ENDBRANCH  22  25
ENDBRANCH   2  19
TORSDOF 5
