REMARK  Name = ZINC05835439
REMARK  15 active torsions:
REMARK  status: ('A' for Active; 'I' for Inactive)
REMARK    1  A    between atoms: C_1  and  O_2
REMARK    2  A    between atoms: O_2  and  C_3
REMARK    3  A    between atoms: C_5  and  C_11
REMARK    4  A    between atoms: C_7  and  O_9
REMARK    5  A    between atoms: O_9  and  C_10
REMARK    6  A    between atoms: C_11  and  N_69
REMARK    7  A    between atoms: C_12  and  N_69
REMARK    8  A    between atoms: C_18  and  O_36
REMARK    9  A    between atoms: C_19  and  O_34
REMARK   10  A    between atoms: C_20  and  O_32
REMARK   11  A    between atoms: C_27  and  S_30
REMARK   12  A    between atoms: S_30  and  C_31
REMARK   13  A    between atoms: O_32  and  C_33
REMARK   14  A    between atoms: O_34  and  C_35
REMARK   15  A    between atoms: O_36  and  C_37
REMARK                            x       y       z     vdW  Elec       q    Type
REMARK                         _______ _______ _______ _____ _____    ______ ____
ROOT
ATOM      1  C   UNL     1      -2.838   3.361  -0.037  0.00  0.00    -0.039 C 
ATOM      2  C   UNL     1      -3.826   3.263   1.093  0.00  0.00    -0.007 C 
ATOM      3  C   UNL     1      -3.633   1.967   1.877  0.00  0.00    +0.035 C 
ATOM      4  C   UNL     1      -3.453   0.818   0.919  0.00  0.00    -0.033 A 
ATOM      5  C   UNL     1      -4.485  -0.071   0.703  0.00  0.00    +0.054 A 
ATOM      6  C   UNL     1      -4.310  -1.143  -0.163  0.00  0.00    +0.165 A 
ATOM      7  C   UNL     1      -3.097  -1.327  -0.818  0.00  0.00    +0.204 A 
ATOM      8  C   UNL     1      -2.055  -0.432  -0.610  0.00  0.00    +0.173 A 
ATOM      9  C   UNL     1      -2.239   0.646   0.261  0.00  0.00    +0.031 A 
ATOM     10  C   UNL     1      -1.124   1.616   0.481  0.00  0.00    -0.012 A 
ATOM     11  C   UNL     1      -1.439   2.971   0.394  0.00  0.00    -0.050 A 
ATOM     12  C   UNL     1      -0.590   3.984   0.646  0.00  0.00    +0.054 A 
ATOM     13  C   UNL     1       0.725   4.026   1.006  0.00  0.00    +0.192 A 
ATOM     14  O   UNL     1       1.185   5.141   1.210  0.00  0.00    -0.287 OA
ATOM     15  C   UNL     1       1.614   2.965   1.172  0.00  0.00    +0.054 A 
ATOM     16  C   UNL     1       1.298   1.643   1.053  0.00  0.00    +0.019 A 
ATOM     17  C   UNL     1       0.109   1.086   0.767  0.00  0.00    +0.010 A 
ENDROOT
BRANCH   1  18
ATOM     18  N   UNL     1      -2.811   4.749  -0.534  0.00  0.00    +0.386 N 
ATOM     19  H   UNL     1      -2.810   5.395   0.264  0.00  0.00    -0.085 HD
ATOM     20  H   UNL     1      -1.961   4.893  -1.092  0.00  0.00    -0.085 HD
BRANCH  18  21
ATOM     21  C   UNL     1      -3.994   5.016  -1.374  0.00  0.00    -0.046 C 
BRANCH  21  24
ATOM     22  C   UNL     1      -3.257   8.042  -3.516  0.00  0.00    +0.124 A 
ATOM     23  C   UNL     1      -3.308   6.732  -3.060  0.00  0.00    +0.047 A 
ATOM     24  C   UNL     1      -3.939   6.439  -1.866  0.00  0.00    -0.057 A 
ATOM     25  C   UNL     1      -4.526   7.448  -1.127  0.00  0.00    +0.047 A 
ATOM     26  C   UNL     1      -4.472   8.760  -1.575  0.00  0.00    +0.124 A 
ATOM     27  C   UNL     1      -3.840   9.056  -2.773  0.00  0.00    +0.091 A 
BRANCH  22  29
ATOM     28  C   UNL     1      -2.623   9.698  -5.099  0.00  0.00    +0.277 C 
ATOM     29  O   UNL     1      -2.637   8.329  -4.691  0.00  0.00    -0.495 OA
ENDBRANCH  22  29
BRANCH  26  30
ATOM     30  O   UNL     1      -5.045   9.753  -0.845  0.00  0.00    -0.495 OA
ATOM     31  C   UNL     1      -4.957  11.079  -1.371  0.00  0.00    +0.277 C 
ENDBRANCH  26  30
ENDBRANCH  21  24
ENDBRANCH  18  21
ENDBRANCH   1  18
BRANCH  15  32
ATOM     32  S   UNL     1       3.284   3.364   1.569  0.00  0.00    -0.125 S 
ATOM     33  C   UNL     1       3.989   1.700   1.671  0.00  0.00    +0.090 C 
ENDBRANCH  15  32
BRANCH   8  34
ATOM     34  O   UNL     1      -0.867  -0.604  -1.247  0.00  0.00    -0.491 OA
ATOM     35  C   UNL     1      -0.752  -0.058  -2.562  0.00  0.00    +0.277 C 
ENDBRANCH   8  34
BRANCH   7  36
ATOM     36  O   UNL     1      -2.931  -2.381  -1.662  0.00  0.00    -0.488 OA
ATOM     37  C   UNL     1      -2.437  -3.596  -1.093  0.00  0.00    +0.277 C 
ENDBRANCH   7  36
BRANCH   6  38
ATOM     38  O   UNL     1      -5.330  -2.017  -0.372  0.00  0.00    -0.491 OA
ATOM     39  C   UNL     1      -6.549  -1.771   0.331  0.00  0.00    +0.277 C 
ENDBRANCH   6  38
TORSDOF 9
