REMARK  Name = ZINC19901842
REMARK  14 active torsions:
REMARK  status: ('A' for Active; 'I' for Inactive)
REMARK    1  A    between atoms: C_1  and  C_2
REMARK    2  A    between atoms: C_5  and  O_12
REMARK    3  A    between atoms: C_6  and  C_8
REMARK    4  A    between atoms: C_8  and  C_9
REMARK    5  A    between atoms: C_8  and  C_10
REMARK    6  A    between atoms: C_8  and  C_11
REMARK    7  A    between atoms: O_12  and  C_13
REMARK    8  A    between atoms: C_13  and  C_14
REMARK    9  A    between atoms: C_14  and  C_16
REMARK   10  A    between atoms: C_14  and  O_40
REMARK   11  A    between atoms: C_16  and  N_17
REMARK   12  A    between atoms: N_20  and  C_23
REMARK   13  A    between atoms: C_23  and  C_24
REMARK   14  A    between atoms: C_24  and  N_25
REMARK                            x       y       z     vdW  Elec       q    Type
REMARK                         _______ _______ _______ _____ _____    ______ ____
ROOT
ATOM      1  N   UNL     1      -0.706   2.000   1.219  0.00  0.00    -0.303 NA
ATOM      2  C   UNL     1      -2.129   1.634   1.193  0.00  0.00    +0.066 C 
ATOM      3  C   UNL     1      -2.791   2.074   2.501  0.00  0.00    -0.063 C 
ATOM      4  N   UNL     1      -2.626   3.525   2.666  0.00  0.00    +0.382 N 
ATOM      5  C   UNL     1      -1.202   3.891   2.693  0.00  0.00    -0.063 C 
ATOM      6  C   UNL     1      -0.541   3.450   1.384  0.00  0.00    +0.066 C 
ATOM      7  H   UNL     1      -3.088   4.021   1.800  0.00  0.00    -0.082 HD
ENDROOT
BRANCH   1   8
ATOM      8  C   UNL     1      -0.019   1.526   0.010  0.00  0.00    +0.119 C 
BRANCH   8   9
ATOM      9  C   UNL     1       0.002  -0.004   0.002  0.00  0.00    +0.166 C 
BRANCH   9  10
ATOM     10  O   UNL     1       0.693  -0.477   1.160  0.00  0.00    -0.387 OA
ATOM     11  H   UNL     1       0.323  -0.222   2.164  0.00  0.00    +0.210 HD
ENDBRANCH   9  10
BRANCH   9  12
ATOM     12  C   UNL     1       0.718  -0.497  -1.257  0.00  0.00    +0.261 C 
BRANCH  12  13
ATOM     13  O   UNL     1       0.636  -1.923  -1.324  0.00  0.00    -0.489 OA
BRANCH  13  18
ATOM     14  C   UNL     1       3.083  -4.420  -5.740  0.00  0.00    +0.044 C 
ATOM     15  C   UNL     1       2.428  -3.752  -4.558  0.00  0.00    -0.050 A 
ATOM     16  C   UNL     1       2.471  -2.375  -4.433  0.00  0.00    +0.007 A 
ATOM     17  C   UNL     1       1.871  -1.760  -3.351  0.00  0.00    +0.046 A 
ATOM     18  C   UNL     1       1.226  -2.525  -2.389  0.00  0.00    +0.124 A 
ATOM     19  C   UNL     1       1.190  -3.906  -2.515  0.00  0.00    -0.000 A 
ATOM     20  C   UNL     1       1.787  -4.516  -3.602  0.00  0.00    +0.011 A 
BRANCH  19  21
ATOM     21  C   UNL     1       0.496  -4.740  -1.469  0.00  0.00    -0.009 C 
ATOM     22  C   UNL     1       0.601  -6.220  -1.844  0.00  0.00    +0.015 C 
ATOM     23  C   UNL     1       1.159  -4.510  -0.110  0.00  0.00    +0.015 C 
ATOM     24  C   UNL     1      -0.978  -4.337  -1.392  0.00  0.00    +0.015 C 
ENDBRANCH  19  21
ENDBRANCH  13  18
ENDBRANCH  12  13
ENDBRANCH   9  12
ENDBRANCH   8   9
ENDBRANCH   1   8
BRANCH   4  25
ATOM     25  C   UNL     1      -3.313   3.999   3.875  0.00  0.00    -0.059 C 
BRANCH  25  26
ATOM     26  C   UNL     1      -4.824   3.825   3.704  0.00  0.00    +0.098 C 
BRANCH  26  27
ATOM     27  N   UNL     1      -5.509   4.297   4.909  0.00  0.00    -0.236 N 
ATOM     28  C   UNL     1      -5.746   3.423   5.905  0.00  0.00    +0.254 C 
ATOM     29  O   UNL     1      -5.390   2.265   5.791  0.00  0.00    -0.270 OA
ATOM     30  C   UNL     1      -6.427   3.861   7.133  0.00  0.00    +0.046 A 
ATOM     31  C   UNL     1      -6.687   2.995   8.185  0.00  0.00    +0.014 A 
ATOM     32  C   UNL     1      -7.339   3.455   9.323  0.00  0.00    +0.001 A 
ATOM     33  C   UNL     1      -7.739   4.755   9.441  0.00  0.00    +0.008 A 
ATOM     34  C   UNL     1      -7.495   5.665   8.398  0.00  0.00    -0.016 A 
ATOM     35  C   UNL     1      -6.835   5.210   7.238  0.00  0.00    +0.006 A 
ATOM     36  C   UNL     1      -6.575   6.100   6.171  0.00  0.00    +0.046 A 
ATOM     37  C   UNL     1      -6.979   7.422   6.283  0.00  0.00    +0.014 A 
ATOM     38  C   UNL     1      -7.629   7.858   7.432  0.00  0.00    +0.001 A 
ATOM     39  C   UNL     1      -7.888   7.013   8.472  0.00  0.00    +0.008 A 
ATOM     40  C   UNL     1      -5.885   5.589   4.977  0.00  0.00    +0.254 C 
ATOM     41  O   UNL     1      -5.651   6.336   4.047  0.00  0.00    -0.270 OA
ENDBRANCH  26  27
ENDBRANCH  25  26
ENDBRANCH   4  25
TORSDOF 10
