REMARK  Name = ZINC08793191
REMARK  8 active torsions:
REMARK  status: ('A' for Active; 'I' for Inactive)
REMARK    1  A    between atoms: C_1  and  C_2
REMARK    2  A    between atoms: C_2  and  C_3
REMARK    3  A    between atoms: C_2  and  N_48
REMARK    4  A    between atoms: C_9  and  N_14
REMARK    5  A    between atoms: C_10  and  C_11
REMARK    6  A    between atoms: C_15  and  C_17
REMARK    7  A    between atoms: C_18  and  C_19
REMARK    8  A    between atoms: C_22  and  N_24
REMARK                            x       y       z     vdW  Elec       q    Type
REMARK                         _______ _______ _______ _____ _____    ______ ____
ROOT
ATOM      1  C   UNL     1       2.539   2.179   3.622  0.00  0.00    -0.073 C 
ATOM      2  C   UNL     1       1.384   2.012   2.631  0.00  0.00    +0.018 C 
ATOM      3  C   UNL     1       1.901   2.347   1.236  0.00  0.00    -0.027 A 
ATOM      4  C   UNL     1       3.057   3.032   1.088  0.00  0.00    -0.021 A 
ATOM      5  S   UNL     1       3.273   3.180  -0.661  0.00  0.00    -0.079 S 
ATOM      6  C   UNL     1       1.853   2.339  -1.190  0.00  0.00    +0.085 A 
ATOM      7  C   UNL     1       1.245   1.963   0.001  0.00  0.00    +0.068 A 
ATOM      8  C   UNL     1       3.933   3.546   2.188  0.00  0.00    -0.035 C 
ATOM      9  N   UNL     1       3.148   3.513   3.446  0.00  0.00    +0.384 N 
ATOM     10  H   UNL     1       2.402   4.216   3.392  0.00  0.00    -0.081 HD
ENDROOT
BRANCH   7  11
ATOM     11  C   UNL     1      -0.014   1.213   0.009  0.00  0.00    +0.244 C 
ATOM     12  O   UNL     1       0.002  -0.004   0.002  0.00  0.00    -0.270 OA
ATOM     13  N   UNL     1      -1.191   1.871   0.018  0.00  0.00    -0.325 N 
ATOM     14  H   UNL     1      -2.024   1.375   0.019  0.00  0.00    +0.145 HD
ATOM     15  H   UNL     1      -1.204   2.841   0.023  0.00  0.00    +0.145 HD
ENDBRANCH   7  11
BRANCH   6  16
ATOM     16  N   UNL     1       1.428   2.100  -2.486  0.00  0.00    -0.276 N 
ATOM     17  C   UNL     1       2.157   2.547  -3.528  0.00  0.00    +0.241 C 
ATOM     18  O   UNL     1       3.190   3.160  -3.330  0.00  0.00    -0.270 OA
ATOM     19  H   UNL     1       0.605   1.611  -2.644  0.00  0.00    +0.156 HD
BRANCH  17  20
ATOM     20  C   UNL     1       1.723   2.303  -4.851  0.00  0.00    +0.068 C 
ATOM     21  C   UNL     1       2.457   2.752  -5.900  0.00  0.00    +0.020 C 
BRANCH  21  22
ATOM     22  C   UNL     1       2.022   2.508  -7.225  0.00  0.00    +0.015 A 
ATOM     23  C   UNL     1       2.615   2.882  -8.425  0.00  0.00    +0.018 A 
ATOM     24  C   UNL     1       1.976   2.507  -9.580  0.00  0.00    +0.041 A 
ATOM     25  C   UNL     1       0.811   1.812  -9.498  0.00  0.00    +0.164 A 
ATOM     26  S   UNL     1       0.565   1.647  -7.790  0.00  0.00    -0.065 S 
BRANCH  25  27
ATOM     27  N   UNL     1      -0.043   1.316 -10.601  0.00  0.00    +0.063 N 
ATOM     28  O   UNL     1       0.277   1.520 -11.758  0.00  0.00    -0.126 OA
ATOM     29  O   UNL     1      -1.066   0.704 -10.352  0.00  0.00    -0.126 OA
ENDBRANCH  25  27
ENDBRANCH  21  22
ENDBRANCH  17  20
ENDBRANCH   6  16
BRANCH   9  31
ATOM     30  C   UNL     1       5.160   2.808   4.696  0.00  0.00    -0.014 C 
ATOM     31  C   UNL     1       4.023   3.826   4.596  0.00  0.00    -0.074 C 
ATOM     32  C   UNL     1       4.609   5.227   4.408  0.00  0.00    -0.014 C 
ENDBRANCH   9  31
TORSDOF 6
