REMARK  Name = ZINC41760311
REMARK  6 active torsions:
REMARK  status: ('A' for Active; 'I' for Inactive)
REMARK    1  A    between atoms: C_1  and  C_2
REMARK    2  A    between atoms: C_2  and  C_3
REMARK    3  A    between atoms: C_2  and  C_10
REMARK    4  A    between atoms: C_2  and  N_13
REMARK    5  A    between atoms: N_13  and  C_14
REMARK    6  A    between atoms: C_14  and  C_15
REMARK                            x       y       z     vdW  Elec       q    Type
REMARK                         _______ _______ _______ _____ _____    ______ ____
ROOT
ATOM      1  C   UNL     1       0.094   1.436  -0.274  0.00  0.00    +0.007 C 
ATOM      2  C   UNL     1      -0.002  -0.074  -0.048  0.00  0.00    +0.059 C 
ENDROOT
BRANCH   2   3
ATOM      3  C   UNL     1       0.596  -0.421   1.291  0.00  0.00    -0.048 A 
ATOM      4  C   UNL     1      -0.179  -1.038   2.256  0.00  0.00    +0.004 A 
ATOM      5  C   UNL     1       0.369  -1.357   3.484  0.00  0.00    +0.015 A 
ATOM      6  C   UNL     1       1.694  -1.059   3.748  0.00  0.00    +0.018 A 
ATOM      7  C   UNL     1       2.469  -0.442   2.782  0.00  0.00    +0.015 A 
ATOM      8  C   UNL     1       1.921  -0.129   1.553  0.00  0.00    +0.004 A 
ATOM      9 BR   UNL     1       2.444  -1.494   5.428  0.00  0.00    -0.050 Br
ENDBRANCH   2   3
BRANCH   2  10
ATOM     10  C   UNL     1       0.751  -0.794  -1.136  0.00  0.00    +0.349 C 
ATOM     11  O   UNL     1       1.905  -0.489  -1.383  0.00  0.00    -0.248 OA
ATOM     12  O   UNL     1       0.206  -1.682  -1.770  0.00  0.00    -0.248 OA
ENDBRANCH   2  10
BRANCH   2  13
ATOM     13  N   UNL     1      -1.413  -0.484  -0.075  0.00  0.00    +0.398 N 
ATOM     14  H   UNL     1      -1.472  -1.491  -0.026  0.00  0.00    -0.083 HD
ATOM     15  H   UNL     1      -1.896  -0.080   0.713  0.00  0.00    -0.083 HD
BRANCH  13  16
ATOM     16  C   UNL     1      -2.034  -0.018  -1.322  0.00  0.00    +0.017 C 
BRANCH  16  17
ATOM     17  C   UNL     1      -3.490  -0.406  -1.333  0.00  0.00    +0.193 C 
ATOM     18  O   UNL     1      -3.964  -1.012  -0.395  0.00  0.00    -0.278 OA
ATOM     19  N   UNL     1      -4.266  -0.081  -2.385  0.00  0.00    -0.331 N 
ATOM     20  H   UNL     1      -3.888   0.404  -3.136  0.00  0.00    +0.145 HD
ATOM     21  H   UNL     1      -5.204  -0.331  -2.393  0.00  0.00    +0.145 HD
ENDBRANCH  16  17
ENDBRANCH  13  16
ENDBRANCH   2  13
TORSDOF 5
