REMARK  Name = ZINC21681880
REMARK  13 active torsions:
REMARK  status: ('A' for Active; 'I' for Inactive)
REMARK    1  A    between atoms: C_1  and  C_2
REMARK    2  A    between atoms: C_2  and  C_3
REMARK    3  A    between atoms: C_3  and  C_4
REMARK    4  A    between atoms: C_4  and  N_5
REMARK    5  A    between atoms: N_5  and  C_6
REMARK    6  A    between atoms: C_7  and  N_18
REMARK    7  A    between atoms: N_8  and  C_15
REMARK    8  A    between atoms: C_15  and  C_16
REMARK    9  A    between atoms: C_16  and  C_17
REMARK   10  A    between atoms: C_19  and  C_21
REMARK   11  A    between atoms: C_21  and  S_22
REMARK   12  A    between atoms: S_22  and  C_23
REMARK   13  A    between atoms: N_28  and  C_29
REMARK                            x       y       z     vdW  Elec       q    Type
REMARK                         _______ _______ _______ _____ _____    ______ ____
ROOT
ATOM      1  N   UNL     1       1.420  -2.502  -2.465  0.00  0.00    -0.264 N 
ATOM      2  C   UNL     1       0.627  -2.825  -3.508  0.00  0.00    +0.230 C 
ATOM      3  O   UNL     1       1.109  -3.319  -4.506  0.00  0.00    -0.274 OA
ENDROOT
BRANCH   1   4
ATOM      4  C   UNL     1       2.820  -2.633  -2.576  0.00  0.00    +0.140 A 
ATOM      5  C   UNL     1       3.501  -3.555  -1.808  0.00  0.00    +0.127 A 
ATOM      6  N   UNL     1       4.867  -3.660  -1.938  0.00  0.00    -0.280 N 
ATOM      7  C   UNL     1       5.530  -2.873  -2.804  0.00  0.00    +0.331 A 
ATOM      8  O   UNL     1       6.737  -2.980  -2.904  0.00  0.00    -0.246 OA
ATOM      9  N   UNL     1       4.883  -1.969  -3.561  0.00  0.00    -0.273 N 
ATOM     10  H   UNL     1       5.384  -1.413  -4.178  0.00  0.00    +0.173 HD
ATOM     11  C   UNL     1       3.546  -1.830  -3.476  0.00  0.00    +0.277 A 
ATOM     12  O   UNL     1       2.968  -1.011  -4.170  0.00  0.00    -0.266 OA
BRANCH   5  13
ATOM     13  N   UNL     1       2.824  -4.359  -0.922  0.00  0.00    -0.343 N 
ATOM     14  H   UNL     1       1.872  -4.231  -0.782  0.00  0.00    +0.144 HD
ATOM     15  H   UNL     1       3.297  -5.053  -0.438  0.00  0.00    +0.144 HD
ENDBRANCH   5  13
BRANCH   6  16
ATOM     16  C   UNL     1       5.603  -4.635  -1.129  0.00  0.00    +0.128 C 
BRANCH  16  17
ATOM     17  C   UNL     1       5.684  -5.964  -1.881  0.00  0.00    +0.018 C 
ATOM     18  C   UNL     1       6.453  -6.982  -1.036  0.00  0.00    +0.005 C 
ENDBRANCH  16  17
ENDBRANCH   6  16
ENDBRANCH   1   4
BRANCH   1  19
ATOM     19  C   UNL     1       0.826  -2.014  -1.217  0.00  0.00    +0.114 C 
BRANCH  19  20
ATOM     20  C   UNL     1       0.816  -0.484  -1.221  0.00  0.00    +0.019 C 
BRANCH  20  22
ATOM     21  C   UNL     1       0.186   1.555   0.078  0.00  0.00    +0.004 C 
ATOM     22  C   UNL     1       0.196   0.025   0.082  0.00  0.00    -0.002 C 
ENDBRANCH  20  22
ENDBRANCH  19  20
ENDBRANCH   1  19
BRANCH   2  23
ATOM     23  C   UNL     1      -0.857  -2.572  -3.434  0.00  0.00    +0.172 C 
BRANCH  23  24
ATOM     24  S   UNL     1      -1.640  -3.109  -4.979  0.00  0.00    -0.088 S 
BRANCH  24  25
ATOM     25  C   UNL     1      -3.348  -2.752  -4.738  0.00  0.00    +0.160 A 
ATOM     26  N   UNL     1      -3.951  -2.215  -3.695  0.00  0.00    -0.133 NA
ATOM     27  N   UNL     1      -5.313  -2.021  -3.716  0.00  0.00    -0.125 NA
ATOM     28  C   UNL     1      -6.010  -2.374  -4.778  0.00  0.00    +0.183 A 
ATOM     29  S   UNL     1      -4.727  -3.014  -5.843  0.00  0.00    -0.025 S 
ATOM     30  N   UNL     1      -7.376  -2.270  -5.009  0.00  0.00    -0.319 N 
ATOM     31  H   UNL     1      -7.750  -2.576  -5.850  0.00  0.00    +0.148 HD
BRANCH  30  32
ATOM     32  C   UNL     1      -8.252  -1.698  -3.983  0.00  0.00    +0.072 C 
ATOM     33  C   UNL     1      -8.651  -2.790  -2.988  0.00  0.00    +0.022 C 
ATOM     34  C   UNL     1      -9.565  -2.193  -1.916  0.00  0.00    +0.002 C 
ATOM     35  C   UNL     1     -10.821  -1.621  -2.578  0.00  0.00    +0.000 C 
ATOM     36  C   UNL     1     -10.421  -0.529  -3.572  0.00  0.00    +0.002 C 
ATOM     37  C   UNL     1      -9.507  -1.127  -4.644  0.00  0.00    +0.022 C 
ENDBRANCH  30  32
ENDBRANCH  24  25
ENDBRANCH  23  24
ENDBRANCH   2  23
TORSDOF 11
