REMARK  Name = ZINC62834568
REMARK  6 active torsions:
REMARK  status: ('A' for Active; 'I' for Inactive)
REMARK    1  A    between atoms: C_6  and  N_7
REMARK    2  A    between atoms: C_9  and  C_12
REMARK    3  A    between atoms: N_14  and  C_15
REMARK    4  A    between atoms: N_14  and  C_19
REMARK    5  A    between atoms: C_15  and  C_16
REMARK    6  A    between atoms: C_19  and  C_20
REMARK                            x       y       z     vdW  Elec       q    Type
REMARK                         _______ _______ _______ _____ _____    ______ ____
ROOT
ATOM      1  C   UNL     1       6.035   0.845   0.194  0.00  0.00    +0.264 C 
ATOM      2  O   UNL     1       6.682  -0.185   0.224  0.00  0.00    -0.268 OA
ATOM      3  N   UNL     1       6.628   2.004  -0.154  0.00  0.00    -0.279 N 
ENDROOT
BRANCH   1  11
ATOM      4  C   UNL     1       0.208   1.516   1.616  0.00  0.00    +0.025 A 
ATOM      5  C   UNL     1       1.367   2.212   1.361  0.00  0.00    +0.028 A 
ATOM      6  C   UNL     1       2.539   1.526   1.057  0.00  0.00    +0.047 A 
ATOM      7  C   UNL     1       2.531   0.118   1.011  0.00  0.00    +0.002 A 
ATOM      8  C   UNL     1       1.344  -0.579   1.273  0.00  0.00    +0.032 A 
ATOM      9  C   UNL     1       0.193   0.121   1.572  0.00  0.00    +0.025 A 
ATOM     10  C   UNL     1       3.845  -0.293   0.681  0.00  0.00    +0.041 A 
ATOM     11  C   UNL     1       4.605   0.824   0.536  0.00  0.00    +0.103 A 
ATOM     12  N   UNL     1       3.820   1.938   0.762  0.00  0.00    -0.351 N 
ATOM     13  H   UNL     1       4.121   2.859   0.721  0.00  0.00    +0.166 HD
BRANCH   9  14
ATOM     14  N   UNL     1      -0.995  -0.571   1.834  0.00  0.00    -0.358 N 
ATOM     15  H   UNL     1      -1.805  -0.081   2.045  0.00  0.00    +0.142 HD
ATOM     16  H   UNL     1      -1.008  -1.540   1.805  0.00  0.00    +0.142 HD
ENDBRANCH   9  14
ENDBRANCH   1  11
BRANCH   3  17
ATOM     17  C   UNL     1       8.040   2.015  -0.545  0.00  0.00    +0.204 C 
BRANCH  17  18
ATOM     18  C   UNL     1       8.151   1.804  -2.033  0.00  0.00    +0.228 C 
ATOM     19  O   UNL     1       7.149   1.659  -2.701  0.00  0.00    -0.274 OA
ATOM     20  N   UNL     1       9.363   1.778  -2.621  0.00  0.00    -0.328 N 
ATOM     21  H   UNL     1      10.164   1.894  -2.087  0.00  0.00    +0.145 HD
ATOM     22  H   UNL     1       9.434   1.642  -3.579  0.00  0.00    +0.145 HD
ENDBRANCH  17  18
ENDBRANCH   3  17
BRANCH   3  23
ATOM     23  C   UNL     1       5.862   3.252  -0.141  0.00  0.00    +0.204 C 
BRANCH  23  24
ATOM     24  C   UNL     1       5.822   3.802   1.262  0.00  0.00    +0.228 C 
ATOM     25  O   UNL     1       6.379   3.210   2.162  0.00  0.00    -0.274 OA
ATOM     26  N   UNL     1       5.167   4.952   1.516  0.00  0.00    -0.328 N 
ATOM     27  H   UNL     1       4.721   5.426   0.797  0.00  0.00    +0.145 HD
ATOM     28  H   UNL     1       5.142   5.307   2.419  0.00  0.00    +0.145 HD
ENDBRANCH  23  24
ENDBRANCH   3  23
TORSDOF 6
