REMARK  Name = ZINC06660606
REMARK  8 active torsions:
REMARK  status: ('A' for Active; 'I' for Inactive)
REMARK    1  A    between atoms: C_1  and  C_2
REMARK    2  A    between atoms: C_5  and  C_8
REMARK    3  A    between atoms: C_13  and  O_32
REMARK    4  A    between atoms: C_19  and  N_31
REMARK    5  A    between atoms: N_20  and  C_23
REMARK    6  A    between atoms: C_23  and  C_24
REMARK    7  A    between atoms: C_24  and  C_25
REMARK    8  A    between atoms: C_25  and  N_26
REMARK                            x       y       z     vdW  Elec       q    Type
REMARK                         _______ _______ _______ _____ _____    ______ ____
ROOT
ATOM      1  C   UNL     1       0.059  -4.275  -0.021  0.00  0.00    +0.091 C 
ATOM      2  C   UNL     1       1.305  -4.761   0.671  0.00  0.00    +0.007 A 
ATOM      3  C   UNL     1       2.516  -4.705   0.003  0.00  0.00    +0.012 A 
ATOM      4  C   UNL     1       3.672  -5.143   0.617  0.00  0.00    +0.046 A 
ATOM      5  C   UNL     1       3.622  -5.644   1.911  0.00  0.00    +0.120 A 
ATOM      6  C   UNL     1       2.412  -5.701   2.582  0.00  0.00    +0.092 A 
ATOM      7  C   UNL     1       1.249  -5.259   1.962  0.00  0.00    +0.138 A 
ATOM      8  O   UNL     1       0.076  -5.326   2.638  0.00  0.00    -0.437 OA
ATOM      9  C   UNL     1      -1.094  -5.289   1.969  0.00  0.00    +0.229 A 
ATOM     10  C   UNL     1      -1.162  -4.792   0.682  0.00  0.00    +0.064 A 
ATOM     11  C   UNL     1      -2.399  -4.777   0.043  0.00  0.00    +0.107 A 
ATOM     12  N   UNL     1      -3.464  -5.241   0.694  0.00  0.00    -0.320 N 
ATOM     13  C   UNL     1      -3.353  -5.706   1.922  0.00  0.00    +0.204 A 
ATOM     14  N   UNL     1      -2.208  -5.734   2.549  0.00  0.00    -0.203 NA
ENDROOT
BRANCH   1  19
ATOM     15  C   UNL     1      -0.018   1.503   0.010  0.00  0.00    +0.044 C 
ATOM     16  C   UNL     1       0.002  -0.004   0.002  0.00  0.00    -0.050 A 
ATOM     17  C   UNL     1       0.006  -0.689  -1.199  0.00  0.00    +0.003 A 
ATOM     18  C   UNL     1       0.025  -2.071  -1.206  0.00  0.00    +0.005 A 
ATOM     19  C   UNL     1       0.040  -2.768  -0.013  0.00  0.00    -0.035 A 
ATOM     20  C   UNL     1       0.037  -2.084   1.188  0.00  0.00    +0.005 A 
ATOM     21  C   UNL     1       0.023  -0.702   1.195  0.00  0.00    +0.003 A 
ENDBRANCH   1  19
BRANCH  11  22
ATOM     22  N   UNL     1      -2.519  -4.288  -1.248  0.00  0.00    -0.344 N 
ATOM     23  H   UNL     1      -1.738  -3.953  -1.715  0.00  0.00    +0.144 HD
ATOM     24  H   UNL     1      -3.385  -4.283  -1.686  0.00  0.00    +0.144 HD
ENDBRANCH  11  22
BRANCH   5  25
ATOM     25  O   UNL     1       4.758  -6.077   2.517  0.00  0.00    -0.507 OA
ATOM     26  H   UNL     1       5.226  -5.390   3.012  0.00  0.00    +0.292 HD
ENDBRANCH   5  25
BRANCH  12  27
ATOM     27  C   UNL     1      -4.774  -5.234   0.038  0.00  0.00    +0.126 C 
BRANCH  27  28
ATOM     28  C   UNL     1      -4.924  -6.495  -0.814  0.00  0.00    +0.043 C 
BRANCH  28  29
ATOM     29  C   UNL     1      -6.292  -6.487  -1.500  0.00  0.00    +0.124 C 
BRANCH  29  30
ATOM     30  N   UNL     1      -6.436  -7.695  -2.316  0.00  0.00    -0.338 N 
ATOM     31  C   UNL     1      -6.075  -7.836  -3.629  0.00  0.00    +0.104 A 
ATOM     32  C   UNL     1      -6.380  -9.099  -3.983  0.00  0.00    +0.101 A 
ATOM     33  N   UNL     1      -6.912  -9.713  -2.916  0.00  0.00    -0.352 N 
ATOM     34  C   UNL     1      -6.944  -8.880  -1.912  0.00  0.00    +0.173 A 
ATOM     35  H   UNL     1      -7.220 -10.632  -2.893  0.00  0.00    +0.166 HD
ENDBRANCH  29  30
ENDBRANCH  28  29
ENDBRANCH  27  28
ENDBRANCH  12  27
TORSDOF 7
