REMARK  Name = ZINC49175873
REMARK  4 active torsions:
REMARK  status: ('A' for Active; 'I' for Inactive)
REMARK    1  A    between atoms: C_1  and  N_2
REMARK    2  A    between atoms: C_6  and  N_9
REMARK    3  A    between atoms: C_10  and  C_12
REMARK    4  A    between atoms: C_14  and  C_18
REMARK                            x       y       z     vdW  Elec       q    Type
REMARK                         _______ _______ _______ _____ _____    ______ ____
ROOT
ATOM      1  N   UNL     1       1.514  -2.498   2.336  0.00  0.00    -0.309 N 
ATOM      2  C   UNL     1       2.153  -3.684   2.305  0.00  0.00    +0.265 C 
ATOM      3  O   UNL     1       2.142  -4.354   1.291  0.00  0.00    -0.268 OA
ATOM      4  H   UNL     1       1.523  -1.963   3.145  0.00  0.00    +0.149 HD
ENDROOT
BRANCH   1  10
ATOM      5  C   UNL     1      -0.018   1.465   0.010  0.00  0.00    -0.096 C 
ATOM      6  N   UNL     1       0.002  -0.004   0.002  0.00  0.00    +0.379 N 
ATOM      7  C   UNL     1      -1.376  -0.511   0.004  0.00  0.00    -0.079 C 
ATOM      8  C   UNL     1      -1.361  -2.038  -0.087  0.00  0.00    -0.017 C 
ATOM      9  C   UNL     1      -0.605  -2.608   1.117  0.00  0.00    +0.018 C 
ATOM     10  C   UNL     1       0.807  -2.015   1.147  0.00  0.00    +0.057 C 
ATOM     11  C   UNL     1       0.712  -0.489   1.192  0.00  0.00    -0.057 C 
ATOM     12  H   UNL     1       0.477  -0.328  -0.827  0.00  0.00    -0.082 HD
ENDBRANCH   1  10
BRANCH   2  13
ATOM     13  C   UNL     1       2.866  -4.170   3.504  0.00  0.00    +0.161 A 
ATOM     14  C   UNL     1       3.578  -5.387   3.623  0.00  0.00    +0.071 A 
ATOM     15  C   UNL     1       4.059  -5.403   4.889  0.00  0.00    +0.054 A 
ATOM     16  N   UNL     1       3.653  -4.255   5.486  0.00  0.00    -0.280 N 
ATOM     17  N   UNL     1       2.964  -3.549   4.662  0.00  0.00    -0.168 NA
ATOM     18  H   UNL     1       3.855  -4.002   6.400  0.00  0.00    +0.189 HD
ATOM     19 BR   UNL     1       3.808  -6.713   2.295  0.00  0.00    -0.046 Br
BRANCH  15  20
ATOM     20  C   UNL     1       4.890  -6.493   5.517  0.00  0.00    +0.038 C 
ATOM     21  C   UNL     1       5.157  -6.400   7.020  0.00  0.00    +0.010 C 
ATOM     22  C   UNL     1       6.283  -6.115   6.025  0.00  0.00    +0.010 C 
ENDBRANCH  15  20
ENDBRANCH   2  13
TORSDOF 3
