REMARK  Name = ZINC35860852
REMARK  11 active torsions:
REMARK  status: ('A' for Active; 'I' for Inactive)
REMARK    1  A    between atoms: C_1  and  C_2
REMARK    2  A    between atoms: C_2  and  C_3
REMARK    3  A    between atoms: C_3  and  C_5
REMARK    4  A    between atoms: C_3  and  O_15
REMARK    5  A    between atoms: C_11  and  C_14
REMARK    6  A    between atoms: O_15  and  C_16
REMARK    7  A    between atoms: C_22  and  C_33
REMARK    8  A    between atoms: C_27  and  C_29
REMARK    9  A    between atoms: C_29  and  C_30
REMARK   10  A    between atoms: C_29  and  C_31
REMARK   11  A    between atoms: C_29  and  C_32
REMARK                            x       y       z     vdW  Elec       q    Type
REMARK                         _______ _______ _______ _____ _____    ______ ____
ROOT
ATOM      1  C   UNL     1       2.364   1.155  -1.655  0.00  0.00    +0.122 A 
ATOM      2  C   UNL     1       1.353   1.981  -2.124  0.00  0.00    +0.046 A 
ATOM      3  C   UNL     1       1.660   3.239  -2.595  0.00  0.00    +0.007 A 
ATOM      4  C   UNL     1       2.974   3.692  -2.603  0.00  0.00    -0.040 A 
ATOM      5  C   UNL     1       3.977   2.877  -2.128  0.00  0.00    -0.016 A 
ATOM      6  C   UNL     1       3.672   1.609  -1.655  0.00  0.00    +0.051 A 
ATOM      7  C   UNL     1       5.419   3.316  -2.081  0.00  0.00    +0.137 C 
ATOM      8  N   UNL     1       5.584   4.555  -2.849  0.00  0.00    -0.290 N 
ATOM      9  C   UNL     1       4.575   5.609  -2.655  0.00  0.00    +0.113 C 
ATOM     10  C   UNL     1       3.232   5.072  -3.147  0.00  0.00    +0.054 C 
ATOM     11  C   UNL     1       6.616   4.721  -3.699  0.00  0.00    +0.222 C 
ATOM     12  O   UNL     1       7.479   3.872  -3.778  0.00  0.00    -0.275 OA
ENDROOT
BRANCH   7  13
ATOM     13  C   UNL     1       5.823   3.558  -0.649  0.00  0.00    -0.022 A 
ATOM     14  C   UNL     1       6.926   2.910  -0.124  0.00  0.00    +0.008 A 
ATOM     15  C   UNL     1       7.298   3.131   1.188  0.00  0.00    +0.038 A 
ATOM     16  C   UNL     1       6.565   4.001   1.978  0.00  0.00    +0.123 A 
ATOM     17  C   UNL     1       5.461   4.649   1.451  0.00  0.00    +0.038 A 
ATOM     18  C   UNL     1       5.094   4.431   0.136  0.00  0.00    +0.008 A 
ATOM     19  F   UNL     1       6.927   4.217   3.261  0.00  0.00    -0.205 F 
ENDBRANCH   7  13
BRANCH  11  20
ATOM     20  C   UNL     1       6.699   5.961  -4.551  0.00  0.00    +0.039 C 
ATOM     21  C   UNL     1       7.881   5.840  -5.515  0.00  0.00    +0.020 C 
ATOM     22  C   UNL     1       5.404   6.119  -5.350  0.00  0.00    +0.020 C 
ATOM     23  C   UNL     1       6.896   7.184  -3.653  0.00  0.00    +0.020 C 
ENDBRANCH  11  20
BRANCH   1  24
ATOM     24  O   UNL     1       2.072  -0.089  -1.192  0.00  0.00    -0.480 OA
BRANCH  24  25
ATOM     25  C   UNL     1       3.147  -0.838  -0.621  0.00  0.00    +0.258 C 
BRANCH  25  26
ATOM     26  C   UNL     1       2.627  -1.668   0.524  0.00  0.00    +0.256 C 
ATOM     27  O   UNL     1       1.439  -1.693   0.765  0.00  0.00    -0.272 OA
ATOM     28  N   UNL     1       3.484  -2.382   1.281  0.00  0.00    -0.302 N 
ATOM     29  C   UNL     1       4.930  -2.362   1.012  0.00  0.00    +0.089 C 
ATOM     30  C   UNL     1       5.664  -2.062   2.323  0.00  0.00    -0.063 C 
ATOM     31  N   UNL     1       5.252  -3.031   3.346  0.00  0.00    +0.383 N 
ATOM     32  C   UNL     1       3.824  -2.864   3.646  0.00  0.00    -0.057 C 
ATOM     33  C   UNL     1       2.999  -3.200   2.404  0.00  0.00    +0.092 C 
ATOM     34  C   UNL     1       3.431  -3.801   4.790  0.00  0.00    -0.012 C 
ATOM     35  H   UNL     1       5.416  -3.967   3.007  0.00  0.00    -0.085 HD
ATOM     36  H   UNL     1       5.790  -2.880   4.186  0.00  0.00    -0.085 HD
ENDBRANCH  25  26
BRANCH  25  38
ATOM     37  C   UNL     1       4.388  -0.911  -2.788  0.00  0.00    +0.008 C 
ATOM     38  C   UNL     1       3.750  -1.757  -1.685  0.00  0.00    +0.051 C 
ENDBRANCH  25  38
ENDBRANCH  24  25
ENDBRANCH   1  24
TORSDOF 6
