REMARK  Name = ZINC18149232
REMARK  3 active torsions:
REMARK  status: ('A' for Active; 'I' for Inactive)
REMARK    1  A    between atoms: C_4  and  N_7
REMARK    2  A    between atoms: C_10  and  C_15
REMARK    3  A    between atoms: C_15  and  N_16
REMARK                            x       y       z     vdW  Elec       q    Type
REMARK                         _______ _______ _______ _____ _____    ______ ____
ROOT
ATOM      1  N   UNL     1       1.300  10.628  -5.571  0.00  0.00    -0.284 N 
ATOM      2  C   UNL     1       0.497  10.581  -4.448  0.00  0.00    +0.224 A 
ATOM      3  N   UNL     1       0.983  10.113  -3.301  0.00  0.00    -0.198 NA
ATOM      4  C   UNL     1       0.213  10.061  -2.228  0.00  0.00    +0.150 A 
ATOM      5  N   UNL     1      -1.038  10.484  -2.286  0.00  0.00    -0.198 NA
ATOM      6  C   UNL     1      -1.529  10.958  -3.429  0.00  0.00    +0.217 A 
ATOM      7  N   UNL     1      -0.760  11.006  -4.511  0.00  0.00    -0.181 NA
ATOM      8  N   UNL     1      -2.835  11.399  -3.489  0.00  0.00    -0.327 N 
ATOM      9  H   UNL     1       2.365  10.362  -5.497  0.00  0.00    +0.155 HD
ATOM     10  H   UNL     1      -3.240  11.790  -4.434  0.00  0.00    +0.145 HD
ATOM     11  H   UNL     1      -3.471  11.358  -2.593  0.00  0.00    +0.145 HD
ENDROOT
BRANCH   1  15
ATOM     12  C   UNL     1      -0.308  11.781  -9.236  0.00  0.00    +0.000 A 
ATOM     13  C   UNL     1       1.003  12.095  -8.929  0.00  0.00    +0.002 A 
ATOM     14  C   UNL     1       1.540  11.714  -7.715  0.00  0.00    +0.023 A 
ATOM     15  C   UNL     1       0.760  11.016  -6.801  0.00  0.00    +0.034 A 
ATOM     16  C   UNL     1      -0.555  10.698  -7.115  0.00  0.00    +0.023 A 
ATOM     17  C   UNL     1      -1.087  11.085  -8.329  0.00  0.00    +0.002 A 
ENDBRANCH   1  15
BRANCH   4  18
ATOM     18  C   UNL     1       0.766   9.526  -0.932  0.00  0.00    +0.161 C 
BRANCH  18  19
ATOM     19  N   UNL     1       0.531   8.077  -0.861  0.00  0.00    -0.292 NA
ATOM     20  C   UNL     1       1.258   7.481   0.268  0.00  0.00    +0.104 C 
ATOM     21  C   UNL     1       1.053   5.964   0.259  0.00  0.00    +0.122 C 
ATOM     22  N   UNL     1      -0.384   5.667   0.346  0.00  0.00    -0.314 N 
ATOM     23  C   UNL     1      -1.111   6.263  -0.783  0.00  0.00    +0.122 C 
ATOM     24  C   UNL     1      -0.905   7.780  -0.775  0.00  0.00    +0.104 C 
ATOM     25  C   UNL     1      -0.606   4.296   0.413  0.00  0.00    +0.099 A 
ATOM     26  C   UNL     1      -1.907   3.812   0.500  0.00  0.00    +0.042 A 
ATOM     27  C   UNL     1      -2.114   2.446   0.561  0.00  0.00    +0.005 A 
ATOM     28  C   UNL     1      -1.007   1.607   0.543  0.00  0.00    +0.018 A 
ATOM     29  C   UNL     1       0.256   2.155   0.455  0.00  0.00    +0.084 A 
ATOM     30  N   UNL     1       0.423   3.463   0.393  0.00  0.00    -0.350 N 
ATOM     31  H   UNL     1       1.448   3.857   0.324  0.00  0.00    +0.166 HD
ENDBRANCH  18  19
ENDBRANCH   4  18
TORSDOF 3
