REMARK  Name = ZINC36813094
REMARK  4 active torsions:
REMARK  status: ('A' for Active; 'I' for Inactive)
REMARK    1  A    between atoms: C_3  and  C_6
REMARK    2  A    between atoms: C_6  and  N_7
REMARK    3  A    between atoms: N_7  and  C_8
REMARK    4  A    between atoms: C_17  and  N_18
REMARK                            x       y       z     vdW  Elec       q    Type
REMARK                         _______ _______ _______ _____ _____    ______ ____
ROOT
ATOM      1  C   UNL     1       6.054   1.787   1.197  0.00  0.00    +0.059 A 
ATOM      2  C   UNL     1       6.683   1.596   2.449  0.00  0.00    +0.022 A 
ATOM      3  C   UNL     1       6.500   0.415   3.183  0.00  0.00    +0.027 A 
ATOM      4  C   UNL     1       7.123   0.267   4.386  0.00  0.00    +0.019 A 
ATOM      5  C   UNL     1       7.939   1.275   4.897  0.00  0.00    +0.017 A 
ATOM      6  C   UNL     1       8.137   2.433   4.210  0.00  0.00    +0.027 A 
ATOM      7  C   UNL     1       7.511   2.622   2.965  0.00  0.00    +0.048 A 
ATOM      8  N   UNL     1       7.691   3.751   2.270  0.00  0.00    -0.359 N 
ATOM      9  C   UNL     1       7.115   3.944   1.106  0.00  0.00    +0.107 A 
ATOM     10  C   UNL     1       6.290   2.982   0.527  0.00  0.00    +0.062 A 
ATOM     11 BR   UNL     1       6.876  -1.325   5.376  0.00  0.00    -0.050 Br
ATOM     12  H   UNL     1       8.261   4.445   2.636  0.00  0.00    +0.165 HD
ENDROOT
BRANCH  10  13
ATOM     13  N   UNL     1       5.696   3.220  -0.721  0.00  0.00    -0.355 N 
ATOM     14  H   UNL     1       4.754   3.032  -0.854  0.00  0.00    +0.142 HD
ATOM     15  H   UNL     1       6.228   3.573  -1.452  0.00  0.00    +0.142 HD
ENDBRANCH  10  13
BRANCH   1  16
ATOM     16  N   UNL     1       5.232   0.807   0.650  0.00  0.00    -0.337 N 
ATOM     17  H   UNL     1       5.334  -0.119   0.921  0.00  0.00    +0.146 HD
BRANCH  16  18
ATOM     18  C   UNL     1       4.211   1.174  -0.335  0.00  0.00    +0.144 C 
BRANCH  18  21
ATOM     19  C   UNL     1       1.587  -1.583  -0.487  0.00  0.00    +0.008 A 
ATOM     20  C   UNL     1       2.212  -0.437  -0.034  0.00  0.00    +0.013 A 
ATOM     21  C   UNL     1       3.353  -0.027  -0.640  0.00  0.00    +0.007 A 
ATOM     22  S   UNL     1       3.575  -1.278  -1.894  0.00  0.00    -0.100 S 
ATOM     23  C   UNL     1       2.133  -2.263  -1.525  0.00  0.00    +0.045 A 
ENDBRANCH  18  21
ENDBRANCH  16  18
ENDBRANCH   1  16
TORSDOF 4
