REMARK  Name = ZINC35664510
REMARK  12 active torsions:
REMARK  status: ('A' for Active; 'I' for Inactive)
REMARK    1  A    between atoms: C_1  and  C_2
REMARK    2  A    between atoms: C_2  and  N_3
REMARK    3  A    between atoms: C_4  and  C_24
REMARK    4  A    between atoms: C_5  and  C_19
REMARK    5  A    between atoms: C_6  and  C_11
REMARK    6  A    between atoms: C_13  and  C_18
REMARK    7  A    between atoms: C_16  and  C_17
REMARK    8  A    between atoms: C_19  and  O_21
REMARK    9  A    between atoms: O_21  and  C_22
REMARK   10  A    between atoms: C_22  and  C_23
REMARK   11  A    between atoms: C_24  and  N_25
REMARK   12  A    between atoms: C_32  and  C_34
REMARK                            x       y       z     vdW  Elec       q    Type
REMARK                         _______ _______ _______ _____ _____    ______ ____
ROOT
ATOM      1  N   UNL     1      -2.406  -1.740   0.833  0.00  0.00    -0.261 N 
ATOM      2  C   UNL     1      -2.479  -2.916   1.523  0.00  0.00    +0.010 C 
ATOM      3  C   UNL     1      -3.226  -3.946   1.069  0.00  0.00    +0.076 C 
ATOM      4  C   UNL     1      -3.979  -3.751  -0.231  0.00  0.00    +0.144 C 
ATOM      5  N   UNL     1      -3.834  -2.446  -0.897  0.00  0.00    -0.288 N 
ATOM      6  C   UNL     1      -3.054  -1.512  -0.316  0.00  0.00    +0.307 C 
ATOM      7  O   UNL     1      -2.930  -0.430  -0.856  0.00  0.00    -0.252 OA
ATOM      8  H   UNL     1      -4.292  -2.260  -1.732  0.00  0.00    +0.151 HD
ENDROOT
BRANCH   4   9
ATOM      9  C   UNL     1      -5.445  -3.971   0.044  0.00  0.00    -0.019 A 
ATOM     10  C   UNL     1      -5.924  -3.896   1.339  0.00  0.00    +0.009 A 
ATOM     11  C   UNL     1      -7.268  -4.098   1.591  0.00  0.00    -0.050 A 
ATOM     12  C   UNL     1      -8.133  -4.374   0.548  0.00  0.00    +0.003 A 
ATOM     13  C   UNL     1      -7.654  -4.447  -0.746  0.00  0.00    +0.004 A 
ATOM     14  C   UNL     1      -6.311  -4.241  -0.999  0.00  0.00    -0.045 A 
ATOM     15  C   UNL     1      -5.789  -4.316  -2.411  0.00  0.00    +0.044 C 
ATOM     16  C   UNL     1      -7.790  -4.018   3.002  0.00  0.00    +0.044 C 
ENDBRANCH   4   9
BRANCH   1  18
ATOM     17  C   UNL     1      -2.423   0.207   2.312  0.00  0.00    +0.025 C 
ATOM     18  C   UNL     1      -1.576  -0.666   1.384  0.00  0.00    +0.111 C 
ENDBRANCH   1  18
BRANCH   3  19
ATOM     19  C   UNL     1      -3.302  -5.165   1.783  0.00  0.00    +0.339 C 
ATOM     20  O   UNL     1      -2.768  -5.267   2.872  0.00  0.00    -0.245 OA
BRANCH  19  21
ATOM     21  O   UNL     1      -3.966  -6.214   1.257  0.00  0.00    -0.462 OA
BRANCH  21  22
ATOM     22  C   UNL     1      -4.099  -7.376   2.078  0.00  0.00    +0.229 C 
ATOM     23  C   UNL     1      -4.772  -8.493   1.277  0.00  0.00    +0.048 C 
ENDBRANCH  21  22
ENDBRANCH  19  21
ENDBRANCH   3  19
BRANCH   2  24
ATOM     24  C   UNL     1      -1.713  -3.068   2.812  0.00  0.00    -0.026 C 
BRANCH  24  25
ATOM     25  N   UNL     1      -0.486  -3.837   2.566  0.00  0.00    +0.384 N 
ATOM     26  C   UNL     1       0.093  -4.207   3.855  0.00  0.00    -0.077 C 
ATOM     27  C   UNL     1       0.852  -5.507   3.708  0.00  0.00    +0.000 C 
ATOM     28  C   UNL     1       2.333  -5.206   3.413  0.00  0.00    +0.106 C 
ATOM     29  N   UNL     1       2.469  -4.066   2.485  0.00  0.00    -0.303 N 
ATOM     30  C   UNL     1       1.605  -3.897   1.334  0.00  0.00    +0.089 C 
ATOM     31  C   UNL     1       0.358  -3.073   1.730  0.00  0.00    -0.059 C 
ATOM     32  C   UNL     1       3.430  -3.151   2.716  0.00  0.00    +0.219 C 
ATOM     33  O   UNL     1       3.500  -2.156   2.025  0.00  0.00    -0.275 OA
ATOM     34  H   UNL     1      -0.736  -4.684   2.077  0.00  0.00    -0.081 HD
BRANCH  32  35
ATOM     35  C   UNL     1       4.419  -3.363   3.833  0.00  0.00    +0.075 C 
ATOM     36  C   UNL     1       3.854  -2.799   5.153  0.00  0.00    +0.013 C 
ATOM     37  C   UNL     1       5.088  -2.195   5.868  0.00  0.00    +0.001 C 
ATOM     38  C   UNL     1       5.893  -1.579   4.698  0.00  0.00    +0.001 C 
ATOM     39  C   UNL     1       5.716  -2.587   3.544  0.00  0.00    +0.013 C 
ENDBRANCH  32  35
ENDBRANCH  24  25
ENDBRANCH   2  24
TORSDOF 8
