REMARK  Name = ZINC63736402
REMARK  9 active torsions:
REMARK  status: ('A' for Active; 'I' for Inactive)
REMARK    1  A    between atoms: C_1  and  C_2
REMARK    2  A    between atoms: C_7  and  C_8
REMARK    3  A    between atoms: C_8  and  C_10
REMARK    4  A    between atoms: C_8  and  N_11
REMARK    5  A    between atoms: C_12  and  C_14
REMARK    6  A    between atoms: C_14  and  C_16
REMARK    7  A    between atoms: C_14  and  N_26
REMARK    8  A    between atoms: C_16  and  C_17
REMARK    9  A    between atoms: C_27  and  C_29
REMARK                            x       y       z     vdW  Elec       q    Type
REMARK                         _______ _______ _______ _____ _____    ______ ____
ROOT
ATOM      1  C   UNL     1       1.822  -1.083   5.691  0.00  0.00    +0.163 C 
ENDROOT
BRANCH   1   3
ATOM      2  N   UNL     1       0.630  -0.793   3.543  0.00  0.00    -0.307 N 
ATOM      3  C   UNL     1       1.199  -0.221   4.623  0.00  0.00    +0.234 C 
ATOM      4  O   UNL     1       1.211   0.986   4.735  0.00  0.00    -0.274 OA
ATOM      5  H   UNL     1       0.621  -1.758   3.453  0.00  0.00    +0.149 HD
BRANCH   2   6
ATOM      6  C   UNL     1       0.025   0.045   2.504  0.00  0.00    +0.100 C 
ATOM      7  C   UNL     1      -1.413   0.387   2.899  0.00  0.00    +0.033 C 
BRANCH   6  14
ATOM      8  C   UNL     1      -0.018   1.503   0.010  0.00  0.00    +0.044 C 
ATOM      9  C   UNL     1       0.002  -0.004   0.002  0.00  0.00    -0.046 A 
ATOM     10  C   UNL     1       0.006  -0.689  -1.199  0.00  0.00    +0.004 A 
ATOM     11  C   UNL     1       0.025  -2.071  -1.207  0.00  0.00    +0.000 A 
ATOM     12  C   UNL     1       0.040  -2.768  -0.013  0.00  0.00    +0.000 A 
ATOM     13  C   UNL     1       0.037  -2.084   1.188  0.00  0.00    +0.006 A 
ATOM     14  C   UNL     1       0.023  -0.702   1.195  0.00  0.00    -0.025 A 
ENDBRANCH   6  14
ENDBRANCH   2   6
ENDBRANCH   1   3
BRANCH   1  15
ATOM     15  N   UNL     1       2.761  -0.281   6.479  0.00  0.00    -0.299 N 
ATOM     16  C   UNL     1       2.323   0.803   7.150  0.00  0.00    +0.251 C 
ATOM     17  O   UNL     1       1.148   1.117   7.100  0.00  0.00    -0.270 OA
ATOM     18  H   UNL     1       3.697  -0.531   6.519  0.00  0.00    +0.150 HD
BRANCH  16  19
ATOM     19  C   UNL     1       3.263   1.606   7.939  0.00  0.00    +0.074 A 
ATOM     20  C   UNL     1       3.020   2.741   8.697  0.00  0.00    +0.021 A 
ATOM     21  C   UNL     1       4.113   3.280   9.332  0.00  0.00    +0.008 A 
ATOM     22  C   UNL     1       5.323   2.685   9.181  0.00  0.00    +0.046 A 
ATOM     23  S   UNL     1       5.013   1.372   8.179  0.00  0.00    -0.092 S 
ENDBRANCH  16  19
ENDBRANCH   1  15
BRANCH   1  24
ATOM     24  C   UNL     1       0.726  -1.631   6.607  0.00  0.00    +0.065 C 
BRANCH  24  25
ATOM     25  C   UNL     1       1.333  -2.590   7.599  0.00  0.00    -0.039 C 
ATOM     26  C   UNL     1       1.735  -2.308   8.859  0.00  0.00    -0.001 A 
ATOM     27  C   UNL     1       1.730  -1.074   9.653  0.00  0.00    +0.010 A 
ATOM     28  C   UNL     1       2.211  -1.104  10.916  0.00  0.00    +0.001 A 
ATOM     29  C   UNL     1       2.713  -2.282  11.486  0.00  0.00    +0.002 A 
ATOM     30  C   UNL     1       2.752  -3.455  10.819  0.00  0.00    +0.026 A 
ATOM     31  C   UNL     1       2.271  -3.539   9.483  0.00  0.00    +0.043 A 
ATOM     32  N   UNL     1       2.203  -4.542   8.642  0.00  0.00    -0.380 N 
ATOM     33  C   UNL     1       1.609  -4.062   7.389  0.00  0.00    +0.144 C 
ATOM     34  H   UNL     1       2.492  -5.450   8.819  0.00  0.00    +0.160 HD
ENDBRANCH  24  25
ENDBRANCH   1  24
TORSDOF 7
