REMARK  Name = ZINC38610878
REMARK  8 active torsions:
REMARK  status: ('A' for Active; 'I' for Inactive)
REMARK    1  A    between atoms: C_1  and  C_2
REMARK    2  A    between atoms: C_7  and  C_24
REMARK    3  A    between atoms: C_9  and  N_12
REMARK    4  A    between atoms: N_15  and  C_16
REMARK    5  A    between atoms: C_19  and  O_22
REMARK    6  A    between atoms: O_22  and  C_23
REMARK    7  A    between atoms: C_24  and  O_26
REMARK    8  A    between atoms: O_26  and  C_27
REMARK                            x       y       z     vdW  Elec       q    Type
REMARK                         _______ _______ _______ _____ _____    ______ ____
ROOT
ATOM      1  C   UNL     1      -0.160   1.579   0.300  0.00  0.00    +0.044 C 
ATOM      2  C   UNL     1      -0.098   0.075   0.226  0.00  0.00    -0.050 A 
ATOM      3  C   UNL     1       0.022  -0.542  -1.022  0.00  0.00    +0.005 A 
ATOM      4  C   UNL     1       0.082  -1.889  -1.153  0.00  0.00    +0.026 A 
ATOM      5  C   UNL     1       0.022  -2.713   0.001  0.00  0.00    +0.045 A 
ATOM      6  N   UNL     1       0.059  -4.024   0.140  0.00  0.00    -0.367 N 
ATOM      7  C   UNL     1      -0.040  -4.357   1.565  0.00  0.00    +0.234 C 
ATOM      8  C   UNL     1      -0.145  -3.037   2.296  0.00  0.00    +0.054 C 
ATOM      9  C   UNL     1      -0.104  -2.060   1.315  0.00  0.00    +0.018 A 
ATOM     10  C   UNL     1      -0.156  -0.647   1.372  0.00  0.00    +0.015 A 
ATOM     11  H   UNL     1       0.139  -4.664  -0.584  0.00  0.00    +0.161 HD
ENDROOT
BRANCH   8  12
ATOM     12  N   UNL     1      -0.258  -2.849   3.639  0.00  0.00    -0.270 N 
ATOM     13  C   UNL     1      -0.111  -3.892   4.480  0.00  0.00    +0.308 C 
ATOM     14  O   UNL     1       0.224  -4.978   4.050  0.00  0.00    -0.252 OA
ATOM     15  N   UNL     1      -0.336  -3.730   5.799  0.00  0.00    -0.269 N 
ATOM     16  H   UNL     1      -0.443  -1.964   3.991  0.00  0.00    +0.156 HD
ATOM     17  H   UNL     1      -0.538  -2.849   6.153  0.00  0.00    +0.156 HD
BRANCH  15  18
ATOM     18  C   UNL     1      -0.279  -4.834   6.660  0.00  0.00    +0.035 A 
ATOM     19  C   UNL     1       0.640  -5.849   6.428  0.00  0.00    +0.027 A 
ATOM     20  C   UNL     1       0.696  -6.936   7.278  0.00  0.00    +0.047 A 
ATOM     21  C   UNL     1      -0.166  -7.016   8.362  0.00  0.00    +0.120 A 
ATOM     22  C   UNL     1      -1.084  -6.002   8.594  0.00  0.00    +0.047 A 
ATOM     23  C   UNL     1      -1.137  -4.911   7.749  0.00  0.00    +0.027 A 
BRANCH  21  24
ATOM     24  O   UNL     1      -0.110  -8.087   9.197  0.00  0.00    -0.495 OA
ATOM     25  C   UNL     1      -1.027  -8.103  10.293  0.00  0.00    +0.277 C 
ENDBRANCH  21  24
ENDBRANCH  15  18
ENDBRANCH   8  12
BRANCH   7  26
ATOM     26  C   UNL     1      -1.269  -5.192   1.818  0.00  0.00    +0.335 C 
ATOM     27  O   UNL     1      -2.215  -5.116   1.071  0.00  0.00    -0.248 OA
BRANCH  26  28
ATOM     28  O   UNL     1      -1.312  -6.020   2.873  0.00  0.00    -0.466 OA
ATOM     29  C   UNL     1      -2.508  -6.781   3.052  0.00  0.00    +0.280 C 
ENDBRANCH  26  28
ENDBRANCH   7  26
TORSDOF 5
