REMARK  Name = ZINC39685020
REMARK  10 active torsions:
REMARK  status: ('A' for Active; 'I' for Inactive)
REMARK    1  A    between atoms: C_1  and  C_2
REMARK    2  A    between atoms: C_2  and  C_3
REMARK    3  A    between atoms: C_3  and  C_4
REMARK    4  A    between atoms: C_4  and  C_6
REMARK    5  A    between atoms: C_4  and  C_7
REMARK    6  A    between atoms: C_11  and  C_20
REMARK    7  A    between atoms: N_22  and  C_23
REMARK    8  A    between atoms: C_23  and  C_24
REMARK    9  A    between atoms: C_24  and  O_25
REMARK   10  A    between atoms: O_25  and  C_26
REMARK                            x       y       z     vdW  Elec       q    Type
REMARK                         _______ _______ _______ _____ _____    ______ ____
ROOT
ATOM      1  C   UNL     1       1.335  -2.575   2.213  0.00  0.00    +0.218 C 
ATOM      2  O   UNL     1       1.791  -1.712   2.934  0.00  0.00    -0.275 OA
ATOM      3  N   UNL     1       1.590  -3.873   2.471  0.00  0.00    -0.300 N 
ATOM      4  C   UNL     1       1.130  -5.058   1.708  0.00  0.00    +0.121 C 
ATOM      5  C   UNL     1       2.342  -6.016   1.709  0.00  0.00    +0.100 C 
ATOM      6  C   UNL     1       3.166  -5.606   2.941  0.00  0.00    -0.004 C 
ATOM      7  C   UNL     1       2.400  -4.438   3.577  0.00  0.00    +0.115 C 
ATOM      8  C   UNL     1       4.558  -5.147   2.516  0.00  0.00    -0.010 C 
ATOM      9  C   UNL     1       5.378  -4.798   3.762  0.00  0.00    -0.082 C 
ATOM     10  N   UNL     1       5.473  -5.977   4.632  0.00  0.00    +0.379 N 
ATOM     11  C   UNL     1       4.139  -6.356   5.110  0.00  0.00    -0.082 C 
ATOM     12  C   UNL     1       3.267  -6.770   3.922  0.00  0.00    -0.010 C 
ATOM     13  H   UNL     1       5.874  -6.744   4.113  0.00  0.00    -0.086 HD
ATOM     14  H   UNL     1       6.064  -5.763   5.421  0.00  0.00    -0.086 HD
ENDROOT
BRANCH   5  15
ATOM     15  C   UNL     1       3.151  -5.840   0.450  0.00  0.00    +0.218 C 
ATOM     16  O   UNL     1       3.189  -4.760  -0.100  0.00  0.00    -0.275 OA
ATOM     17  N   UNL     1       3.834  -6.882  -0.064  0.00  0.00    -0.312 N 
ATOM     18  H   UNL     1       3.804  -7.746   0.376  0.00  0.00    +0.149 HD
BRANCH  17  19
ATOM     19  C   UNL     1       4.621  -6.711  -1.288  0.00  0.00    +0.145 C 
BRANCH  19  20
ATOM     20  C   UNL     1       5.290  -8.037  -1.653  0.00  0.00    +0.248 C 
BRANCH  20  21
ATOM     21  O   UNL     1       4.289  -9.002  -1.980  0.00  0.00    -0.488 OA
BRANCH  21  22
ATOM     22  C   UNL     1       4.719 -10.243  -2.330  0.00  0.00    +0.156 A 
ATOM     23  C   UNL     1       6.076 -10.528  -2.353  0.00  0.00    +0.048 A 
ATOM     24  C   UNL     1       6.511 -11.790  -2.710  0.00  0.00    +0.004 A 
ATOM     25  C   UNL     1       5.595 -12.770  -3.044  0.00  0.00    +0.003 A 
ATOM     26  C   UNL     1       4.241 -12.491  -3.023  0.00  0.00    +0.042 A 
ATOM     27  C   UNL     1       3.800 -11.231  -2.661  0.00  0.00    +0.165 A 
ATOM     28  F   UNL     1       2.476 -10.960  -2.634  0.00  0.00    -0.202 F 
ENDBRANCH  21  22
ENDBRANCH  20  21
ENDBRANCH  19  20
ENDBRANCH  17  19
ENDBRANCH   5  15
BRANCH   1  29
ATOM     29  C   UNL     1       0.481  -2.195   1.031  0.00  0.00    +0.072 C 
ATOM     30  C   UNL     1      -0.906  -2.822   1.180  0.00  0.00    +0.017 C 
BRANCH  29  31
ATOM     31  C   UNL     1       0.348  -0.672   0.966  0.00  0.00    +0.012 C 
BRANCH  31  33
ATOM     32  C   UNL     1      -0.545   1.243  -0.367  0.00  0.00    +0.004 C 
ATOM     33  C   UNL     1      -0.412  -0.280  -0.303  0.00  0.00    -0.003 C 
ENDBRANCH  31  33
ENDBRANCH  29  31
ENDBRANCH   1  29
TORSDOF 8
