REMARK  Name = ZINC10059673
REMARK  4 active torsions:
REMARK  status: ('A' for Active; 'I' for Inactive)
REMARK    1  A    between atoms: C_1  and  C_2
REMARK    2  A    between atoms: C_11  and  C_13
REMARK    3  A    between atoms: C_15  and  N_20
REMARK    4  A    between atoms: N_23  and  C_24
REMARK                            x       y       z     vdW  Elec       q    Type
REMARK                         _______ _______ _______ _____ _____    ______ ____
ROOT
ATOM      1  C   UNL     1      -0.490   0.845  -0.184  0.00  0.00    +0.066 C 
ATOM      2  C   UNL     1      -1.062   1.383   1.102  0.00  0.00    +0.047 A 
ATOM      3  C   UNL     1      -0.244   1.603   2.171  0.00  0.00    +0.093 A 
ATOM      4  C   UNL     1      -0.797   2.111   3.362  0.00  0.00    +0.257 A 
ATOM      5  O   UNL     1      -0.097   2.311   4.340  0.00  0.00    -0.267 OA
ATOM      6  N   UNL     1      -2.117   2.370   3.394  0.00  0.00    -0.255 N 
ATOM      7  C   UNL     1      -2.889   2.113   2.298  0.00  0.00    +0.207 A 
ATOM      8  N   UNL     1      -2.366   1.647   1.189  0.00  0.00    -0.221 NA
ATOM      9  N   UNL     1      -4.244   2.362   2.412  0.00  0.00    -0.259 N 
ATOM     10  C   UNL     1      -4.811   2.108   3.657  0.00  0.00    +0.166 C 
ATOM     11  C   UNL     1      -2.757   2.941   4.583  0.00  0.00    +0.222 C 
ATOM     12  N   UNL     1      -6.084   1.597   3.762  0.00  0.00    -0.287 N 
ATOM     13  H   UNL     1      -4.769   2.694   1.668  0.00  0.00    +0.158 HD
ATOM     14  H   UNL     1      -6.633   1.496   2.969  0.00  0.00    +0.155 HD
ATOM     15  N   UNL     1      -4.128   2.352   4.787  0.00  0.00    -0.336 N 
ATOM     16  H   UNL     1      -4.512   2.154   5.718  0.00  0.00    +0.164 HD
ENDROOT
BRANCH  12  17
ATOM     17  C   UNL     1      -6.588   1.224   5.013  0.00  0.00    +0.053 A 
ATOM     18  C   UNL     1      -5.717   0.892   6.043  0.00  0.00    +0.025 A 
ATOM     19  C   UNL     1      -6.216   0.529   7.278  0.00  0.00    +0.003 A 
ATOM     20  C   UNL     1      -7.582   0.486   7.489  0.00  0.00    +0.021 A 
ATOM     21  C   UNL     1      -8.454   0.811   6.465  0.00  0.00    +0.061 A 
ATOM     22  C   UNL     1      -7.960   1.181   5.227  0.00  0.00    +0.080 A 
ATOM     23 CL   UNL     1      -9.053   1.590   3.942  0.00  0.00    -0.080 Cl
ATOM     24 CL   UNL     1     -10.168   0.756   6.734  0.00  0.00    -0.082 Cl
ENDBRANCH  12  17
BRANCH  11  25
ATOM     25  C   UNL     1      -2.862   4.437   4.430  0.00  0.00    +0.016 A 
ATOM     26  C   UNL     1      -2.879   5.003   3.169  0.00  0.00    +0.041 A 
ATOM     27  C   UNL     1      -2.975   6.375   3.029  0.00  0.00    +0.127 A 
ATOM     28  C   UNL     1      -3.055   7.181   4.149  0.00  0.00    +0.034 A 
ATOM     29  C   UNL     1      -3.037   6.616   5.410  0.00  0.00    +0.022 A 
ATOM     30  C   UNL     1      -2.946   5.242   5.551  0.00  0.00    +0.048 A 
ATOM     31 CL   UNL     1      -2.932   4.531   7.135  0.00  0.00    -0.083 Cl
BRANCH  27  32
ATOM     32  N   UNL     1      -2.993   6.981   1.679  0.00  0.00    +0.056 N 
ATOM     33  O   UNL     1      -2.922   6.271   0.691  0.00  0.00    -0.126 OA
ATOM     34  O   UNL     1      -3.078   8.189   1.554  0.00  0.00    -0.126 OA
ENDBRANCH  27  32
ENDBRANCH  11  25
TORSDOF 3
