REMARK  Name = ZINC41023424
REMARK  10 active torsions:
REMARK  status: ('A' for Active; 'I' for Inactive)
REMARK    1  A    between atoms: C_1  and  C_2
REMARK    2  A    between atoms: C_2  and  O_3
REMARK    3  A    between atoms: O_3  and  C_4
REMARK    4  A    between atoms: C_9  and  N_10
REMARK    5  A    between atoms: C_11  and  C_13
REMARK    6  A    between atoms: C_14  and  C_32
REMARK    7  A    between atoms: C_18  and  S_29
REMARK    8  A    between atoms: C_21  and  C_23
REMARK    9  A    between atoms: S_29  and  C_30
REMARK   10  A    between atoms: C_30  and  C_31
REMARK                            x       y       z     vdW  Elec       q    Type
REMARK                         _______ _______ _______ _____ _____    ______ ____
ROOT
ATOM      1  C   UNL     1      -6.153  -1.102   0.124  0.00  0.00    +0.063 C 
ATOM      2  C   UNL     1      -7.403  -1.580   0.202  0.00  0.00    +0.018 C 
ATOM      3  N   UNL     1      -8.501  -0.755   0.238  0.00  0.00    -0.287 N 
ATOM      4  C   UNL     1      -8.305   0.584  -0.072  0.00  0.00    +0.220 A 
ATOM      5  N   UNL     1      -9.174   1.523  -0.328  0.00  0.00    -0.187 NA
ATOM      6  C   UNL     1      -8.531   2.672  -0.581  0.00  0.00    +0.210 A 
ATOM      7  N   UNL     1      -7.235   2.467  -0.485  0.00  0.00    -0.141 NA
ATOM      8  N   UNL     1      -7.064   1.124  -0.153  0.00  0.00    -0.217 N 
ATOM      9  C   UNL     1      -5.836   0.369   0.088  0.00  0.00    +0.213 C 
ATOM     10  C   UNL     1      -7.611  -3.072   0.251  0.00  0.00    +0.061 C 
ATOM     11  H   UNL     1      -9.379  -1.095   0.470  0.00  0.00    +0.155 HD
ENDROOT
BRANCH   9  12
ATOM     12  C   UNL     1      -5.235   0.786   1.406  0.00  0.00    +0.136 A 
ATOM     13  C   UNL     1      -4.016   1.327   1.578  0.00  0.00    +0.048 A 
ATOM     14  C   UNL     1      -3.863   1.562   2.964  0.00  0.00    +0.057 A 
ATOM     15  C   UNL     1      -5.000   1.150   3.556  0.00  0.00    +0.170 A 
ATOM     16  O   UNL     1      -5.829   0.686   2.607  0.00  0.00    -0.451 OA
ATOM     17 BR   UNL     1      -5.369   1.218   5.410  0.00  0.00    -0.008 Br
ENDBRANCH   9  12
BRANCH   1  19
ATOM     18  N   UNL     1      -4.747  -2.723   1.183  0.00  0.00    -0.279 N 
ATOM     19  C   UNL     1      -5.080  -2.024   0.081  0.00  0.00    +0.248 C 
ATOM     20  O   UNL     1      -4.458  -2.185  -0.954  0.00  0.00    -0.270 OA
ATOM     21  H   UNL     1      -5.277  -2.636   1.991  0.00  0.00    +0.155 HD
BRANCH  18  27
ATOM     22  C   UNL     1      -2.854  -3.731   2.306  0.00  0.00    +0.142 A 
ATOM     23  C   UNL     1      -1.759  -4.580   2.281  0.00  0.00    +0.047 A 
ATOM     24  C   UNL     1      -1.442  -5.266   1.124  0.00  0.00    +0.004 A 
ATOM     25  C   UNL     1      -2.214  -5.108  -0.012  0.00  0.00    +0.002 A 
ATOM     26  C   UNL     1      -3.307  -4.263   0.004  0.00  0.00    +0.027 A 
ATOM     27  C   UNL     1      -3.636  -3.575   1.163  0.00  0.00    +0.076 A 
BRANCH  22  28
ATOM     28  O   UNL     1      -3.167  -3.055   3.443  0.00  0.00    -0.490 OA
BRANCH  28  30
ATOM     29  C   UNL     1      -2.827  -2.426   5.752  0.00  0.00    +0.048 C 
ATOM     30  C   UNL     1      -2.321  -3.263   4.576  0.00  0.00    +0.226 C 
ENDBRANCH  28  30
ENDBRANCH  22  28
ENDBRANCH  18  27
ENDBRANCH   1  19
BRANCH   6  31
ATOM     31  S   UNL     1      -9.297   4.207  -0.979  0.00  0.00    -0.085 S 
BRANCH  31  32
ATOM     32  C   UNL     1     -11.072   3.832  -0.952  0.00  0.00    +0.074 C 
ATOM     33  C   UNL     1     -11.866   5.097  -1.286  0.00  0.00    +0.016 C 
ENDBRANCH  31  32
ENDBRANCH   6  31
TORSDOF 7
