REMARK  Name = ZINC35674904
REMARK  13 active torsions:
REMARK  status: ('A' for Active; 'I' for Inactive)
REMARK    1  A    between atoms: C_1  and  C_2
REMARK    2  A    between atoms: C_2  and  C_3
REMARK    3  A    between atoms: C_3  and  C_5
REMARK    4  A    between atoms: C_3  and  N_28
REMARK    5  A    between atoms: C_9  and  O_26
REMARK    6  A    between atoms: C_10  and  O_24
REMARK    7  A    between atoms: N_15  and  C_16
REMARK    8  A    between atoms: C_16  and  C_17
REMARK    9  A    between atoms: C_22  and  C_23
REMARK   10  A    between atoms: O_24  and  C_25
REMARK   11  A    between atoms: O_26  and  C_27
REMARK   12  A    between atoms: N_28  and  S_29
REMARK   13  A    between atoms: S_29  and  C_32
REMARK                            x       y       z     vdW  Elec       q    Type
REMARK                         _______ _______ _______ _____ _____    ______ ____
ROOT
ATOM      1  C   UNL     1       0.414  -1.743  -0.567  0.00  0.00    -0.018 C 
ATOM      2  C   UNL     1       1.159  -2.571  -1.581  0.00  0.00    -0.053 A 
ATOM      3  C   UNL     1       1.211  -2.121  -2.892  0.00  0.00    +0.051 A 
ATOM      4  C   UNL     1       1.882  -2.851  -3.856  0.00  0.00    +0.162 A 
ATOM      5  C   UNL     1       2.507  -4.045  -3.507  0.00  0.00    +0.162 A 
ATOM      6  C   UNL     1       2.453  -4.490  -2.198  0.00  0.00    +0.053 A 
ATOM      7  C   UNL     1       1.780  -3.753  -1.236  0.00  0.00    -0.044 A 
ATOM      8  C   UNL     1       1.754  -4.270   0.180  0.00  0.00    +0.017 C 
ATOM      9  C   UNL     1       0.658  -3.556   0.972  0.00  0.00    -0.073 C 
ATOM     10  N   UNL     1       0.821  -2.105   0.794  0.00  0.00    +0.388 N 
ATOM     11  H   UNL     1       1.788  -1.854   0.934  0.00  0.00    -0.080 HD
ENDROOT
BRANCH   5  12
ATOM     12  O   UNL     1       3.168  -4.771  -4.449  0.00  0.00    -0.491 OA
ATOM     13  C   UNL     1       3.786  -5.985  -4.016  0.00  0.00    +0.277 C 
ENDBRANCH   5  12
BRANCH   4  14
ATOM     14  O   UNL     1       1.930  -2.405  -5.140  0.00  0.00    -0.491 OA
ATOM     15  C   UNL     1       1.362  -1.121  -5.402  0.00  0.00    +0.277 C 
ENDBRANCH   4  14
BRANCH   1  16
ATOM     16  C   UNL     1       0.714  -0.262  -0.806  0.00  0.00    +0.067 C 
BRANCH  16  18
ATOM     17  C   UNL     1       2.507   1.478  -0.819  0.00  0.00    +0.005 C 
ATOM     18  C   UNL     1       2.189   0.014  -0.508  0.00  0.00    +0.016 C 
ENDBRANCH  16  18
BRANCH  16  19
ATOM     19  N   UNL     1      -0.123   0.555   0.075  0.00  0.00    -0.188 NA
ATOM     20  H   UNL     1       0.258   0.955   0.873  0.00  0.00    +0.148 HD
BRANCH  19  21
ATOM     21  S   UNL     1      -1.721   0.796  -0.289  0.00  0.00    +0.059 S 
ATOM     22  O   UNL     1      -2.273   1.549   0.782  0.00  0.00    -0.153 OA
ATOM     23  O   UNL     1      -1.767   1.242  -1.638  0.00  0.00    -0.153 OA
BRANCH  21  24
ATOM     24  C   UNL     1      -2.507  -0.781  -0.254  0.00  0.00    +0.105 A 
ATOM     25  C   UNL     1      -2.580  -1.543  -1.405  0.00  0.00    +0.028 A 
ATOM     26  C   UNL     1      -3.197  -2.780  -1.377  0.00  0.00    +0.002 A 
ATOM     27  C   UNL     1      -3.739  -3.255  -0.198  0.00  0.00    +0.000 A 
ATOM     28  C   UNL     1      -3.665  -2.493   0.954  0.00  0.00    +0.002 A 
ATOM     29  C   UNL     1      -3.045  -1.258   0.927  0.00  0.00    +0.028 A 
ENDBRANCH  21  24
ENDBRANCH  19  21
ENDBRANCH  16  19
ENDBRANCH   1  16
BRANCH  10  30
ATOM     30  C   UNL     1      -0.020  -1.393   1.765  0.00  0.00    -0.042 C 
BRANCH  30  31
ATOM     31  C   UNL     1       0.347  -1.827   3.161  0.00  0.00    -0.061 A 
ATOM     32  C   UNL     1      -0.359  -2.845   3.776  0.00  0.00    +0.002 A 
ATOM     33  C   UNL     1      -0.023  -3.244   5.056  0.00  0.00    +0.000 A 
ATOM     34  C   UNL     1       1.019  -2.625   5.721  0.00  0.00    +0.000 A 
ATOM     35  C   UNL     1       1.725  -1.608   5.106  0.00  0.00    +0.003 A 
ATOM     36  C   UNL     1       1.392  -1.212   3.824  0.00  0.00    -0.049 A 
ATOM     37  C   UNL     1       2.165  -0.107   3.151  0.00  0.00    +0.044 C 
ENDBRANCH  30  31
ENDBRANCH  10  30
TORSDOF 9
