REMARK  Name = ZINC40760850
REMARK  10 active torsions:
REMARK  status: ('A' for Active; 'I' for Inactive)
REMARK    1  A    between atoms: C_1  and  C_2
REMARK    2  A    between atoms: C_5  and  O_8
REMARK    3  A    between atoms: O_8  and  C_9
REMARK    4  A    between atoms: C_10  and  N_26
REMARK    5  A    between atoms: C_11  and  N_15
REMARK    6  A    between atoms: N_15  and  C_16
REMARK    7  A    between atoms: C_18  and  C_24
REMARK    8  A    between atoms: C_18  and  C_25
REMARK    9  A    between atoms: C_20  and  C_22
REMARK   10  A    between atoms: C_20  and  C_23
REMARK                            x       y       z     vdW  Elec       q    Type
REMARK                         _______ _______ _______ _____ _____    ______ ____
ROOT
ATOM      1  C   UNL     1       0.039  -4.732   1.244  0.00  0.00    +0.246 A 
ATOM      2  C   UNL     1       0.199  -6.117   1.288  0.00  0.00    +0.128 A 
ATOM      3  C   UNL     1       0.306  -6.729   2.539  0.00  0.00    +0.147 A 
ATOM      4  N   UNL     1       0.252  -5.974   3.633  0.00  0.00    -0.219 NA
ATOM      5  C   UNL     1       0.101  -4.668   3.546  0.00  0.00    +0.227 A 
ATOM      6  N   UNL     1       0.001  -4.051   2.385  0.00  0.00    -0.199 NA
ENDROOT
BRANCH   2   7
ATOM      7  N   UNL     1       0.249  -6.874   0.107  0.00  0.00    -0.351 N 
ATOM      8  H   UNL     1       0.173  -6.435  -0.754  0.00  0.00    +0.143 HD
ATOM      9  H   UNL     1       0.360  -7.837   0.153  0.00  0.00    +0.143 HD
ENDBRANCH   2   7
BRANCH   3  10
ATOM     10  N   UNL     1       0.465  -8.106   2.639  0.00  0.00    -0.325 N 
ATOM     11  H   UNL     1       0.503  -8.649   1.837  0.00  0.00    +0.148 HD
BRANCH  10  12
ATOM     12  C   UNL     1       0.577  -8.738   3.960  0.00  0.00    +0.069 C 
ATOM     13  C   UNL     1      -0.825  -9.043   4.491  0.00  0.00    +0.009 C 
ATOM     14  C   UNL     1      -0.725  -9.713   5.861  0.00  0.00    -0.072 C 
ATOM     15  N   UNL     1       0.130 -10.890   5.835  0.00  0.00    +0.386 N 
ATOM     16  C   UNL     1       1.417 -10.775   5.168  0.00  0.00    -0.072 C 
ATOM     17  C   UNL     1       1.337 -10.057   3.825  0.00  0.00    +0.009 C 
ATOM     18  C   UNL     1       1.926 -12.210   4.891  0.00  0.00    -0.010 C 
ATOM     19  C   UNL     1       2.459 -10.097   6.061  0.00  0.00    -0.010 C 
ATOM     20  C   UNL     1      -2.148 -10.178   6.248  0.00  0.00    -0.010 C 
ATOM     21  C   UNL     1      -0.278  -8.699   6.913  0.00  0.00    -0.010 C 
ATOM     22  H   UNL     1       0.292 -11.190   6.799  0.00  0.00    -0.084 HD
ATOM     23  H   UNL     1      -0.391 -11.655   5.400  0.00  0.00    -0.084 HD
ENDBRANCH  10  12
ENDBRANCH   3  10
BRANCH   1  24
ATOM     24  O   UNL     1      -0.069  -4.089   0.054  0.00  0.00    -0.436 OA
BRANCH  24  29
ATOM     25  C   UNL     1      -0.238   1.540   0.098  0.00  0.00    +0.044 C 
ATOM     26  C   UNL     1      -0.193   0.034   0.086  0.00  0.00    -0.050 A 
ATOM     27  C   UNL     1       1.000  -0.622   0.326  0.00  0.00    +0.007 A 
ATOM     28  C   UNL     1       1.044  -2.003   0.317  0.00  0.00    +0.046 A 
ATOM     29  C   UNL     1      -0.110  -2.731   0.065  0.00  0.00    +0.130 A 
ATOM     30  C   UNL     1      -1.306  -2.070  -0.176  0.00  0.00    +0.046 A 
ATOM     31  C   UNL     1      -1.346  -0.689  -0.160  0.00  0.00    +0.007 A 
ENDBRANCH  24  29
ENDBRANCH   1  24
TORSDOF 5
