REMARK  Name = ZINC67513854
REMARK  4 active torsions:
REMARK  status: ('A' for Active; 'I' for Inactive)
REMARK    1  A    between atoms: C_1  and  C_2
REMARK    2  A    between atoms: C_4  and  C_26
REMARK    3  A    between atoms: C_9  and  C_14
REMARK    4  A    between atoms: C_14  and  N_15
REMARK                            x       y       z     vdW  Elec       q    Type
REMARK                         _______ _______ _______ _____ _____    ______ ____
ROOT
ATOM      1  C   UNL     1      -0.018   1.503   0.010  0.00  0.00    +0.044 C 
ATOM      2  C   UNL     1       0.002  -0.004   0.002  0.00  0.00    -0.050 A 
ATOM      3  C   UNL     1       0.006  -0.685  -1.208  0.00  0.00    +0.008 A 
ATOM      4  C   UNL     1       0.024  -2.063  -1.239  0.00  0.00    -0.026 A 
ATOM      5  C   UNL     1       0.040  -2.780  -0.047  0.00  0.00    +0.052 A 
ATOM      6  C   UNL     1       0.037  -2.086   1.177  0.00  0.00    -0.001 A 
ATOM      7  C   UNL     1       0.023  -0.687   1.185  0.00  0.00    +0.013 A 
ATOM      8  C   UNL     1       0.053  -2.850   2.426  0.00  0.00    +0.017 A 
ATOM      9  C   UNL     1       0.072  -4.204   2.357  0.00  0.00    +0.001 A 
ATOM     10  C   UNL     1       0.074  -4.852   1.103  0.00  0.00    +0.251 A 
ATOM     11  O   UNL     1       0.091  -6.070   1.064  0.00  0.00    -0.268 OA
ATOM     12  N   UNL     1       0.059  -4.159  -0.049  0.00  0.00    -0.322 N 
ATOM     13  H   UNL     1       0.061  -4.636  -0.893  0.00  0.00    +0.169 HD
ATOM     14  C   UNL     1       0.027  -2.790  -2.559  0.00  0.00    +0.046 C 
ENDROOT
BRANCH   9  15
ATOM     15  C   UNL     1       0.089  -5.020   3.624  0.00  0.00    -0.038 C 
BRANCH  15  16
ATOM     16  N   UNL     1      -1.284  -5.405   3.977  0.00  0.00    +0.383 N 
ATOM     17  C   UNL     1      -1.824  -6.291   2.938  0.00  0.00    -0.078 C 
ATOM     18  C   UNL     1      -3.287  -6.617   3.254  0.00  0.00    -0.010 C 
ATOM     19  C   UNL     1      -3.371  -7.280   4.622  0.00  0.00    -0.009 C 
ATOM     20  C   UNL     1      -2.717  -6.414   5.689  0.00  0.00    -0.010 C 
ATOM     21  C   UNL     1      -1.278  -6.097   5.272  0.00  0.00    -0.078 C 
ATOM     22  C   UNL     1      -4.834  -7.586   4.989  0.00  0.00    +0.104 C 
ATOM     23  C   UNL     1      -5.035  -9.018   4.539  0.00  0.00    +0.214 C 
ATOM     24  O   UNL     1      -6.112  -9.558   4.398  0.00  0.00    -0.276 OA
ATOM     25  N   UNL     1      -3.844  -9.604   4.317  0.00  0.00    -0.315 N 
ATOM     26  C   UNL     1      -2.735  -8.680   4.589  0.00  0.00    +0.111 C 
ATOM     27  H   UNL     1      -3.733 -10.520   4.017  0.00  0.00    +0.149 HD
ATOM     28  H   UNL     1      -1.858  -4.578   4.042  0.00  0.00    -0.081 HD
ENDBRANCH  15  16
ENDBRANCH   9  15
TORSDOF 2
