REMARK  Name = ZINC62826950
REMARK  5 active torsions:
REMARK  status: ('A' for Active; 'I' for Inactive)
REMARK    1  A    between atoms: C_1  and  O_2
REMARK    2  A    between atoms: O_2  and  C_3
REMARK    3  A    between atoms: C_6  and  C_10
REMARK    4  A    between atoms: N_12  and  C_13
REMARK    5  A    between atoms: C_14  and  C_20
REMARK                            x       y       z     vdW  Elec       q    Type
REMARK                         _______ _______ _______ _____ _____    ______ ____
ROOT
ATOM      1  C   UNL     1       1.512  -3.881   2.990  0.00  0.00    +0.203 C 
ATOM      2  O   UNL     1       2.460  -3.767   3.737  0.00  0.00    -0.277 OA
ATOM      3  N   UNL     1       0.375  -4.458   3.426  0.00  0.00    -0.285 N 
ATOM      4  H   UNL     1      -0.409  -4.478   2.855  0.00  0.00    +0.155 HD
ENDROOT
BRANCH   1   7
ATOM      5  C   UNL     1       2.019  -1.038   0.965  0.00  0.00    +0.100 C 
ATOM      6  C   UNL     1       0.917  -2.003   1.459  0.00  0.00    +0.023 C 
ATOM      7  C   UNL     1       1.605  -3.376   1.573  0.00  0.00    +0.019 C 
ATOM      8  N   UNL     1       3.022  -3.184   1.194  0.00  0.00    +0.388 N 
ATOM      9  C   UNL     1       3.049  -1.990   0.307  0.00  0.00    -0.050 C 
ATOM     10  H   UNL     1       3.582  -3.015   2.017  0.00  0.00    -0.085 HD
ATOM     11  H   UNL     1       3.363  -3.994   0.700  0.00  0.00    -0.085 HD
BRANCH   5  13
ATOM     12  C   UNL     1       2.186   1.130  -0.043  0.00  0.00    +0.194 C 
ATOM     13  O   UNL     1       1.494  -0.120   0.005  0.00  0.00    -0.382 OA
ENDBRANCH   5  13
ENDBRANCH   1   7
BRANCH   3  14
ATOM     14  C   UNL     1       0.326  -5.027   4.695  0.00  0.00    +0.062 A 
ATOM     15  C   UNL     1      -0.094  -6.358   4.857  0.00  0.00    +0.085 A 
ATOM     16  C   UNL     1      -0.138  -6.917   6.138  0.00  0.00    +0.017 A 
ATOM     17  C   UNL     1       0.229  -6.162   7.230  0.00  0.00    +0.002 A 
ATOM     18  C   UNL     1       0.642  -4.849   7.067  0.00  0.00    +0.017 A 
ATOM     19  C   UNL     1       0.698  -4.284   5.808  0.00  0.00    +0.040 A 
ATOM     20 BR   UNL     1       1.272  -2.495   5.601  0.00  0.00    -0.048 Br
BRANCH  15  21
ATOM     21  C   UNL     1      -0.485  -7.158   3.686  0.00  0.00    +0.388 C 
ATOM     22  O   UNL     1      -0.948  -8.280   3.839  0.00  0.00    -0.241 OA
ATOM     23  O   UNL     1      -0.347  -6.702   2.559  0.00  0.00    -0.241 OA
ENDBRANCH  15  21
ENDBRANCH   3  14
TORSDOF 4
