REMARK  Name = ZINC36264009
REMARK  4 active torsions:
REMARK  status: ('A' for Active; 'I' for Inactive)
REMARK    1  A    between atoms: C_4  and  S_8
REMARK    2  A    between atoms: S_8  and  N_11
REMARK    3  A    between atoms: N_11  and  C_12
REMARK    4  A    between atoms: C_15  and  N_17
REMARK                            x       y       z     vdW  Elec       q    Type
REMARK                         _______ _______ _______ _____ _____    ______ ____
ROOT
ATOM      1  S   UNL     1       4.044  -0.864  -0.001  0.00  0.00    +0.060 S 
ATOM      2  O   UNL     1       5.036  -0.375   0.891  0.00  0.00    -0.153 OA
ATOM      3  O   UNL     1       3.587  -2.209   0.030  0.00  0.00    -0.153 OA
ENDROOT
BRANCH   1   7
ATOM      4  C   UNL     1       0.392   1.754   0.561  0.00  0.00    +0.016 A 
ATOM      5  C   UNL     1       0.380   0.746  -0.384  0.00  0.00    +0.018 A 
ATOM      6  C   UNL     1       1.496  -0.054  -0.557  0.00  0.00    +0.044 A 
ATOM      7  C   UNL     1       2.623   0.156   0.217  0.00  0.00    +0.120 A 
ATOM      8  C   UNL     1       2.635   1.164   1.162  0.00  0.00    +0.045 A 
ATOM      9  C   UNL     1       1.519   1.963   1.335  0.00  0.00    +0.020 A 
ATOM     10 BR   UNL     1       1.535   3.343   2.628  0.00  0.00    -0.050 Br
ATOM     11 BR   UNL     1       1.480  -1.433  -1.850  0.00  0.00    -0.048 Br
ENDBRANCH   1   7
BRANCH   1  12
ATOM     12  N   UNL     1       4.610  -0.591  -1.533  0.00  0.00    -0.188 NA
ATOM     13  H   UNL     1       4.606  -1.308  -2.187  0.00  0.00    +0.148 HD
BRANCH  12  14
ATOM     14  C   UNL     1       5.119   0.732  -1.902  0.00  0.00    +0.061 C 
ATOM     15  C   UNL     1       6.273   0.791  -2.905  0.00  0.00    +0.004 C 
ATOM     16  C   UNL     1       4.865   1.214  -3.332  0.00  0.00    -0.055 C 
BRANCH  16  17
ATOM     17  N   UNL     1       4.618   2.648  -3.530  0.00  0.00    +0.381 N 
ATOM     18  H   UNL     1       5.417   3.175  -3.210  0.00  0.00    -0.090 HD
ATOM     19  H   UNL     1       4.466   2.831  -4.511  0.00  0.00    -0.090 HD
ATOM     20  H   UNL     1       3.801   2.925  -3.007  0.00  0.00    -0.090 HD
ENDBRANCH  16  17
ENDBRANCH  12  14
ENDBRANCH   1  12
TORSDOF 4
