REMARK  Name = ZINC09886769
REMARK  11 active torsions:
REMARK  status: ('A' for Active; 'I' for Inactive)
REMARK    1  A    between atoms: C_1  and  C_2
REMARK    2  A    between atoms: C_5  and  C_8
REMARK    3  A    between atoms: N_10  and  C_11
REMARK    4  A    between atoms: C_11  and  C_13
REMARK    5  A    between atoms: C_11  and  C_16
REMARK    6  A    between atoms: C_13  and  C_14
REMARK    7  A    between atoms: C_13  and  C_15
REMARK    8  A    between atoms: N_18  and  N_19
REMARK    9  A    between atoms: C_20  and  C_21
REMARK   10  A    between atoms: N_23  and  C_30
REMARK   11  A    between atoms: C_30  and  C_31
REMARK                            x       y       z     vdW  Elec       q    Type
REMARK                         _______ _______ _______ _____ _____    ______ ____
ROOT
ATOM      1  C   UNL     1      -0.673  -2.159  -0.075  0.00  0.00    +0.253 C 
ATOM      2  O   UNL     1       0.360  -2.134  -0.712  0.00  0.00    -0.272 OA
ATOM      3  N   UNL     1      -1.612  -3.086  -0.351  0.00  0.00    -0.205 N 
ATOM      4  H   UNL     1      -2.457  -3.078   0.125  0.00  0.00    +0.177 HD
ENDROOT
BRANCH   3   5
ATOM      5  N   UNL     1      -1.367  -4.063  -1.325  0.00  0.00    -0.188 NA
ATOM      6  C   UNL     1      -2.307  -4.894  -1.663  0.00  0.00    +0.140 C 
BRANCH   6   7
ATOM      7  C   UNL     1      -3.683  -4.679  -1.188  0.00  0.00    +0.020 A 
ATOM      8  C   UNL     1      -4.226  -3.504  -0.770  0.00  0.00    +0.096 A 
ATOM      9  N   UNL     1      -5.525  -3.700  -0.408  0.00  0.00    -0.342 N 
ATOM     10  C   UNL     1      -5.874  -5.023  -0.579  0.00  0.00    +0.050 A 
ATOM     11  C   UNL     1      -4.746  -5.695  -1.080  0.00  0.00    +0.009 A 
ATOM     12  C   UNL     1      -4.807  -7.061  -1.343  0.00  0.00    +0.010 A 
ATOM     13  C   UNL     1      -5.982  -7.746  -1.123  0.00  0.00    +0.001 A 
ATOM     14  C   UNL     1      -7.098  -7.083  -0.634  0.00  0.00    +0.002 A 
ATOM     15  C   UNL     1      -7.050  -5.733  -0.363  0.00  0.00    +0.026 A 
BRANCH   9  16
ATOM     16  C   UNL     1      -6.422  -2.656   0.093  0.00  0.00    +0.157 C 
BRANCH  16  17
ATOM     17  C   UNL     1      -6.397  -2.651   1.599  0.00  0.00    -0.028 A 
ATOM     18  C   UNL     1      -7.225  -3.503   2.307  0.00  0.00    +0.007 A 
ATOM     19  C   UNL     1      -7.199  -3.503   3.688  0.00  0.00    +0.020 A 
ATOM     20  C   UNL     1      -6.351  -2.643   4.364  0.00  0.00    +0.041 A 
ATOM     21  C   UNL     1      -5.526  -1.788   3.656  0.00  0.00    +0.020 A 
ATOM     22  C   UNL     1      -5.550  -1.792   2.274  0.00  0.00    +0.007 A 
ATOM     23 CL   UNL     1      -6.322  -2.639   6.100  0.00  0.00    -0.084 Cl
ENDBRANCH  16  17
ENDBRANCH   9  16
ENDBRANCH   6   7
ENDBRANCH   3   5
BRANCH   1  24
ATOM     24  C   UNL     1      -0.906  -1.155   1.024  0.00  0.00    +0.163 C 
BRANCH  24  27
ATOM     25  C   UNL     1      -0.209   1.148   1.412  0.00  0.00    +0.245 C 
ATOM     26  O   UNL     1      -1.278   1.349   1.954  0.00  0.00    -0.270 OA
ATOM     27  N   UNL     1       0.073  -0.071   0.910  0.00  0.00    -0.300 N 
ATOM     28  H   UNL     1       0.924  -0.230   0.473  0.00  0.00    +0.150 HD
BRANCH  25  33
ATOM     29  C   UNL     1       3.637   5.405   0.967  0.00  0.00    +0.044 C 
ATOM     30  C   UNL     1       2.630   4.290   1.083  0.00  0.00    -0.050 A 
ATOM     31  C   UNL     1       1.416   4.521   1.706  0.00  0.00    +0.004 A 
ATOM     32  C   UNL     1       0.489   3.505   1.815  0.00  0.00    +0.013 A 
ATOM     33  C   UNL     1       0.779   2.242   1.297  0.00  0.00    +0.037 A 
ATOM     34  C   UNL     1       2.007   2.014   0.675  0.00  0.00    +0.013 A 
ATOM     35  C   UNL     1       2.923   3.041   0.567  0.00  0.00    +0.004 A 
ENDBRANCH  25  33
ENDBRANCH  24  27
BRANCH  24  36
ATOM     36  C   UNL     1      -0.752  -1.840   2.383  0.00  0.00    +0.012 C 
ATOM     37  C   UNL     1      -1.028  -0.830   3.498  0.00  0.00    +0.009 C 
ATOM     38  C   UNL     1      -1.748  -2.997   2.486  0.00  0.00    +0.009 C 
ENDBRANCH  24  36
ENDBRANCH   1  24
TORSDOF 8
