REMARK  Name = ZINC08763175
REMARK  12 active torsions:
REMARK  status: ('A' for Active; 'I' for Inactive)
REMARK    1  A    between atoms: C_1  and  C_2
REMARK    2  A    between atoms: C_6  and  C_8
REMARK    3  A    between atoms: C_8  and  C_10
REMARK    4  A    between atoms: C_8  and  C_11
REMARK    5  A    between atoms: C_13  and  O_40
REMARK    6  A    between atoms: C_18  and  C_39
REMARK    7  A    between atoms: C_28  and  C_38
REMARK    8  A    between atoms: C_31  and  O_34
REMARK    9  A    between atoms: O_34  and  C_35
REMARK   10  A    between atoms: C_35  and  C_37
REMARK   11  A    between atoms: O_40  and  C_41
REMARK   12  A    between atoms: C_41  and  C_43
REMARK                            x       y       z     vdW  Elec       q    Type
REMARK                         _______ _______ _______ _____ _____    ______ ____
ROOT
ATOM      1  C   UNL     1       0.169   0.040   4.646  0.00  0.00    +0.044 C 
ATOM      2  C   UNL     1       1.626   0.096   4.116  0.00  0.00    +0.181 C 
ATOM      3  C   UNL     1       1.572   0.835   2.752  0.00  0.00    +0.049 C 
ATOM      4  C   UNL     1       0.156   1.432   2.720  0.00  0.00    +0.003 C 
ATOM      5  C   UNL     1      -0.679   0.324   3.391  0.00  0.00    -0.022 C 
ATOM      6  C   UNL     1      -2.096   0.766   3.624  0.00  0.00    +0.007 C 
ATOM      7  C   UNL     1      -2.639   1.579   2.440  0.00  0.00    +0.005 C 
ATOM      8  C   UNL     1      -1.820   1.387   1.176  0.00  0.00    +0.003 C 
ATOM      9  C   UNL     1      -0.372   1.840   1.380  0.00  0.00    +0.000 C 
ATOM     10  C   UNL     1       0.441   1.295   0.202  0.00  0.00    +0.031 C 
ATOM     11  C   UNL     1      -0.172   1.859  -1.055  0.00  0.00    -0.027 C 
ATOM     12  C   UNL     1      -1.405   2.249  -1.136  0.00  0.00    -0.064 C 
ATOM     13  C   UNL     1      -2.406   2.151  -0.009  0.00  0.00    -0.008 C 
ATOM     14  C   UNL     1      -2.844   3.559   0.375  0.00  0.00    +0.015 C 
ATOM     15  C   UNL     1      -2.376   4.567  -0.673  0.00  0.00    +0.046 C 
ATOM     16  C   UNL     1      -2.694   4.115  -2.094  0.00  0.00    +0.180 C 
ATOM     17  C   UNL     1      -1.914   2.841  -2.438  0.00  0.00    +0.075 C 
ATOM     18  C   UNL     1      -3.624   1.368  -0.506  0.00  0.00    +0.016 C 
ATOM     19  C   UNL     1      -0.657  -0.980   2.576  0.00  0.00    +0.012 C 
ENDROOT
BRANCH   1  20
ATOM     20  C   UNL     1      -0.033   1.089   5.731  0.00  0.00    +0.035 C 
ATOM     21  C   UNL     1       0.037   2.485   5.110  0.00  0.00    +0.014 C 
BRANCH  20  26
ATOM     22  C   UNL     1      -5.262   0.319   8.007  0.00  0.00    +0.009 C 
ATOM     23  C   UNL     1      -4.006   0.789   7.270  0.00  0.00    +0.005 C 
ATOM     24  C   UNL     1      -2.934   1.202   8.287  0.00  0.00    +0.011 C 
ATOM     25  C   UNL     1      -1.749   1.792   7.518  0.00  0.00    +0.049 C 
ATOM     26  C   UNL     1      -1.382   0.892   6.375  0.00  0.00    -0.008 C 
ATOM     27  C   UNL     1      -3.449  -0.354   6.419  0.00  0.00    +0.115 C 
ATOM     28  N   UNL     1      -2.088  -0.067   5.830  0.00  0.00    -0.390 N 
ATOM     29  H   UNL     1      -1.729  -0.605   5.032  0.00  0.00    +0.159 HD
ENDBRANCH  20  26
ENDBRANCH   1  20
BRANCH  16  30
ATOM     30  O   UNL     1      -4.118   3.882  -2.237  0.00  0.00    -0.461 OA
BRANCH  30  31
ATOM     31  C   UNL     1      -4.659   4.128  -3.440  0.00  0.00    +0.304 C 
ATOM     32  O   UNL     1      -3.964   4.525  -4.345  0.00  0.00    -0.251 OA
ATOM     33  C   UNL     1      -6.133   3.909  -3.663  0.00  0.00    +0.136 C 
ENDBRANCH  30  31
ENDBRANCH  16  30
BRANCH   2  34
ATOM     34  O   UNL     1       2.464   0.829   5.047  0.00  0.00    -0.461 OA
BRANCH  34  35
ATOM     35  C   UNL     1       3.758   0.478   5.110  0.00  0.00    +0.304 C 
ATOM     36  O   UNL     1       4.177  -0.412   4.408  0.00  0.00    -0.251 OA
ATOM     37  C   UNL     1       4.688   1.195   6.054  0.00  0.00    +0.136 C 
ENDBRANCH  34  35
ENDBRANCH   2  34
TORSDOF 6
