REMARK  Name = ZINC50395733
REMARK  6 active torsions:
REMARK  status: ('A' for Active; 'I' for Inactive)
REMARK    1  A    between atoms: C_1  and  C_2
REMARK    2  A    between atoms: C_2  and  C_3
REMARK    3  A    between atoms: C_2  and  C_4
REMARK    4  A    between atoms: C_2  and  O_14
REMARK    5  A    between atoms: C_4  and  N_5
REMARK    6  A    between atoms: N_5  and  C_6
REMARK                            x       y       z     vdW  Elec       q    Type
REMARK                         _______ _______ _______ _____ _____    ______ ____
ROOT
ATOM      1  N   UNL     1      -1.414  -1.998   0.126  0.00  0.00    +0.388 N 
ATOM      2  H   UNL     1      -0.967  -2.446  -0.660  0.00  0.00    -0.085 HD
ATOM      3  H   UNL     1      -0.899  -2.205   0.968  0.00  0.00    -0.085 HD
ENDROOT
BRANCH   1   4
ATOM      4  C   UNL     1      -2.789  -2.497   0.256  0.00  0.00    +0.016 C 
ATOM      5  C   UNL     1      -3.529  -2.304  -1.070  0.00  0.00    -0.005 C 
ATOM      6  C   UNL     1      -4.854  -3.072  -1.002  0.00  0.00    +0.018 C 
ATOM      7  C   UNL     1      -4.551  -4.570  -0.961  0.00  0.00    +0.104 C 
ATOM      8  N   UNL     1      -3.570  -4.864   0.076  0.00  0.00    -0.317 N 
ATOM      9  C   UNL     1      -2.759  -3.955   0.615  0.00  0.00    +0.199 C 
ATOM     10  O   UNL     1      -1.953  -4.326   1.442  0.00  0.00    -0.278 OA
ATOM     11  H   UNL     1      -3.503  -5.779   0.392  0.00  0.00    +0.149 HD
ENDBRANCH   1   4
BRANCH   1  12
ATOM     12  C   UNL     1      -1.439  -0.545  -0.088  0.00  0.00    -0.047 C 
BRANCH  12  14
ATOM     13  C   UNL     1      -0.024   1.484  -0.439  0.00  0.00    +0.039 C 
ATOM     14  C   UNL     1      -0.016  -0.042  -0.341  0.00  0.00    +0.046 C 
ATOM     15  C   UNL     1       0.890  -0.474   0.814  0.00  0.00    +0.039 C 
BRANCH  14  16
ATOM     16  O   UNL     1       0.475  -0.596  -1.563  0.00  0.00    -0.391 OA
ATOM     17  H   UNL     1      -0.052  -0.363  -2.340  0.00  0.00    +0.210 HD
ENDBRANCH  14  16
ENDBRANCH  12  14
ENDBRANCH   1  12
TORSDOF 4
