REMARK  Name = ZINC09383364
REMARK  12 active torsions:
REMARK  status: ('A' for Active; 'I' for Inactive)
REMARK    1  A    between atoms: C_1  and  C_2
REMARK    2  A    between atoms: C_2  and  N_3
REMARK    3  A    between atoms: N_3  and  C_4
REMARK    4  A    between atoms: N_3  and  S_10
REMARK    5  A    between atoms: S_10  and  C_13
REMARK    6  A    between atoms: C_16  and  C_19
REMARK    7  A    between atoms: N_21  and  C_22
REMARK    8  A    between atoms: C_23  and  C_31
REMARK    9  A    between atoms: C_30  and  N_65
REMARK   10  A    between atoms: C_31  and  O_33
REMARK   11  A    between atoms: O_33  and  C_34
REMARK   12  A    between atoms: C_34  and  C_35
REMARK                            x       y       z     vdW  Elec       q    Type
REMARK                         _______ _______ _______ _____ _____    ______ ____
ROOT
ATOM      1  C   UNL     1       1.317   3.136   3.205  0.00  0.00    +0.249 C 
ATOM      2  O   UNL     1       2.248   3.856   2.898  0.00  0.00    -0.270 OA
ATOM      3  N   UNL     1       0.471   2.688   2.257  0.00  0.00    -0.275 N 
ATOM      4  H   UNL     1      -0.272   2.113   2.502  0.00  0.00    +0.156 HD
ENDROOT
BRANCH   3   5
ATOM      5  C   UNL     1       0.661   3.047   0.933  0.00  0.00    +0.086 A 
ATOM      6  C   UNL     1      -0.097   2.689  -0.176  0.00  0.00    +0.091 A 
ATOM      7  C   UNL     1       0.317   3.212  -1.464  0.00  0.00    -0.025 A 
ATOM      8  C   UNL     1       1.418   3.997  -1.443  0.00  0.00    -0.021 A 
ATOM      9  S   UNL     1       1.903   4.049   0.257  0.00  0.00    -0.079 S 
ATOM     10  C   UNL     1       2.059   4.661  -2.621  0.00  0.00    -0.036 C 
ATOM     11  C   UNL     1       0.055   3.982  -3.801  0.00  0.00    -0.074 C 
ATOM     12  C   UNL     1      -0.398   2.933  -2.781  0.00  0.00    +0.018 C 
ATOM     13  C   UNL     1       1.982   4.759  -5.044  0.00  0.00    -0.096 C 
ATOM     14  N   UNL     1       1.531   4.016  -3.848  0.00  0.00    +0.381 N 
ATOM     15  H   UNL     1       1.886   3.054  -3.899  0.00  0.00    -0.082 HD
BRANCH   6  16
ATOM     16  C   UNL     1      -1.271   1.824  -0.048  0.00  0.00    +0.342 C 
ATOM     17  O   UNL     1      -1.151   0.617  -0.143  0.00  0.00    -0.245 OA
BRANCH  16  18
ATOM     18  O   UNL     1      -2.487   2.365   0.170  0.00  0.00    -0.461 OA
BRANCH  18  19
ATOM     19  C   UNL     1      -3.607   1.447   0.280  0.00  0.00    +0.229 C 
ATOM     20  C   UNL     1      -4.893   2.239   0.524  0.00  0.00    +0.048 C 
ENDBRANCH  18  19
ENDBRANCH  16  18
ENDBRANCH   6  16
ENDBRANCH   3   5
BRANCH   1  24
ATOM     21  C   UNL     1       0.734   2.035   7.266  0.00  0.00    +0.109 A 
ATOM     22  C   UNL     1       1.794   2.854   6.920  0.00  0.00    +0.029 A 
ATOM     23  C   UNL     1       1.990   3.215   5.603  0.00  0.00    +0.015 A 
ATOM     24  C   UNL     1       1.115   2.753   4.618  0.00  0.00    +0.037 A 
ATOM     25  C   UNL     1       0.044   1.931   4.975  0.00  0.00    +0.015 A 
ATOM     26  C   UNL     1      -0.137   1.573   6.295  0.00  0.00    +0.029 A 
BRANCH  21  27
ATOM     27  S   UNL     1       0.492   1.579   8.950  0.00  0.00    +0.075 S 
ATOM     28  O   UNL     1      -0.248   0.365   8.940  0.00  0.00    -0.150 OA
ATOM     29  O   UNL     1       1.756   1.695   9.588  0.00  0.00    -0.150 OA
BRANCH  27  30
ATOM     30  N   UNL     1      -0.489   2.725   9.632  0.00  0.00    -0.203 N 
BRANCH  30  31
ATOM     31  C   UNL     1       0.070   3.795  10.335  0.00  0.00    +0.051 A 
ATOM     32  C   UNL     1      -0.155   5.099   9.914  0.00  0.00    +0.025 A 
ATOM     33  C   UNL     1       0.396   6.154  10.614  0.00  0.00    +0.002 A 
ATOM     34  C   UNL     1       1.180   5.913  11.727  0.00  0.00    +0.000 A 
ATOM     35  C   UNL     1       1.411   4.615  12.146  0.00  0.00    +0.002 A 
ATOM     36  C   UNL     1       0.859   3.556  11.454  0.00  0.00    +0.025 A 
ENDBRANCH  30  31
BRANCH  30  38
ATOM     37  C   UNL     1      -2.520   1.918  10.730  0.00  0.00    +0.026 C 
ATOM     38  C   UNL     1      -1.944   2.618   9.498  0.00  0.00    +0.128 C 
ENDBRANCH  30  38
ENDBRANCH  27  30
ENDBRANCH  21  27
ENDBRANCH   1  24
TORSDOF 9
