REMARK  Name = ZINC54483346
REMARK  8 active torsions:
REMARK  status: ('A' for Active; 'I' for Inactive)
REMARK    1  A    between atoms: C_1  and  O_2
REMARK    2  A    between atoms: O_2  and  C_3
REMARK    3  A    between atoms: C_6  and  C_9
REMARK    4  A    between atoms: C_9  and  C_10
REMARK    5  A    between atoms: C_9  and  O_27
REMARK    6  A    between atoms: C_10  and  N_11
REMARK    7  A    between atoms: N_14  and  C_15
REMARK    8  A    between atoms: C_20  and  N_21
REMARK                            x       y       z     vdW  Elec       q    Type
REMARK                         _______ _______ _______ _____ _____    ______ ____
ROOT
ATOM      1  N   UNL     1      -6.684  -3.639  -1.401  0.00  0.00    -0.296 N 
ATOM      2  C   UNL     1      -7.197  -4.126  -2.548  0.00  0.00    +0.304 C 
ATOM      3  O   UNL     1      -6.545  -4.077  -3.574  0.00  0.00    -0.253 OA
ATOM      4  N   UNL     1      -8.432  -4.665  -2.560  0.00  0.00    -0.267 N 
ATOM      5  H   UNL     1      -7.204  -3.678  -0.583  0.00  0.00    +0.150 HD
ATOM      6  H   UNL     1      -8.919  -4.779  -1.729  0.00  0.00    +0.156 HD
ENDROOT
BRANCH   4   7
ATOM      7  C   UNL     1      -9.013  -5.061  -3.773  0.00  0.00    +0.073 A 
ATOM      8  C   UNL     1      -8.610  -4.482  -4.969  0.00  0.00    +0.028 A 
ATOM      9  C   UNL     1      -9.214  -4.907  -6.145  0.00  0.00    +0.019 A 
ATOM     10  C   UNL     1     -10.188  -5.884  -6.092  0.00  0.00    +0.084 A 
ATOM     11  N   UNL     1     -10.553  -6.418  -4.941  0.00  0.00    -0.348 N 
ATOM     12  C   UNL     1     -10.001  -6.048  -3.797  0.00  0.00    +0.121 A 
ATOM     13  H   UNL     1     -11.241  -7.102  -4.934  0.00  0.00    +0.167 HD
BRANCH  12  14
ATOM     14  N   UNL     1     -10.412  -6.643  -2.607  0.00  0.00    -0.311 N 
ATOM     15  C   UNL     1     -11.595  -6.150  -1.884  0.00  0.00    +0.134 C 
ATOM     16  C   UNL     1     -12.507  -7.344  -1.577  0.00  0.00    +0.178 C 
ATOM     17  O   UNL     1     -11.744  -8.364  -0.928  0.00  0.00    -0.377 OA
ATOM     18  C   UNL     1     -10.683  -8.897  -1.723  0.00  0.00    +0.178 C 
ATOM     19  C   UNL     1      -9.681  -7.786  -2.040  0.00  0.00    +0.134 C 
ENDBRANCH  12  14
ENDBRANCH   4   7
BRANCH   1  20
ATOM     20  C   UNL     1      -5.342  -3.053  -1.388  0.00  0.00    +0.141 C 
BRANCH  20  21
ATOM     21  C   UNL     1      -5.004  -2.581   0.028  0.00  0.00    +0.162 C 
BRANCH  21  25
ATOM     22  C   UNL     1      -1.239  -0.561  -0.003  0.00  0.00    +0.120 A 
ATOM     23  C   UNL     1      -2.419   0.169  -0.003  0.00  0.00    +0.046 A 
ATOM     24  C   UNL     1      -3.635  -0.487   0.007  0.00  0.00    +0.010 A 
ATOM     25  C   UNL     1      -3.677  -1.869   0.017  0.00  0.00    -0.017 A 
ATOM     26  C   UNL     1      -2.502  -2.598   0.017  0.00  0.00    +0.010 A 
ATOM     27  C   UNL     1      -1.284  -1.947   0.001  0.00  0.00    +0.046 A 
BRANCH  22  29
ATOM     28  C   UNL     1      -0.072   1.511  -0.017  0.00  0.00    +0.277 C 
ATOM     29  O   UNL     1      -0.042   0.082  -0.013  0.00  0.00    -0.495 OA
ENDBRANCH  22  29
ENDBRANCH  21  25
BRANCH  21  30
ATOM     30  O   UNL     1      -4.932  -3.710   0.901  0.00  0.00    -0.386 OA
ATOM     31  H   UNL     1      -4.262  -4.360   0.649  0.00  0.00    +0.210 HD
ENDBRANCH  21  30
ENDBRANCH  20  21
ENDBRANCH   1  20
TORSDOF 7
