REMARK  Name = ZINC35842962
REMARK  7 active torsions:
REMARK  status: ('A' for Active; 'I' for Inactive)
REMARK    1  A    between atoms: C_1  and  C_2
REMARK    2  A    between atoms: C_5  and  S_8
REMARK    3  A    between atoms: S_8  and  N_11
REMARK    4  A    between atoms: C_21  and  N_24
REMARK    5  A    between atoms: N_27  and  C_28
REMARK    6  A    between atoms: C_32  and  C_35
REMARK    7  A    between atoms: C_33  and  C_34
REMARK                            x       y       z     vdW  Elec       q    Type
REMARK                         _______ _______ _______ _____ _____    ______ ____
ROOT
ATOM      1  N   UNL     1       1.699  -5.016  -0.027  0.00  0.00    -0.175 NA
ATOM      2  C   UNL     1       2.378  -5.206  -1.277  0.00  0.00    +0.111 C 
ATOM      3  C   UNL     1       2.114  -6.647  -1.746  0.00  0.00    +0.036 C 
ATOM      4  C   UNL     1       2.958  -7.618  -1.031  0.00  0.00    +0.108 C 
ATOM      5  N   UNL     1       2.720  -7.531   0.429  0.00  0.00    -0.315 N 
ATOM      6  C   UNL     1       3.304  -6.462   1.190  0.00  0.00    +0.123 C 
ATOM      7  C   UNL     1       2.378  -5.219   1.282  0.00  0.00    +0.128 C 
ATOM      8  C   UNL     1       1.931  -8.486   1.064  0.00  0.00    +0.099 A 
ATOM      9  C   UNL     1       1.794  -8.457   2.448  0.00  0.00    +0.043 A 
ATOM     10  C   UNL     1       1.008  -9.410   3.068  0.00  0.00    +0.028 A 
ATOM     11  C   UNL     1       0.378 -10.369   2.276  0.00  0.00    +0.051 A 
ATOM     12  C   UNL     1       0.559 -10.336   0.902  0.00  0.00    +0.107 A 
ATOM     13  N   UNL     1       1.314  -9.409   0.343  0.00  0.00    -0.348 N 
ATOM     14  H   UNL     1       1.421  -9.406  -0.621  0.00  0.00    +0.167 HD
ENDROOT
BRANCH  11  15
ATOM     15  N   UNL     1      -0.429 -11.354   2.862  0.00  0.00    -0.268 N 
ATOM     16  C   UNL     1      -1.168 -11.061   3.950  0.00  0.00    +0.308 C 
ATOM     17  O   UNL     1      -1.210  -9.919   4.367  0.00  0.00    -0.252 OA
ATOM     18  N   UNL     1      -1.861 -12.033   4.577  0.00  0.00    -0.269 N 
ATOM     19  H   UNL     1      -0.455 -12.247   2.484  0.00  0.00    +0.156 HD
ATOM     20  H   UNL     1      -1.894 -12.925   4.198  0.00  0.00    +0.156 HD
BRANCH  18  21
ATOM     21  C   UNL     1      -2.531 -11.754   5.773  0.00  0.00    +0.038 A 
ATOM     22  C   UNL     1      -2.107 -10.707   6.581  0.00  0.00    +0.023 A 
ATOM     23  C   UNL     1      -2.771 -10.435   7.761  0.00  0.00    +0.002 A 
ATOM     24  C   UNL     1      -3.858 -11.203   8.137  0.00  0.00    +0.004 A 
ATOM     25  C   UNL     1      -4.283 -12.245   7.335  0.00  0.00    -0.046 A 
ATOM     26  C   UNL     1      -3.626 -12.520   6.151  0.00  0.00    -0.026 A 
ATOM     27  C   UNL     1      -4.094 -13.652   5.274  0.00  0.00    +0.046 C 
ATOM     28  C   UNL     1      -5.467 -13.080   7.750  0.00  0.00    +0.044 C 
ENDBRANCH  18  21
ENDBRANCH  11  15
BRANCH   1  29
ATOM     29  S   UNL     1       0.110  -4.549  -0.042  0.00  0.00    +0.061 S 
ATOM     30  O   UNL     1      -0.446  -4.963   1.198  0.00  0.00    -0.153 OA
ATOM     31  O   UNL     1      -0.423  -4.963  -1.292  0.00  0.00    -0.153 OA
BRANCH  29  36
ATOM     32  C   UNL     1       0.020   1.484  -0.043  0.00  0.00    +0.044 C 
ATOM     33  C   UNL     1       0.043  -0.023  -0.043  0.00  0.00    -0.050 A 
ATOM     34  C   UNL     1       0.065  -0.714  -1.240  0.00  0.00    +0.005 A 
ATOM     35  C   UNL     1       0.086  -2.096  -1.240  0.00  0.00    +0.029 A 
ATOM     36  C   UNL     1       0.085  -2.788  -0.042  0.00  0.00    +0.105 A 
ATOM     37  C   UNL     1       0.063  -2.096   1.155  0.00  0.00    +0.029 A 
ATOM     38  C   UNL     1       0.047  -0.714   1.155  0.00  0.00    +0.005 A 
ENDBRANCH  29  36
ENDBRANCH   1  29
TORSDOF 4
