REMARK  Name = ZINC06088860
REMARK  12 active torsions:
REMARK  status: ('A' for Active; 'I' for Inactive)
REMARK    1  A    between atoms: C_1  and  C_2
REMARK    2  A    between atoms: C_5  and  N_32
REMARK    3  A    between atoms: C_6  and  S_8
REMARK    4  A    between atoms: S_8  and  N_11
REMARK    5  A    between atoms: N_11  and  C_12
REMARK    6  A    between atoms: C_14  and  N_20
REMARK    7  A    between atoms: C_16  and  C_19
REMARK    8  A    between atoms: C_17  and  C_18
REMARK    9  A    between atoms: N_20  and  S_21
REMARK   10  A    between atoms: S_21  and  C_24
REMARK   11  A    between atoms: C_26  and  N_31
REMARK   12  A    between atoms: C_29  and  C_30
REMARK                            x       y       z     vdW  Elec       q    Type
REMARK                         _______ _______ _______ _____ _____    ______ ____
ROOT
ATOM      1  C   UNL     1       1.856  -3.474   2.527  0.00  0.00    +0.053 A 
ATOM      2  C   UNL     1       2.328  -2.169   2.501  0.00  0.00    +0.049 A 
ATOM      3  C   UNL     1       1.483  -1.136   2.122  0.00  0.00    +0.050 A 
ATOM      4  C   UNL     1       0.166  -1.410   1.775  0.00  0.00    +0.028 A 
ATOM      5  C   UNL     1      -0.300  -2.711   1.796  0.00  0.00    -0.044 A 
ATOM      6  C   UNL     1       0.539  -3.742   2.174  0.00  0.00    -0.025 A 
ATOM      7  C   UNL     1       0.025  -5.158   2.201  0.00  0.00    +0.046 C 
ATOM      8  C   UNL     1      -1.727  -3.005   1.413  0.00  0.00    +0.044 C 
ENDROOT
BRANCH   1   9
ATOM      9  N   UNL     1       2.703  -4.517   2.909  0.00  0.00    -0.216 N 
ATOM     10  H   UNL     1       2.582  -5.403   2.533  0.00  0.00    +0.174 HD
BRANCH   9  11
ATOM     11  S   UNL     1       3.915  -4.241   4.004  0.00  0.00    +0.074 S 
ATOM     12  O   UNL     1       4.494  -5.505   4.295  0.00  0.00    -0.150 OA
ATOM     13  O   UNL     1       4.676  -3.152   3.501  0.00  0.00    -0.150 OA
BRANCH  11  19
ATOM     14  C   UNL     1       3.118  -0.586   7.652  0.00  0.00    +0.044 C 
ATOM     15  C   UNL     1       2.825  -1.971   7.135  0.00  0.00    -0.048 A 
ATOM     16  C   UNL     1       1.962  -2.798   7.830  0.00  0.00    +0.005 A 
ATOM     17  C   UNL     1       1.691  -4.068   7.359  0.00  0.00    +0.025 A 
ATOM     18  C   UNL     1       2.288  -4.514   6.186  0.00  0.00    +0.052 A 
ATOM     19  C   UNL     1       3.155  -3.680   5.491  0.00  0.00    +0.129 A 
ATOM     20  C   UNL     1       3.425  -2.413   5.970  0.00  0.00    +0.034 A 
BRANCH  18  21
ATOM     21  N   UNL     1       2.017  -5.797   5.707  0.00  0.00    -0.356 N 
ATOM     22  H   UNL     1       2.478  -6.129   4.921  0.00  0.00    +0.142 HD
ATOM     23  H   UNL     1       1.367  -6.357   6.160  0.00  0.00    +0.142 HD
ENDBRANCH  18  21
ENDBRANCH  11  19
ENDBRANCH   9  11
ENDBRANCH   1   9
BRANCH   3  24
ATOM     24  N   UNL     1       1.955   0.178   2.094  0.00  0.00    -0.216 N 
ATOM     25  H   UNL     1       2.476   0.522   2.837  0.00  0.00    +0.174 HD
BRANCH  24  26
ATOM     26  S   UNL     1       1.624   1.149   0.794  0.00  0.00    +0.073 S 
ATOM     27  O   UNL     1       2.302   2.377   1.022  0.00  0.00    -0.150 OA
ATOM     28  O   UNL     1       0.220   1.081   0.583  0.00  0.00    -0.150 OA
BRANCH  26  29
ATOM     29  C   UNL     1       2.381   0.410  -0.614  0.00  0.00    +0.113 A 
ATOM     30  C   UNL     1       1.600  -0.047  -1.658  0.00  0.00    +0.051 A 
ATOM     31  C   UNL     1       2.197  -0.630  -2.768  0.00  0.00    +0.026 A 
ATOM     32  C   UNL     1       3.580  -0.752  -2.824  0.00  0.00    +0.023 A 
ATOM     33  C   UNL     1       4.356  -0.288  -1.780  0.00  0.00    +0.007 A 
ATOM     34  C   UNL     1       3.757   0.287  -0.674  0.00  0.00    -0.024 A 
ATOM     35  C   UNL     1       4.607   0.786   0.467  0.00  0.00    +0.046 C 
BRANCH  31  36
ATOM     36  N   UNL     1       1.410  -1.092  -3.825  0.00  0.00    -0.358 N 
ATOM     37  H   UNL     1       0.445  -1.006  -3.784  0.00  0.00    +0.142 HD
ATOM     38  H   UNL     1       1.829  -1.499  -4.599  0.00  0.00    +0.142 HD
ENDBRANCH  31  36
ENDBRANCH  26  29
ENDBRANCH  24  26
ENDBRANCH   3  24
TORSDOF 8
