REMARK  Name = ZINC51514548
REMARK  8 active torsions:
REMARK  status: ('A' for Active; 'I' for Inactive)
REMARK    1  A    between atoms: C_1  and  C_2
REMARK    2  A    between atoms: C_6  and  O_8
REMARK    3  A    between atoms: O_8  and  C_9
REMARK    4  A    between atoms: C_9  and  C_10
REMARK    5  A    between atoms: C_10  and  O_11
REMARK    6  A    between atoms: O_11  and  C_12
REMARK    7  A    between atoms: C_15  and  C_18
REMARK    8  A    between atoms: C_28  and  C_30
REMARK                            x       y       z     vdW  Elec       q    Type
REMARK                         _______ _______ _______ _____ _____    ______ ____
ROOT
ATOM      1  C   UNL     1      -1.754  -6.348   9.573  0.00  0.00    +0.024 C 
ATOM      2  C   UNL     1      -2.435  -5.592  10.501  0.00  0.00    +0.079 C 
ATOM      3  C   UNL     1      -2.524  -5.998  11.932  0.00  0.00    +0.132 C 
ATOM      4  N   UNL     1      -1.571  -6.635  12.558  0.00  0.00    -0.385 N 
ATOM      5  N   UNL     1      -3.740  -5.626  12.545  0.00  0.00    -0.153 N 
ATOM      6  C   UNL     1      -4.437  -4.573  11.990  0.00  0.00    +0.181 C 
ATOM      7  N   UNL     1      -4.156  -3.923  10.889  0.00  0.00    -0.152 NA
ATOM      8  C   UNL     1      -3.115  -4.326  10.130  0.00  0.00    +0.273 C 
ATOM      9  O   UNL     1      -2.746  -3.674   9.167  0.00  0.00    -0.268 OA
ATOM     10  S   UNL     1      -5.780  -4.370  13.129  0.00  0.00    -0.033 S 
ATOM     11  C   UNL     1      -5.391  -5.747  14.201  0.00  0.00    +0.131 C 
ATOM     12  N   UNL     1      -4.292  -6.216  13.662  0.00  0.00    -0.164 NA
ATOM     13  H   UNL     1      -0.754  -6.867  12.089  0.00  0.00    +0.157 HD
ATOM     14  H   UNL     1      -1.680  -6.876  13.491  0.00  0.00    +0.157 HD
ENDROOT
BRANCH  11  15
ATOM     15  C   UNL     1      -6.121  -6.231  15.393  0.00  0.00    +0.027 A 
ATOM     16  C   UNL     1      -7.288  -5.590  15.809  0.00  0.00    +0.012 A 
ATOM     17  C   UNL     1      -7.965  -6.047  16.921  0.00  0.00    +0.001 A 
ATOM     18  C   UNL     1      -7.488  -7.138  17.625  0.00  0.00    +0.001 A 
ATOM     19  C   UNL     1      -6.332  -7.779  17.219  0.00  0.00    +0.020 A 
ATOM     20  C   UNL     1      -5.648  -7.336  16.104  0.00  0.00    +0.051 A 
ATOM     21 CL   UNL     1      -4.200  -8.146  15.592  0.00  0.00    -0.083 Cl
ENDBRANCH  11  15
BRANCH   1  25
ATOM     22  C   UNL     1      -2.008  -5.387   5.464  0.00  0.00    +0.121 A 
ATOM     23  C   UNL     1      -0.809  -5.852   5.994  0.00  0.00    +0.046 A 
ATOM     24  C   UNL     1      -0.721  -6.165   7.321  0.00  0.00    +0.011 A 
ATOM     25  C   UNL     1      -1.842  -6.015   8.150  0.00  0.00    -0.024 A 
ATOM     26  C   UNL     1      -3.048  -5.546   7.610  0.00  0.00    +0.011 A 
ATOM     27  C   UNL     1      -3.123  -5.232   6.282  0.00  0.00    +0.046 A 
BRANCH  22  28
ATOM     28  O   UNL     1      -2.090  -5.079   4.145  0.00  0.00    -0.489 OA
BRANCH  28  29
ATOM     29  C   UNL     1      -0.909  -5.262   3.362  0.00  0.00    +0.270 C 
BRANCH  29  30
ATOM     30  C   UNL     1      -1.192  -4.865   1.912  0.00  0.00    +0.270 C 
BRANCH  30  31
ATOM     31  O   UNL     1      -1.475  -3.466   1.847  0.00  0.00    -0.489 OA
BRANCH  31  37
ATOM     32  C   UNL     1      -2.624   0.395  -0.909  0.00  0.00    +0.044 C 
ATOM     33  C   UNL     1      -2.315  -1.073  -0.761  0.00  0.00    -0.047 A 
ATOM     34  C   UNL     1      -2.311  -1.894  -1.874  0.00  0.00    +0.003 A 
ATOM     35  C   UNL     1      -2.028  -3.240  -1.742  0.00  0.00    +0.004 A 
ATOM     36  C   UNL     1      -1.748  -3.769  -0.496  0.00  0.00    +0.045 A 
ATOM     37  C   UNL     1      -1.751  -2.948   0.622  0.00  0.00    +0.121 A 
ATOM     38  C   UNL     1      -2.029  -1.596   0.485  0.00  0.00    +0.049 A 
ENDBRANCH  31  37
ENDBRANCH  30  31
ENDBRANCH  29  30
ENDBRANCH  28  29
ENDBRANCH  22  28
ENDBRANCH   1  25
TORSDOF 7
