REMARK  Name = ZINC22581455
REMARK  10 active torsions:
REMARK  status: ('A' for Active; 'I' for Inactive)
REMARK    1  A    between atoms: C_1  and  C_2
REMARK    2  A    between atoms: C_2  and  C_3
REMARK    3  A    between atoms: C_2  and  C_4
REMARK    4  A    between atoms: C_4  and  C_6
REMARK    5  A    between atoms: C_4  and  S_12
REMARK    6  A    between atoms: S_12  and  C_13
REMARK    7  A    between atoms: C_16  and  C_19
REMARK    8  A    between atoms: N_17  and  N_18
REMARK    9  A    between atoms: C_22  and  O_25
REMARK   10  A    between atoms: O_25  and  C_26
REMARK                            x       y       z     vdW  Elec       q    Type
REMARK                         _______ _______ _______ _____ _____    ______ ____
ROOT
ATOM      1  C   UNL     1      -5.103   0.665  -0.505  0.00  0.00    +0.209 A 
ATOM      2  N   UNL     1      -5.185  -0.597  -0.149  0.00  0.00    -0.121 NA
ATOM      3  N   UNL     1      -6.300  -1.096  -0.547  0.00  0.00    -0.127 NA
ATOM      4  C   UNL     1      -6.995  -0.186  -1.190  0.00  0.00    +0.182 A 
ATOM      5  N   UNL     1      -6.250   0.970  -1.183  0.00  0.00    -0.224 N 
ENDROOT
BRANCH   4   6
ATOM      6  C   UNL     1      -8.327  -0.369  -1.805  0.00  0.00    +0.021 A 
ATOM      7  C   UNL     1      -9.118  -1.463  -1.448  0.00  0.00    +0.015 A 
ATOM      8  C   UNL     1     -10.361  -1.627  -2.020  0.00  0.00    +0.046 A 
ATOM      9  C   UNL     1     -10.823  -0.714  -2.958  0.00  0.00    +0.127 A 
ATOM     10  C   UNL     1     -10.036   0.373  -3.320  0.00  0.00    +0.046 A 
ATOM     11  C   UNL     1      -8.794   0.547  -2.748  0.00  0.00    +0.015 A 
BRANCH   9  12
ATOM     12  O   UNL     1     -12.046  -0.882  -3.524  0.00  0.00    -0.434 OA
BRANCH  12  13
ATOM     13  C   UNL     1     -12.802  -2.021  -3.107  0.00  0.00    +0.541 C 
ATOM     14  F   UNL     1     -12.088  -3.188  -3.399  0.00  0.00    -0.166 F 
ATOM     15  F   UNL     1     -13.032  -1.948  -1.729  0.00  0.00    -0.166 F 
ENDBRANCH  12  13
ENDBRANCH   9  12
ENDBRANCH   4   6
BRANCH   5  16
ATOM     16  N   UNL     1      -6.586   2.173  -1.737  0.00  0.00    -0.295 N 
ATOM     17  H   UNL     1      -7.548   2.288  -2.259  0.00  0.00    +0.163 HD
ATOM     18  H   UNL     1      -5.896   3.026  -1.661  0.00  0.00    +0.163 HD
ENDBRANCH   5  16
BRANCH   1  19
ATOM     19  S   UNL     1      -3.761   1.759  -0.178  0.00  0.00    -0.071 S 
BRANCH  19  20
ATOM     20  C   UNL     1      -2.663   0.645   0.734  0.00  0.00    +0.143 C 
BRANCH  20  21
ATOM     21  C   UNL     1      -1.362   1.347   1.022  0.00  0.00    +0.234 C 
ATOM     22  O   UNL     1      -1.325   2.557   1.078  0.00  0.00    -0.274 OA
ATOM     23  N   UNL     1      -0.238   0.629   1.219  0.00  0.00    -0.239 N 
ATOM     24  C   UNL     1       0.927   1.257   1.471  0.00  0.00    +0.303 C 
ATOM     25  O   UNL     1       0.964   2.471   1.527  0.00  0.00    -0.253 OA
ATOM     26  N   UNL     1       2.052   0.540   1.662  0.00  0.00    -0.313 N 
ATOM     27  H   UNL     1      -0.272  -0.469   1.173  0.00  0.00    +0.159 HD
ATOM     28  H   UNL     1       3.003   1.053   1.868  0.00  0.00    +0.146 HD
ATOM     29  H   UNL     1       2.019  -0.558   1.612  0.00  0.00    +0.146 HD
ENDBRANCH  20  21
BRANCH  20  31
ATOM     30  C   UNL     1      -2.400  -0.702   2.822  0.00  0.00    +0.009 C 
ATOM     31  C   UNL     1      -3.327   0.240   2.051  0.00  0.00    +0.005 C 
ATOM     32  C   UNL     1      -3.597   1.490   2.892  0.00  0.00    +0.009 C 
ENDBRANCH  20  31
ENDBRANCH  19  20
ENDBRANCH   1  19
TORSDOF 8
