REMARK  Name = ZINC44010640
REMARK  9 active torsions:
REMARK  status: ('A' for Active; 'I' for Inactive)
REMARK    1  A    between atoms: C_1  and  C_2
REMARK    2  A    between atoms: C_2  and  C_4
REMARK    3  A    between atoms: C_2  and  N_17
REMARK    4  A    between atoms: C_7  and  N_10
REMARK    5  A    between atoms: N_13  and  C_14
REMARK    6  A    between atoms: C_18  and  C_19
REMARK    7  A    between atoms: C_23  and  O_26
REMARK    8  A    between atoms: C_24  and  O_25
REMARK    9  A    between atoms: O_26  and  C_27
REMARK                            x       y       z     vdW  Elec       q    Type
REMARK                         _______ _______ _______ _____ _____    ______ ____
ROOT
ATOM      1  C   UNL     1      -0.240   1.465   0.157  0.00  0.00    +0.035 C 
ATOM      2  C   UNL     1      -0.332  -0.051  -0.026  0.00  0.00    +0.106 C 
ENDROOT
BRANCH   2   3
ATOM      3  C   UNL     1      -1.761  -0.493   0.152  0.00  0.00    -0.025 A 
ATOM      4  C   UNL     1      -2.662  -0.354  -0.888  0.00  0.00    +0.007 A 
ATOM      5  C   UNL     1      -3.972  -0.758  -0.727  0.00  0.00    +0.024 A 
ATOM      6  C   UNL     1      -4.386  -1.306   0.480  0.00  0.00    +0.035 A 
ATOM      7  C   UNL     1      -3.479  -1.445   1.523  0.00  0.00    +0.024 A 
ATOM      8  C   UNL     1      -2.168  -1.044   1.354  0.00  0.00    +0.007 A 
BRANCH   6   9
ATOM      9  N   UNL     1      -5.713  -1.716   0.646  0.00  0.00    -0.269 N 
ATOM     10  C   UNL     1      -6.398  -2.223  -0.399  0.00  0.00    +0.304 C 
ATOM     11  O   UNL     1      -5.836  -2.409  -1.461  0.00  0.00    -0.253 OA
ATOM     12  N   UNL     1      -7.705  -2.522  -0.267  0.00  0.00    -0.296 N 
ATOM     13  H   UNL     1      -6.141  -1.636   1.513  0.00  0.00    +0.156 HD
ATOM     14  H   UNL     1      -8.153  -2.374   0.580  0.00  0.00    +0.151 HD
BRANCH  12  15
ATOM     15  C   UNL     1      -8.449  -3.073  -1.403  0.00  0.00    +0.075 C 
ATOM     16  C   UNL     1      -9.846  -2.510  -1.671  0.00  0.00    +0.024 C 
ATOM     17  C   UNL     1      -9.686  -3.918  -1.094  0.00  0.00    +0.024 C 
ENDBRANCH  12  15
ENDBRANCH   6   9
ENDBRANCH   2   3
BRANCH   2  18
ATOM     18  N   UNL     1       0.126  -0.410  -1.370  0.00  0.00    -0.383 N 
ATOM     19  C   UNL     1       1.138  -1.203  -1.519  0.00  0.00    +0.090 C 
ATOM     20  H   UNL     1      -0.328  -0.052  -2.149  0.00  0.00    +0.160 HD
BRANCH  19  21
ATOM     21  C   UNL     1       1.675  -1.468  -2.866  0.00  0.00    +0.036 A 
ATOM     22  C   UNL     1       2.837  -2.230  -3.022  0.00  0.00    +0.013 A 
ATOM     23  C   UNL     1       3.335  -2.476  -4.283  0.00  0.00    +0.004 A 
ATOM     24  C   UNL     1       2.692  -1.971  -5.400  0.00  0.00    +0.049 A 
ATOM     25  C   UNL     1       1.540  -1.214  -5.262  0.00  0.00    +0.162 A 
ATOM     26  C   UNL     1       1.021  -0.962  -3.996  0.00  0.00    +0.167 A 
BRANCH  26  27
ATOM     27  O   UNL     1      -0.111  -0.226  -3.857  0.00  0.00    -0.503 OA
ATOM     28  H   UNL     1       0.046   0.725  -3.768  0.00  0.00    +0.292 HD
ENDBRANCH  26  27
BRANCH  25  29
ATOM     29  O   UNL     1       0.914  -0.721  -6.364  0.00  0.00    -0.491 OA
ATOM     30  C   UNL     1       1.499  -1.024  -7.632  0.00  0.00    +0.277 C 
ENDBRANCH  25  29
ENDBRANCH  19  21
ENDBRANCH   2  18
TORSDOF 7
