REMARK  Name = ZINC34758624
REMARK  12 active torsions:
REMARK  status: ('A' for Active; 'I' for Inactive)
REMARK    1  A    between atoms: C_1  and  C_2
REMARK    2  A    between atoms: C_3  and  C_34
REMARK    3  A    between atoms: C_7  and  N_16
REMARK    4  A    between atoms: C_9  and  S_11
REMARK    5  A    between atoms: S_11  and  C_12
REMARK    6  A    between atoms: C_12  and  C_13
REMARK    7  A    between atoms: C_13  and  C_15
REMARK    8  A    between atoms: N_19  and  C_22
REMARK    9  A    between atoms: C_22  and  C_23
REMARK   10  A    between atoms: N_25  and  C_26
REMARK   11  A    between atoms: C_29  and  O_32
REMARK   12  A    between atoms: O_32  and  C_33
REMARK                            x       y       z     vdW  Elec       q    Type
REMARK                         _______ _______ _______ _____ _____    ______ ____
ROOT
ATOM      1  N   UNL     1      -0.019   1.007   3.121  0.00  0.00    -0.318 N 
ATOM      2  C   UNL     1      -0.225   2.001   2.057  0.00  0.00    +0.088 C 
ATOM      3  C   UNL     1      -1.316   2.978   2.510  0.00  0.00    -0.059 C 
ATOM      4  N   UNL     1      -0.949   3.550   3.811  0.00  0.00    +0.387 N 
ATOM      5  C   UNL     1      -0.917   2.494   4.831  0.00  0.00    -0.059 C 
ATOM      6  C   UNL     1       0.187   1.493   4.494  0.00  0.00    +0.088 C 
ATOM      7  H   UNL     1      -0.038   3.979   3.744  0.00  0.00    -0.081 HD
ENDROOT
BRANCH   1  14
ATOM      8  C   UNL     1       2.838   0.915   2.898  0.00  0.00    +0.045 C 
ATOM      9  C   UNL     1       2.561  -0.539   2.616  0.00  0.00    -0.028 A 
ATOM     10  C   UNL     1       3.570  -1.387   2.373  0.00  0.00    -0.008 A 
ATOM     11  S   UNL     1       2.749  -2.946   2.105  0.00  0.00    -0.073 S 
ATOM     12  C   UNL     1       1.071  -2.417   2.327  0.00  0.00    +0.115 A 
ATOM     13  C   UNL     1       1.196  -1.039   2.609  0.00  0.00    +0.051 A 
ATOM     14  C   UNL     1      -0.025  -0.347   2.840  0.00  0.00    +0.134 A 
ATOM     15  N   UNL     1      -1.167  -1.013   2.783  0.00  0.00    -0.206 NA
ATOM     16  C   UNL     1      -1.213  -2.312   2.517  0.00  0.00    +0.191 A 
ATOM     17  N   UNL     1      -0.107  -3.007   2.284  0.00  0.00    -0.215 NA
ATOM     18  C   UNL     1       5.047  -1.092   2.334  0.00  0.00    +0.052 C 
BRANCH  16  19
ATOM     19  S   UNL     1      -2.774  -3.128   2.458  0.00  0.00    -0.082 S 
BRANCH  19  20
ATOM     20  C   UNL     1      -2.356  -4.850   2.071  0.00  0.00    +0.107 C 
BRANCH  20  21
ATOM     21  C   UNL     1      -3.619  -5.668   1.991  0.00  0.00    -0.069 C 
ATOM     22  C   UNL     1      -4.085  -6.040   0.825  0.00  0.00    +0.008 C 
ATOM     23  C   UNL     1      -4.345  -6.057   3.253  0.00  0.00    +0.039 C 
ENDBRANCH  20  21
ENDBRANCH  19  20
ENDBRANCH  16  19
ENDBRANCH   1  14
BRANCH   4  24
ATOM     24  C   UNL     1      -1.938   4.567   4.193  0.00  0.00    +0.019 C 
BRANCH  24  25
ATOM     25  C   UNL     1      -1.499   5.242   5.467  0.00  0.00    +0.201 C 
ATOM     26  O   UNL     1      -0.464   4.908   6.004  0.00  0.00    -0.278 OA
ATOM     27  N   UNL     1      -2.257   6.215   6.010  0.00  0.00    -0.287 N 
ATOM     28  H   UNL     1      -3.124   6.424   5.629  0.00  0.00    +0.155 HD
BRANCH  27  29
ATOM     29  C   UNL     1      -1.791   6.926   7.124  0.00  0.00    +0.034 A 
ATOM     30  C   UNL     1      -0.426   7.051   7.347  0.00  0.00    +0.027 A 
ATOM     31  C   UNL     1       0.032   7.752   8.445  0.00  0.00    +0.047 A 
ATOM     32  C   UNL     1      -0.871   8.331   9.325  0.00  0.00    +0.120 A 
ATOM     33  C   UNL     1      -2.235   8.206   9.103  0.00  0.00    +0.047 A 
ATOM     34  C   UNL     1      -2.694   7.511   8.002  0.00  0.00    +0.027 A 
BRANCH  32  35
ATOM     35  O   UNL     1      -0.420   9.021  10.406  0.00  0.00    -0.495 OA
ATOM     36  C   UNL     1      -1.405   9.591  11.271  0.00  0.00    +0.277 C 
ENDBRANCH  32  35
ENDBRANCH  27  29
ENDBRANCH  24  25
ENDBRANCH   4  24
TORSDOF 8
