REMARK  Name = ZINC61808556
REMARK  10 active torsions:
REMARK  status: ('A' for Active; 'I' for Inactive)
REMARK    1  A    between atoms: C_1  and  C_2
REMARK    2  A    between atoms: C_3  and  C_10
REMARK    3  A    between atoms: C_4  and  N_8
REMARK    4  A    between atoms: N_5  and  C_7
REMARK    5  A    between atoms: N_8  and  N_9
REMARK    6  A    between atoms: C_10  and  N_11
REMARK    7  A    between atoms: N_11  and  C_12
REMARK    8  A    between atoms: N_11  and  C_16
REMARK    9  A    between atoms: C_12  and  C_13
REMARK   10  A    between atoms: C_16  and  C_17
REMARK                            x       y       z     vdW  Elec       q    Type
REMARK                         _______ _______ _______ _____ _____    ______ ____
ROOT
ATOM      1  N   UNL     1       1.853   0.355  -2.772  0.00  0.00    +0.394 N 
ATOM      2  H   UNL     1       2.309   0.789  -1.984  0.00  0.00    -0.080 HD
ENDROOT
BRANCH   1   3
ATOM      3  C   UNL     1       0.473   0.007  -2.408  0.00  0.00    -0.036 C 
BRANCH   3   6
ATOM      4  C   UNL     1       0.728   1.118   0.547  0.00  0.00    +0.068 C 
ATOM      5  C   UNL     1       0.592  -0.331   0.156  0.00  0.00    +0.063 A 
ATOM      6  C   UNL     1       0.479  -0.820  -1.148  0.00  0.00    -0.001 A 
ATOM      7  C   UNL     1       0.376  -2.176  -1.078  0.00  0.00    +0.132 A 
ATOM      8  N   UNL     1       0.423  -2.521   0.229  0.00  0.00    -0.252 N 
ATOM      9  N   UNL     1       0.564  -1.347   0.980  0.00  0.00    -0.175 NA
ATOM     10  C   UNL     1       0.345  -3.883   0.764  0.00  0.00    +0.174 C 
BRANCH   7  11
ATOM     11  N   UNL     1       0.245  -3.048  -2.155  0.00  0.00    -0.268 N 
ATOM     12  H   UNL     1       0.447  -2.743  -3.053  0.00  0.00    +0.167 HD
BRANCH  11  13
ATOM     13  N   UNL     1      -0.166  -4.334  -1.947  0.00  0.00    -0.255 NA
ATOM     14  H   UNL     1      -1.053  -4.356  -1.466  0.00  0.00    +0.140 HD
ATOM     15  H   UNL     1      -0.214  -4.844  -2.816  0.00  0.00    +0.140 HD
ENDBRANCH  11  13
ENDBRANCH   7  11
ENDBRANCH   3   6
ENDBRANCH   1   3
BRANCH   1  16
ATOM     16  C   UNL     1       2.582  -0.863  -3.150  0.00  0.00    +0.019 C 
BRANCH  16  17
ATOM     17  C   UNL     1       1.885  -1.527  -4.309  0.00  0.00    +0.194 C 
ATOM     18  O   UNL     1       0.929  -0.991  -4.830  0.00  0.00    -0.278 OA
ATOM     19  N   UNL     1       2.323  -2.716  -4.768  0.00  0.00    -0.331 N 
ATOM     20  H   UNL     1       3.087  -3.145  -4.352  0.00  0.00    +0.145 HD
ATOM     21  H   UNL     1       1.874  -3.143  -5.514  0.00  0.00    +0.145 HD
ENDBRANCH  16  17
ENDBRANCH   1  16
BRANCH   1  22
ATOM     22  C   UNL     1       1.839   1.289  -3.906  0.00  0.00    +0.019 C 
BRANCH  22  23
ATOM     23  C   UNL     1       3.240   1.780  -4.169  0.00  0.00    +0.194 C 
ATOM     24  O   UNL     1       4.162   1.374  -3.493  0.00  0.00    -0.278 OA
ATOM     25  N   UNL     1       3.468   2.669  -5.156  0.00  0.00    -0.331 N 
ATOM     26  H   UNL     1       2.731   2.993  -5.697  0.00  0.00    +0.145 HD
ATOM     27  H   UNL     1       4.370   2.985  -5.325  0.00  0.00    +0.145 HD
ENDBRANCH  22  23
ENDBRANCH   1  22
TORSDOF 8
