REMARK  Name = ZINC63350669
REMARK  8 active torsions:
REMARK  status: ('A' for Active; 'I' for Inactive)
REMARK    1  A    between atoms: C_1  and  C_2
REMARK    2  A    between atoms: C_6  and  C_11
REMARK    3  A    between atoms: C_17  and  O_19
REMARK    4  A    between atoms: O_19  and  C_20
REMARK    5  A    between atoms: C_20  and  C_21
REMARK    6  A    between atoms: C_36  and  C_38
REMARK    7  A    between atoms: C_38  and  O_40
REMARK    8  A    between atoms: O_40  and  C_41
REMARK                            x       y       z     vdW  Elec       q    Type
REMARK                         _______ _______ _______ _____ _____    ______ ____
ROOT
ATOM      1  C   UNL     1       1.762  -2.344   3.965  0.00  0.00    +0.324 C 
ENDROOT
BRANCH   1   2
ATOM      2  C   UNL     1       1.325  -3.144   5.164  0.00  0.00    +0.254 C 
ATOM      3  O   UNL     1       1.453  -4.350   5.168  0.00  0.00    -0.272 OA
ATOM      4  N   UNL     1       0.792  -2.519   6.233  0.00  0.00    -0.283 N 
ATOM      5  C   UNL     1       1.038  -1.083   6.435  0.00  0.00    +0.137 C 
ATOM      6  C   UNL     1      -0.319  -0.370   6.442  0.00  0.00    +0.124 C 
ATOM      7  C   UNL     1      -1.215  -1.149   7.396  0.00  0.00    -0.035 C 
ATOM      8  C   UNL     1      -1.646  -0.279   8.302  0.00  0.00    -0.001 A 
ATOM      9  C   UNL     1      -2.585  -0.419   9.426  0.00  0.00    +0.010 A 
ATOM     10  C   UNL     1      -2.795   0.697  10.174  0.00  0.00    +0.001 A 
ATOM     11  C   UNL     1      -2.172   1.923   9.919  0.00  0.00    +0.002 A 
ATOM     12  C   UNL     1      -1.299   2.143   8.904  0.00  0.00    +0.026 A 
ATOM     13  C   UNL     1      -1.001   1.045   8.045  0.00  0.00    +0.043 A 
ATOM     14  N   UNL     1      -0.218   0.987   6.982  0.00  0.00    -0.376 N 
ATOM     15  C   UNL     1      -1.426  -2.639   7.276  0.00  0.00    +0.067 C 
ATOM     16  C   UNL     1      -0.033  -3.277   7.180  0.00  0.00    +0.189 C 
ATOM     17  H   UNL     1       0.330   1.702   6.622  0.00  0.00    +0.160 HD
BRANCH  16  18
ATOM     18  C   UNL     1      -0.167  -4.700   6.704  0.00  0.00    +0.328 C 
ATOM     19  O   UNL     1      -0.453  -4.928   5.552  0.00  0.00    -0.249 OA
BRANCH  18  20
ATOM     20  O   UNL     1       0.033  -5.716   7.559  0.00  0.00    -0.467 OA
ATOM     21  C   UNL     1      -0.110  -7.039   7.039  0.00  0.00    +0.280 C 
ENDBRANCH  18  20
ENDBRANCH  16  18
ENDBRANCH   1   2
BRANCH   1  22
ATOM     22  O   UNL     1       2.290  -3.224   2.971  0.00  0.00    -0.482 OA
BRANCH  22  33
ATOM     23  C   UNL     1       3.029   0.781   0.289  0.00  0.00    +0.044 C 
ATOM     24  C   UNL     1       3.112  -0.713   0.466  0.00  0.00    -0.043 A 
ATOM     25  C   UNL     1       3.637  -1.492  -0.545  0.00  0.00    +0.050 A 
ATOM     26  C   UNL     1       3.718  -2.870  -0.392  0.00  0.00    +0.143 A 
ATOM     27  C   UNL     1       3.263  -3.460   0.798  0.00  0.00    +0.067 A 
ATOM     28  C   UNL     1       3.354  -4.921   0.950  0.00  0.00    +0.003 A 
ATOM     29  C   UNL     1       3.888  -5.646  -0.098  0.00  0.00    +0.101 A 
ATOM     30  C   UNL     1       4.320  -4.976  -1.255  0.00  0.00    +0.338 A 
ATOM     31  O   UNL     1       4.790  -5.622  -2.175  0.00  0.00    -0.245 OA
ATOM     32  O   UNL     1       4.229  -3.642  -1.375  0.00  0.00    -0.422 OA
ATOM     33  C   UNL     1       2.732  -2.660   1.819  0.00  0.00    +0.133 A 
ATOM     34  C   UNL     1       2.667  -1.288   1.645  0.00  0.00    +0.050 A 
BRANCH  28  35
ATOM     35  C   UNL     1       2.889  -5.591   2.184  0.00  0.00    -0.017 A 
ATOM     36  C   UNL     1       1.536  -5.569   2.526  0.00  0.00    +0.008 A 
ATOM     37  C   UNL     1       1.109  -6.196   3.679  0.00  0.00    +0.001 A 
ATOM     38  C   UNL     1       2.018  -6.845   4.494  0.00  0.00    +0.000 A 
ATOM     39  C   UNL     1       3.361  -6.871   4.161  0.00  0.00    +0.001 A 
ATOM     40  C   UNL     1       3.800  -6.253   3.008  0.00  0.00    +0.008 A 
ENDBRANCH  28  35
ENDBRANCH  22  33
ENDBRANCH   1  22
TORSDOF 6
