REMARK  Name = ZINC12769022
REMARK  7 active torsions:
REMARK  status: ('A' for Active; 'I' for Inactive)
REMARK    1  A    between atoms: C_1  and  C_2
REMARK    2  A    between atoms: C_4  and  C_25
REMARK    3  A    between atoms: C_7  and  C_8
REMARK    4  A    between atoms: N_11  and  C_12
REMARK    5  A    between atoms: C_12  and  C_13
REMARK    6  A    between atoms: C_13  and  C_15
REMARK    7  A    between atoms: C_13  and  N_20
REMARK                            x       y       z     vdW  Elec       q    Type
REMARK                         _______ _______ _______ _____ _____    ______ ____
ROOT
ATOM      1  C   UNL     1      -2.591   1.053   0.188  0.00  0.00    +0.045 C 
ATOM      2  C   UNL     1      -1.278   1.784   0.072  0.00  0.00    -0.033 A 
ATOM      3  C   UNL     1      -0.092   1.090  -0.087  0.00  0.00    +0.027 A 
ATOM      4  C   UNL     1       1.097   1.789  -0.195  0.00  0.00    +0.041 A 
ATOM      5  N   UNL     1       1.122   3.107  -0.144  0.00  0.00    -0.237 NA
ATOM      6  C   UNL     1       0.018   3.820   0.012  0.00  0.00    +0.131 A 
ATOM      7  C   UNL     1      -1.229   3.181   0.129  0.00  0.00    +0.079 A 
ATOM      8  N   UNL     1       0.091   5.200   0.061  0.00  0.00    -0.330 N 
ATOM      9  C   UNL     1       2.387   1.031  -0.375  0.00  0.00    +0.065 C 
ATOM     10  H   UNL     1      -0.825   5.795   0.191  0.00  0.00    +0.147 HD
ENDROOT
BRANCH   7  11
ATOM     11  C   UNL     1      -2.463   3.970   0.303  0.00  0.00    +0.245 C 
ATOM     12  O   UNL     1      -3.091   4.338  -0.670  0.00  0.00    -0.270 OA
ATOM     13  N   UNL     1      -2.893   4.282   1.542  0.00  0.00    -0.325 N 
ATOM     14  H   UNL     1      -3.814   4.871   1.671  0.00  0.00    +0.145 HD
ATOM     15  H   UNL     1      -2.325   3.949   2.422  0.00  0.00    +0.145 HD
ENDBRANCH   7  11
BRANCH   8  16
ATOM     16  C   UNL     1       1.389   5.869  -0.060  0.00  0.00    +0.093 C 
BRANCH  16  17
ATOM     17  C   UNL     1       1.180   7.384  -0.094  0.00  0.00    -0.013 C 
BRANCH  17  18
ATOM     18  N   UNL     1       2.465   8.050  -0.342  0.00  0.00    +0.386 N 
ATOM     19  C   UNL     1       3.054   7.608  -1.632  0.00  0.00    -0.078 C 
ATOM     20  C   UNL     1       4.056   8.740  -1.970  0.00  0.00    -0.020 C 
ATOM     21  C   UNL     1       3.318  10.011  -1.493  0.00  0.00    -0.020 C 
ATOM     22  C   UNL     1       2.290   9.514  -0.459  0.00  0.00    -0.078 C 
ATOM     23  H   UNL     1       3.108   7.789   0.512  0.00  0.00    -0.081 HD
ENDBRANCH  17  18
BRANCH  17  24
ATOM     24  C   UNL     1       0.622   7.844   1.228  0.00  0.00    -0.022 A 
ATOM     25  C   UNL     1      -0.658   8.142   1.558  0.00  0.00    +0.009 A 
ATOM     26  C   UNL     1      -0.942   8.545   2.849  0.00  0.00    +0.008 A 
ATOM     27  C   UNL     1       0.071   8.642   3.745  0.00  0.00    +0.045 A 
ATOM     28  S   UNL     1       1.479   8.147   2.765  0.00  0.00    -0.103 S 
ENDBRANCH  17  24
ENDBRANCH  16  17
ENDBRANCH   8  16
TORSDOF 5
