REMARK  Name = ZINC61711395
REMARK  3 active torsions:
REMARK  status: ('A' for Active; 'I' for Inactive)
REMARK    1  A    between atoms: C_4  and  N_17
REMARK    2  A    between atoms: C_6  and  N_10
REMARK    3  A    between atoms: C_13  and  O_16
REMARK                            x       y       z     vdW  Elec       q    Type
REMARK                         _______ _______ _______ _____ _____    ______ ____
ROOT
ATOM      1  C   UNL     1       0.009   1.665  -0.087  0.00  0.00    -0.000 C 
ATOM      2  C   UNL     1       1.477   1.941   0.091  0.00  0.00    +0.001 C 
ATOM      3  C   UNL     1       2.189   2.228  -1.245  0.00  0.00    +0.017 C 
ATOM      4  C   UNL     1       1.733   1.290  -2.379  0.00  0.00    +0.037 C 
ATOM      5  C   UNL     1       1.582  -0.135  -1.921  0.00  0.00    -0.051 C 
ATOM      6  C   UNL     1       0.110  -0.368  -1.524  0.00  0.00    -0.014 C 
ATOM      7  C   UNL     1      -0.194   0.140  -0.194  0.00  0.00    -0.002 C 
ENDROOT
BRANCH   5   8
ATOM      8  N   UNL     1       1.953  -1.046  -3.011  0.00  0.00    +0.384 N 
ATOM      9  C   UNL     1       0.929  -1.014  -4.087  0.00  0.00    -0.076 C 
ATOM     10  C   UNL     1       1.116  -2.348  -4.842  0.00  0.00    +0.011 C 
ATOM     11  C   UNL     1       1.782  -3.295  -3.824  0.00  0.00    +0.096 C 
ATOM     12  C   UNL     1       1.942  -2.455  -2.538  0.00  0.00    -0.047 C 
ATOM     13  H   UNL     1       2.861  -0.805  -3.379  0.00  0.00    -0.081 HD
BRANCH  11  14
ATOM     14  O   UNL     1       0.946  -4.427  -3.578  0.00  0.00    -0.394 OA
ATOM     15  H   UNL     1       0.775  -4.968  -4.361  0.00  0.00    +0.210 HD
ENDBRANCH  11  14
ENDBRANCH   5   8
BRANCH   4  16
ATOM     16  N   UNL     1       2.725   1.336  -3.462  0.00  0.00    -0.329 NA
ATOM     17  H   UNL     1       2.750   2.249  -3.891  0.00  0.00    +0.118 HD
ATOM     18  H   UNL     1       3.639   1.069  -3.127  0.00  0.00    +0.118 HD
ENDBRANCH   4  16
TORSDOF 3
