REMARK  Name = ZINC12498073
REMARK  10 active torsions:
REMARK  status: ('A' for Active; 'I' for Inactive)
REMARK    1  A    between atoms: C_1  and  C_2
REMARK    2  A    between atoms: C_7  and  C_8
REMARK    3  A    between atoms: N_16  and  C_19
REMARK    4  A    between atoms: C_23  and  C_25
REMARK    5  A    between atoms: C_25  and  C_27
REMARK    6  A    between atoms: C_28  and  C_29
REMARK    7  A    between atoms: C_28  and  C_36
REMARK    8  A    between atoms: C_29  and  C_30
REMARK    9  A    between atoms: C_36  and  O_38
REMARK   10  A    between atoms: O_38  and  C_39
REMARK                            x       y       z     vdW  Elec       q    Type
REMARK                         _______ _______ _______ _____ _____    ______ ____
ROOT
ATOM      1  C   UNL     1       3.672   2.182  -0.021  0.00  0.00    -0.026 C 
ATOM      2  C   UNL     1       4.088   2.525   1.399  0.00  0.00    +0.077 C 
ATOM      3  C   UNL     1       4.859   1.190   1.742  0.00  0.00    +0.086 C 
ATOM      4  C   UNL     1       4.950   1.283   3.178  0.00  0.00    +0.229 C 
ATOM      5  O   UNL     1       5.859   0.903   3.885  0.00  0.00    -0.275 OA
ATOM      6  N   UNL     1       3.789   1.894   3.577  0.00  0.00    -0.210 N 
ATOM      7  C   UNL     1       3.115   2.466   2.535  0.00  0.00    +0.229 C 
ATOM      8  O   UNL     1       1.964   2.848   2.530  0.00  0.00    -0.275 OA
ATOM      9  C   UNL     1       5.717   1.020   0.558  0.00  0.00    +0.048 C 
ATOM     10  N   UNL     1       4.773   1.339  -0.559  0.00  0.00    +0.396 N 
ATOM     11  H   UNL     1       5.271   1.850  -1.298  0.00  0.00    -0.083 HD
ATOM     12  H   UNL     1       4.387   0.470  -0.946  0.00  0.00    -0.083 HD
ENDROOT
BRANCH   1  19
ATOM     13  C   UNL     1       1.151   3.592   0.010  0.00  0.00    +0.044 C 
ATOM     14  C   UNL     1       1.171   2.085   0.002  0.00  0.00    -0.049 A 
ATOM     15  C   UNL     1      -0.017   1.378   0.010  0.00  0.00    +0.003 A 
ATOM     16  C   UNL     1       0.002  -0.004   0.002  0.00  0.00    +0.000 A 
ATOM     17  C   UNL     1       1.209  -0.679  -0.014  0.00  0.00    +0.000 A 
ATOM     18  C   UNL     1       2.396   0.028  -0.021  0.00  0.00    +0.002 A 
ATOM     19  C   UNL     1       2.377   1.411  -0.014  0.00  0.00    -0.058 A 
ENDBRANCH   1  19
BRANCH   6  20
ATOM     20  C   UNL     1       3.346   1.940   4.907  0.00  0.00    +0.045 A 
ATOM     21  C   UNL     1       4.090   1.326   5.908  0.00  0.00    +0.024 A 
ATOM     22  C   UNL     1       3.662   1.371   7.222  0.00  0.00    +0.003 A 
ATOM     23  C   UNL     1       2.487   2.017   7.548  0.00  0.00    +0.011 A 
ATOM     24  C   UNL     1       1.728   2.634   6.549  0.00  0.00    +0.019 A 
ATOM     25  C   UNL     1       2.165   2.592   5.221  0.00  0.00    +0.035 A 
BRANCH  24  26
ATOM     26  C   UNL     1       0.475   3.324   6.892  0.00  0.00    +0.160 C 
ATOM     27  O   UNL     1      -0.182   3.857   6.023  0.00  0.00    -0.292 OA
ATOM     28  C   UNL     1       0.006   3.367   8.324  0.00  0.00    +0.091 C 
ENDBRANCH  24  26
ENDBRANCH   6  20
BRANCH   9  29
ATOM     29  C   UNL     1       6.216  -0.399   0.457  0.00  0.00    +0.297 C 
ATOM     30  O   UNL     1       6.396  -1.048   1.460  0.00  0.00    -0.252 OA
BRANCH  29  31
ATOM     31  O   UNL     1       6.462  -0.940  -0.746  0.00  0.00    -0.469 OA
ATOM     32  C   UNL     1       6.941  -2.311  -0.767  0.00  0.00    +0.280 C 
ENDBRANCH  29  31
ENDBRANCH   9  29
BRANCH   9  33
ATOM     33  C   UNL     1       6.886   2.006   0.581  0.00  0.00    +0.034 C 
BRANCH  33  34
ATOM     34  C   UNL     1       7.589   1.984  -0.752  0.00  0.00    -0.048 A 
ATOM     35  C   UNL     1       8.638   1.110  -0.966  0.00  0.00    +0.003 A 
ATOM     36  C   UNL     1       9.280   1.086  -2.190  0.00  0.00    +0.000 A 
ATOM     37  C   UNL     1       8.878   1.944  -3.197  0.00  0.00    +0.000 A 
ATOM     38  C   UNL     1       7.832   2.822  -2.981  0.00  0.00    +0.000 A 
ATOM     39  C   UNL     1       7.188   2.842  -1.758  0.00  0.00    +0.003 A 
ENDBRANCH  33  34
ENDBRANCH   9  33
TORSDOF 7
