REMARK  Name = ZINC39631322
REMARK  13 active torsions:
REMARK  status: ('A' for Active; 'I' for Inactive)
REMARK    1  A    between atoms: C_1  and  C_2
REMARK    2  A    between atoms: C_2  and  C_4
REMARK    3  A    between atoms: C_2  and  N_11
REMARK    4  A    between atoms: C_4  and  C_5
REMARK    5  A    between atoms: C_5  and  C_6
REMARK    6  A    between atoms: C_6  and  C_7
REMARK    7  A    between atoms: C_7  and  C_8
REMARK    8  A    between atoms: C_7  and  C_9
REMARK    9  A    between atoms: C_7  and  O_10
REMARK   10  A    between atoms: C_12  and  C_14
REMARK   11  A    between atoms: C_25  and  C_27
REMARK   12  A    between atoms: C_32  and  O_33
REMARK   13  A    between atoms: O_33  and  C_34
REMARK                            x       y       z     vdW  Elec       q    Type
REMARK                         _______ _______ _______ _____ _____    ______ ____
ROOT
ATOM      1  C   UNL     1       5.486   7.621  13.844  0.00  0.00    +0.100 C 
ATOM      2  C   UNL     1       7.005   7.875  13.967  0.00  0.00    +0.121 C 
ATOM      3  N   UNL     1       7.114   9.075  14.830  0.00  0.00    -0.296 N 
ATOM      4  C   UNL     1       6.063   8.887  15.858  0.00  0.00    +0.115 C 
ATOM      5  C   UNL     1       4.872   8.284  15.088  0.00  0.00    -0.004 C 
ATOM      6  C   UNL     1       3.900   9.385  14.675  0.00  0.00    -0.010 C 
ATOM      7  C   UNL     1       3.260   9.991  15.928  0.00  0.00    -0.082 C 
ATOM      8  N   UNL     1       2.554   8.942  16.674  0.00  0.00    +0.379 N 
ATOM      9  C   UNL     1       3.511   7.934  17.147  0.00  0.00    -0.082 C 
ATOM     10  C   UNL     1       4.162   7.242  15.947  0.00  0.00    -0.010 C 
ATOM     11  C   UNL     1       7.976  10.104  14.708  0.00  0.00    +0.250 C 
ATOM     12  O   UNL     1       7.830  11.103  15.386  0.00  0.00    -0.270 OA
ATOM     13  H   UNL     1       2.083   9.354  17.466  0.00  0.00    -0.086 HD
ATOM     14  H   UNL     1       1.874   8.502  16.073  0.00  0.00    -0.086 HD
ENDROOT
BRANCH  11  15
ATOM     15  C   UNL     1       9.096  10.020  13.751  0.00  0.00    +0.078 A 
ATOM     16  C   UNL     1       8.849   9.751  12.402  0.00  0.00    +0.017 A 
ATOM     17  C   UNL     1       9.899   9.673  11.514  0.00  0.00    +0.001 A 
ATOM     18  C   UNL     1      11.200   9.860  11.952  0.00  0.00    +0.004 A 
ATOM     19  C   UNL     1      11.459  10.126  13.282  0.00  0.00    +0.046 A 
ATOM     20  C   UNL     1      10.413  10.213  14.189  0.00  0.00    +0.132 A 
BRANCH  20  21
ATOM     21  O   UNL     1      10.664  10.480  15.495  0.00  0.00    -0.494 OA
ATOM     22  C   UNL     1      12.031  10.666  15.868  0.00  0.00    +0.277 C 
ENDBRANCH  20  21
ENDBRANCH  11  15
BRANCH   1  24
ATOM     23  N   UNL     1       3.894   7.710  11.952  0.00  0.00    -0.312 N 
ATOM     24  C   UNL     1       4.947   8.260  12.589  0.00  0.00    +0.218 C 
ATOM     25  O   UNL     1       5.461   9.268  12.154  0.00  0.00    -0.275 OA
ATOM     26  H   UNL     1       3.413   6.972  12.357  0.00  0.00    +0.149 HD
BRANCH  23  28
ATOM     27  C   UNL     1       2.290   9.175  10.829  0.00  0.00    +0.028 C 
ATOM     28  C   UNL     1       3.477   8.228  10.646  0.00  0.00    +0.070 C 
BRANCH  28  29
ATOM     29  C   UNL     1       3.066   7.063   9.744  0.00  0.00    +0.022 C 
BRANCH  29  30
ATOM     30  C   UNL     1       2.091   6.154  10.496  0.00  0.00    +0.005 C 
BRANCH  30  31
ATOM     31  C   UNL     1       1.802   4.909   9.655  0.00  0.00    +0.034 C 
BRANCH  31  32
ATOM     32  C   UNL     1       0.824   4.003  10.405  0.00  0.00    +0.061 C 
ATOM     33  C   UNL     1      -0.458   4.780  10.712  0.00  0.00    +0.041 C 
ATOM     34  C   UNL     1       0.488   2.787   9.539  0.00  0.00    +0.041 C 
BRANCH  32  35
ATOM     35  O   UNL     1       1.420   3.567  11.629  0.00  0.00    -0.389 OA
ATOM     36  H   UNL     1       1.595   4.281  12.257  0.00  0.00    +0.210 HD
ENDBRANCH  32  35
ENDBRANCH  31  32
ENDBRANCH  30  31
ENDBRANCH  29  30
ENDBRANCH  28  29
ENDBRANCH  23  28
ENDBRANCH   1  24
TORSDOF 9
