REMARK  Name = ZINC09007851
REMARK  12 active torsions:
REMARK  status: ('A' for Active; 'I' for Inactive)
REMARK    1  A    between atoms: C_1  and  C_2
REMARK    2  A    between atoms: C_2  and  N_63
REMARK    3  A    between atoms: C_3  and  C_4
REMARK    4  A    between atoms: C_3  and  N_63
REMARK    5  A    between atoms: C_5  and  C_6
REMARK    6  A    between atoms: C_5  and  N_63
REMARK    7  A    between atoms: C_6  and  C_7
REMARK    8  A    between atoms: C_7  and  N_8
REMARK    9  A    between atoms: C_9  and  C_28
REMARK   10  A    between atoms: C_12  and  C_13
REMARK   11  A    between atoms: C_12  and  O_23
REMARK   12  A    between atoms: C_14  and  C_22
REMARK                            x       y       z     vdW  Elec       q    Type
REMARK                         _______ _______ _______ _____ _____    ______ ____
ROOT
ATOM      1  N   UNL     1       6.107   4.318  -2.705  0.00  0.00    -0.284 N 
ATOM      2  C   UNL     1       5.771   3.893  -1.343  0.00  0.00    +0.145 C 
ATOM      3  C   UNL     1       4.283   4.103  -1.182  0.00  0.00    +0.073 C 
ATOM      4  C   UNL     1       3.519   3.833  -0.050  0.00  0.00    +0.151 C 
ATOM      5  C   UNL     1       3.829   4.625  -2.392  0.00  0.00    +0.249 C 
ATOM      6  O   UNL     1       2.677   4.932  -2.651  0.00  0.00    -0.282 OA
ATOM      7  C   UNL     1       4.987   4.745  -3.314  0.00  0.00    +0.288 C 
ATOM      8  O   UNL     1       4.931   5.168  -4.451  0.00  0.00    -0.266 OA
ENDROOT
BRANCH   4   9
ATOM      9  C   UNL     1       2.134   4.091  -0.057  0.00  0.00    +0.111 A 
ATOM     10  C   UNL     1       1.517   5.340  -0.068  0.00  0.00    +0.068 A 
ATOM     11  N   UNL     1       0.209   5.153  -0.070  0.00  0.00    -0.232 NA
ATOM     12  C   UNL     1      -0.063   3.847  -0.062  0.00  0.00    +0.138 A 
ATOM     13  N   UNL     1       1.115   3.154  -0.053  0.00  0.00    -0.297 N 
ATOM     14  C   UNL     1       1.120   1.795  -0.043  0.00  0.00    +0.093 A 
ATOM     15  C   UNL     1      -0.042   1.101  -0.041  0.00  0.00    +0.018 A 
ATOM     16  C   UNL     1      -1.266   1.781  -0.056  0.00  0.00    +0.005 A 
ATOM     17  C   UNL     1      -1.280   3.145  -0.060  0.00  0.00    +0.047 A 
ATOM     18  C   UNL     1       2.219   6.673  -0.075  0.00  0.00    +0.068 C 
ENDBRANCH   4   9
BRANCH   2  19
ATOM     19  C   UNL     1       6.110   2.436  -1.161  0.00  0.00    -0.021 A 
ATOM     20  C   UNL     1       6.645   1.995   0.035  0.00  0.00    +0.006 A 
ATOM     21  C   UNL     1       6.956   0.659   0.203  0.00  0.00    +0.001 A 
ATOM     22  C   UNL     1       6.732  -0.237  -0.826  0.00  0.00    +0.015 A 
ATOM     23  C   UNL     1       6.197   0.203  -2.022  0.00  0.00    +0.018 A 
ATOM     24  C   UNL     1       5.881   1.540  -2.188  0.00  0.00    +0.021 A 
ATOM     25 BR   UNL     1       5.892  -1.022  -3.430  0.00  0.00    -0.050 Br
ENDBRANCH   2  19
BRANCH   4  26
ATOM     26  O   UNL     1       4.106   3.324   1.057  0.00  0.00    -0.504 OA
ATOM     27  H   UNL     1       3.417   3.193   1.770  0.00  0.00    +0.292 HD
ENDBRANCH   4  26
BRANCH   1  28
ATOM     28  C   UNL     1       7.444   4.288  -3.303  0.00  0.00    +0.107 C 
BRANCH  28  29
ATOM     29  C   UNL     1       8.156   5.614  -3.027  0.00  0.00    +0.000 C 
BRANCH  29  30
ATOM     30  C   UNL     1       9.553   5.582  -3.651  0.00  0.00    -0.077 C 
BRANCH  30  31
ATOM     31  N   UNL     1      10.170   6.917  -3.498  0.00  0.00    +0.379 N 
ATOM     32  H   UNL     1       9.464   7.635  -3.700  0.00  0.00    -0.082 HD
BRANCH  31  34
ATOM     33  C   UNL     1      11.080   8.551  -1.922  0.00  0.00    -0.017 C 
ATOM     34  C   UNL     1      10.654   7.094  -2.113  0.00  0.00    -0.082 C 
ENDBRANCH  31  34
BRANCH  31  35
ATOM     35  C   UNL     1      11.292   7.066  -4.449  0.00  0.00    -0.082 C 
ATOM     36  C   UNL     1      10.721   7.341  -5.841  0.00  0.00    -0.017 C 
ENDBRANCH  31  35
ENDBRANCH  30  31
ENDBRANCH  29  30
ENDBRANCH  28  29
ENDBRANCH   1  28
TORSDOF 9
