REMARK  Name = ZINC45681825
REMARK  9 active torsions:
REMARK  status: ('A' for Active; 'I' for Inactive)
REMARK    1  A    between atoms: C_1  and  C_2
REMARK    2  A    between atoms: C_2  and  C_4
REMARK    3  A    between atoms: C_2  and  N_18
REMARK    4  A    between atoms: N_6  and  C_7
REMARK    5  A    between atoms: C_8  and  C_15
REMARK    6  A    between atoms: N_21  and  C_24
REMARK    7  A    between atoms: C_24  and  C_26
REMARK    8  A    between atoms: C_24  and  C_27
REMARK    9  A    between atoms: N_29  and  C_30
REMARK                            x       y       z     vdW  Elec       q    Type
REMARK                         _______ _______ _______ _____ _____    ______ ____
ROOT
ATOM      1  C   UNL     1       0.689   0.100   0.985  0.00  0.00    +0.034 C 
ATOM      2  C   UNL     1      -0.297   0.476   2.092  0.00  0.00    +0.140 C 
ENDROOT
BRANCH   2   3
ATOM      3  N   UNL     1      -1.627  -0.054   1.764  0.00  0.00    -0.295 NA
ATOM      4  C   UNL     1      -1.689  -1.503   2.000  0.00  0.00    +0.066 C 
ATOM      5  C   UNL     1      -3.104  -2.005   1.704  0.00  0.00    -0.062 C 
ATOM      6  N   UNL     1      -3.449  -1.704   0.309  0.00  0.00    +0.389 N 
ATOM      7  C   UNL     1      -3.407  -0.251   0.095  0.00  0.00    -0.062 C 
ATOM      8  C   UNL     1      -1.994   0.265   0.377  0.00  0.00    +0.066 C 
ATOM      9  H   UNL     1      -2.787  -2.153  -0.306  0.00  0.00    -0.081 HD
BRANCH   6  10
ATOM     10  C   UNL     1      -4.801  -2.202   0.020  0.00  0.00    +0.016 C 
ATOM     11  C   UNL     1      -5.144  -1.924  -1.445  0.00  0.00    -0.004 C 
BRANCH  10  12
ATOM     12  C   UNL     1      -4.854  -3.686   0.276  0.00  0.00    +0.199 C 
ATOM     13  O   UNL     1      -3.854  -4.359   0.152  0.00  0.00    -0.278 OA
ATOM     14  N   UNL     1      -6.015  -4.264   0.644  0.00  0.00    -0.314 N 
ATOM     15  H   UNL     1      -6.815  -3.726   0.743  0.00  0.00    +0.149 HD
BRANCH  14  16
ATOM     16  C   UNL     1      -6.067  -5.707   0.893  0.00  0.00    +0.073 C 
ATOM     17  C   UNL     1      -7.260  -6.479   0.326  0.00  0.00    +0.024 C 
ATOM     18  C   UNL     1      -7.160  -6.223   1.831  0.00  0.00    +0.024 C 
ENDBRANCH  14  16
ENDBRANCH  10  12
ENDBRANCH   6  10
ENDBRANCH   2   3
BRANCH   2  19
ATOM     19  C   UNL     1      -0.370   1.977   2.211  0.00  0.00    +0.235 C 
ATOM     20  O   UNL     1      -1.343   2.571   1.799  0.00  0.00    -0.274 OA
ATOM     21  N   UNL     1       0.647   2.659   2.774  0.00  0.00    -0.278 N 
ATOM     22  H   UNL     1       1.426   2.183   3.104  0.00  0.00    +0.155 HD
BRANCH  21  23
ATOM     23  C   UNL     1       0.580   4.039   2.884  0.00  0.00    +0.084 A 
ATOM     24  C   UNL     1       1.522   4.896   3.422  0.00  0.00    +0.068 A 
ATOM     25  C   UNL     1       1.209   6.324   3.418  0.00  0.00    -0.023 A 
ATOM     26  C   UNL     1       0.014   6.622   2.877  0.00  0.00    -0.004 A 
ATOM     27  S   UNL     1      -0.658   5.054   2.386  0.00  0.00    -0.077 S 
ATOM     28  C   UNL     1      -0.260   8.101   2.901  0.00  0.00    +0.043 C 
ATOM     29  C   UNL     1       0.748   8.668   3.925  0.00  0.00    +0.010 C 
ATOM     30  C   UNL     1       1.879   7.621   3.867  0.00  0.00    +0.037 C 
BRANCH  24  31
ATOM     31  C   UNL     1       2.783   4.393   3.976  0.00  0.00    +0.244 C 
ATOM     32  O   UNL     1       3.760   4.281   3.260  0.00  0.00    -0.270 OA
ATOM     33  N   UNL     1       2.860   4.055   5.279  0.00  0.00    -0.325 N 
ATOM     34  H   UNL     1       2.080   4.145   5.850  0.00  0.00    +0.145 HD
ATOM     35  H   UNL     1       3.694   3.723   5.645  0.00  0.00    +0.145 HD
ENDBRANCH  24  31
ENDBRANCH  21  23
ENDBRANCH   2  19
TORSDOF 7
