REMARK  Name = ZINC06904554
REMARK  1 active torsions:
REMARK  status: ('A' for Active; 'I' for Inactive)
REMARK    1  A    between atoms: CA_11  and  C_13
REMARK                            x       y       z     vdW  Elec       q    Type
REMARK                         _______ _______ _______ _____ _____    ______ ____
ROOT
ATOM      1  C   UNL     1       1.240   3.634  -2.441  0.00  0.00    +0.000 C 
ATOM      2  C   UNL     1       0.516   4.067  -1.165  0.00  0.00    -0.002 C 
ATOM      3  C   UNL     1       1.275   3.541   0.055  0.00  0.00    -0.015 C 
ATOM      4  C   UNL     1       1.344   2.013   0.000  0.00  0.00    -0.068 C 
ATOM      5  C   UNL     1       2.061   1.579  -1.280  0.00  0.00    -0.025 C 
ATOM      6  C   UNL     1       1.301   2.107  -2.500  0.00  0.00    +0.002 C 
ATOM      7  C   UNL     1       2.109   0.050  -1.337  0.00  0.00    +0.001 C 
ATOM      8  C   UNL     1       0.681  -0.500  -1.276  0.00  0.00    -0.004 C 
ATOM      9  CA  UNL     1       0.002  -0.004   0.002  0.00  0.00    +0.044 C 
ATOM     10  N   UNL     1      -0.028   1.471   0.010  0.00  0.00    +0.390 N 
ATOM     11  H1  UNL     1      -0.529   1.804  -0.822  0.00  0.00    -0.084 HD
ATOM     12  H2  UNL     1      -0.513   1.795   0.855  0.00  0.00    -0.084 HD
ENDROOT
BRANCH   9  13
ATOM     13  C   UNL     1      -1.411  -0.526   0.054  0.00  0.00    +0.343 C 
ATOM     14  O   UNL     1      -2.331   0.190  -0.264  0.00  0.00    -0.248 OA
ATOM     15  OXT UNL     1      -1.647  -1.785   0.455  0.00  0.00    -0.248 OA
ENDBRANCH   9  13
TORSDOF 1
