REMARK  Name = ZINC36991635
REMARK  8 active torsions:
REMARK  status: ('A' for Active; 'I' for Inactive)
REMARK    1  A    between atoms: C_1  and  C_2
REMARK    2  A    between atoms: C_2  and  C_3
REMARK    3  A    between atoms: C_3  and  C_5
REMARK    4  A    between atoms: C_3  and  N_12
REMARK    5  A    between atoms: N_12  and  C_13
REMARK    6  A    between atoms: C_13  and  C_14
REMARK    7  A    between atoms: C_17  and  O_21
REMARK    8  A    between atoms: C_19  and  O_20
REMARK                            x       y       z     vdW  Elec       q    Type
REMARK                         _______ _______ _______ _____ _____    ______ ____
ROOT
ATOM      1  N   UNL     1      -0.206  -0.014  -2.438  0.00  0.00    +0.386 N 
ATOM      2  H   UNL     1      -1.077  -0.492  -2.267  0.00  0.00    -0.085 HD
ATOM      3  H   UNL     1      -0.373   0.979  -2.497  0.00  0.00    -0.085 HD
ENDROOT
BRANCH   1   4
ATOM      4  C   UNL     1       0.728  -0.288  -1.337  0.00  0.00    -0.041 C 
BRANCH   4   5
ATOM      5  C   UNL     1       0.876  -1.778  -1.164  0.00  0.00    -0.061 A 
ATOM      6  C   UNL     1      -0.229  -2.600  -1.284  0.00  0.00    +0.003 A 
ATOM      7  C   UNL     1      -0.093  -3.967  -1.125  0.00  0.00    +0.015 A 
ATOM      8  C   UNL     1       1.148  -4.511  -0.846  0.00  0.00    +0.018 A 
ATOM      9  C   UNL     1       2.252  -3.687  -0.726  0.00  0.00    +0.015 A 
ATOM     10  C   UNL     1       2.117  -2.321  -0.890  0.00  0.00    +0.003 A 
ATOM     11 BR   UNL     1       1.334  -6.380  -0.628  0.00  0.00    -0.050 Br
ENDBRANCH   4   5
BRANCH   4  13
ATOM     12  C   UNL     1       0.159   1.849  -0.174  0.00  0.00    +0.002 C 
ATOM     13  C   UNL     1       0.185   0.325  -0.044  0.00  0.00    -0.015 C 
ENDBRANCH   4  13
ENDBRANCH   1   4
BRANCH   1  14
ATOM     14  C   UNL     1       0.374  -0.489  -3.701  0.00  0.00    -0.042 C 
BRANCH  14  15
ATOM     15  C   UNL     1      -0.524  -0.096  -4.846  0.00  0.00    -0.023 A 
ATOM     16  C   UNL     1      -1.397  -1.021  -5.388  0.00  0.00    +0.009 A 
ATOM     17  C   UNL     1      -2.222  -0.664  -6.437  0.00  0.00    +0.046 A 
ATOM     18  C   UNL     1      -2.176   0.625  -6.949  0.00  0.00    +0.120 A 
ATOM     19  C   UNL     1      -1.302   1.555  -6.407  0.00  0.00    +0.091 A 
ATOM     20  C   UNL     1      -0.479   1.196  -5.350  0.00  0.00    +0.122 A 
BRANCH  20  21
ATOM     21  O   UNL     1       0.374   2.107  -4.813  0.00  0.00    -0.506 OA
ATOM     22  H   UNL     1       1.245   2.124  -5.232  0.00  0.00    +0.292 HD
ENDBRANCH  20  21
BRANCH  18  23
ATOM     23  O   UNL     1      -2.988   0.976  -7.981  0.00  0.00    -0.507 OA
ATOM     24  H   UNL     1      -3.845   1.327  -7.705  0.00  0.00    +0.292 HD
ENDBRANCH  18  23
ENDBRANCH  14  15
ENDBRANCH   1  14
TORSDOF 7
