REMARK  Name = ZINC61794857
REMARK  6 active torsions:
REMARK  status: ('A' for Active; 'I' for Inactive)
REMARK    1  A    between atoms: C_3  and  S_22
REMARK    2  A    between atoms: C_6  and  C_7
REMARK    3  A    between atoms: C_7  and  C_8
REMARK    4  A    between atoms: C_8  and  N_9
REMARK    5  A    between atoms: N_16  and  C_19
REMARK    6  A    between atoms: S_22  and  N_25
REMARK                            x       y       z     vdW  Elec       q    Type
REMARK                         _______ _______ _______ _____ _____    ______ ____
ROOT
ATOM      1  N   UNL     1      -3.029  -1.762  -3.754  0.00  0.00    -0.299 N 
ATOM      2  C   UNL     1      -3.594  -2.117  -2.584  0.00  0.00    +0.302 C 
ATOM      3  O   UNL     1      -3.016  -1.896  -1.537  0.00  0.00    -0.253 OA
ATOM      4  N   UNL     1      -4.801  -2.717  -2.573  0.00  0.00    -0.287 N 
ATOM      5  C   UNL     1      -5.451  -2.984  -1.274  0.00  0.00    +0.107 C 
ATOM      6  C   UNL     1      -6.958  -2.674  -1.335  0.00  0.00    +0.000 C 
ATOM      7  C   UNL     1      -7.180  -1.415  -2.144  0.00  0.00    -0.077 C 
ATOM      8  N   UNL     1      -7.442  -1.776  -3.536  0.00  0.00    +0.383 N 
ATOM      9  C   UNL     1      -6.291  -1.909  -4.343  0.00  0.00    -0.059 C 
ATOM     10  C   UNL     1      -5.416  -3.072  -3.835  0.00  0.00    +0.091 C 
ATOM     11  H   UNL     1      -3.455  -2.002  -4.592  0.00  0.00    +0.150 HD
ATOM     12  H   UNL     1      -7.943  -2.652  -3.548  0.00  0.00    -0.081 HD
ENDROOT
BRANCH   8  13
ATOM     13  C   UNL     1      -8.306  -0.746  -4.127  0.00  0.00    -0.069 C 
ATOM     14  C   UNL     1      -9.741  -1.144  -4.480  0.00  0.00    -0.017 C 
ATOM     15  C   UNL     1      -8.713  -0.920  -5.591  0.00  0.00    -0.017 C 
ENDBRANCH   8  13
BRANCH   1  16
ATOM     16  C   UNL     1      -1.770  -1.013  -3.762  0.00  0.00    +0.110 C 
BRANCH  16  17
ATOM     17  C   UNL     1      -1.348  -0.739  -5.207  0.00  0.00    +0.054 C 
BRANCH  17  23
ATOM     18  C   UNL     1       1.153  -0.643  -5.236  0.00  0.00    +0.005 A 
ATOM     19  C   UNL     1       2.341   0.063  -5.244  0.00  0.00    +0.029 A 
ATOM     20  C   UNL     1       2.322   1.446  -5.232  0.00  0.00    +0.105 A 
ATOM     21  C   UNL     1       1.117   2.121  -5.212  0.00  0.00    +0.029 A 
ATOM     22  C   UNL     1      -0.071   1.414  -5.205  0.00  0.00    +0.005 A 
ATOM     23  C   UNL     1      -0.053   0.032  -5.216  0.00  0.00    -0.046 A 
BRANCH  20  24
ATOM     24  S   UNL     1       3.837   2.346  -5.241  0.00  0.00    +0.056 S 
ATOM     25  O   UNL     1       3.555   3.619  -4.676  0.00  0.00    -0.153 OA
ATOM     26  O   UNL     1       4.829   1.479  -4.708  0.00  0.00    -0.153 OA
BRANCH  24  27
ATOM     27  N   UNL     1       4.240   2.611  -6.825  0.00  0.00    -0.204 NA
ATOM     28  H   UNL     1       3.666   2.280  -7.533  0.00  0.00    +0.144 HD
ATOM     29  H   UNL     1       5.050   3.096  -7.045  0.00  0.00    +0.144 HD
ENDBRANCH  24  27
ENDBRANCH  20  24
ENDBRANCH  17  23
ENDBRANCH  16  17
ENDBRANCH   1  16
TORSDOF 6
