REMARK  Name = ZINC38976336
REMARK  6 active torsions:
REMARK  status: ('A' for Active; 'I' for Inactive)
REMARK    1  A    between atoms: N_7  and  S_8
REMARK    2  A    between atoms: S_8  and  C_11
REMARK    3  A    between atoms: C_20  and  N_25
REMARK    4  A    between atoms: N_25  and  C_26
REMARK    5  A    between atoms: C_29  and  C_32
REMARK    6  A    between atoms: C_32  and  O_34
REMARK                            x       y       z     vdW  Elec       q    Type
REMARK                         _______ _______ _______ _____ _____    ______ ____
ROOT
ATOM      1  C   UNL     1       0.575   1.429  -0.708  0.00  0.00    +0.002 A 
ATOM      2  C   UNL     1       1.794   2.107  -0.546  0.00  0.00    +0.002 A 
ATOM      3  C   UNL     1       2.961   1.467  -0.316  0.00  0.00    +0.030 A 
ATOM      4  C   UNL     1       2.998   0.052  -0.228  0.00  0.00    +0.089 A 
ATOM      5  N   UNL     1       4.138  -0.567  -0.004  0.00  0.00    -0.226 NA
ATOM      6  C   UNL     1       4.208  -1.904   0.085  0.00  0.00    +0.192 C 
ATOM      7  N   UNL     1       5.346  -2.493   0.307  0.00  0.00    -0.110 NA
ATOM      8  C   UNL     1       2.943  -2.717  -0.078  0.00  0.00    +0.237 C 
ATOM      9  N   UNL     1       1.688  -1.992  -0.327  0.00  0.00    -0.359 N 
ATOM     10  C   UNL     1       1.724  -0.690  -0.396  0.00  0.00    +0.063 A 
ATOM     11  C   UNL     1       0.497   0.082  -0.643  0.00  0.00    +0.027 A 
ATOM     12  H   UNL     1       0.852  -2.471  -0.438  0.00  0.00    +0.162 HD
ENDROOT
BRANCH   7  13
ATOM     13  S   UNL     1       6.723  -1.591   0.484  0.00  0.00    +0.103 S 
ATOM     14  O   UNL     1       6.973  -0.979  -0.774  0.00  0.00    -0.146 OA
ATOM     15  O   UNL     1       6.566  -0.838   1.679  0.00  0.00    -0.146 OA
BRANCH  13  16
ATOM     16  C   UNL     1       8.050  -2.715   0.769  0.00  0.00    +0.141 A 
ATOM     17  C   UNL     1       9.051  -2.822  -0.136  0.00  0.00    +0.031 A 
ATOM     18  C   UNL     1      10.117  -3.701   0.057  0.00  0.00    +0.004 A 
ATOM     19  C   UNL     1      10.196  -4.486   1.157  0.00  0.00    +0.031 A 
ATOM     20  C   UNL     1       9.180  -4.427   2.150  0.00  0.00    +0.102 A 
ATOM     21  C   UNL     1       8.069  -3.504   1.951  0.00  0.00    +0.127 A 
ATOM     22  N   UNL     1       7.181  -3.530   2.946  0.00  0.00    -0.189 NA
ATOM     23  S   UNL     1       7.739  -4.613   3.997  0.00  0.00    +0.117 S 
ATOM     24  N   UNL     1       9.091  -5.118   3.287  0.00  0.00    -0.191 NA
ENDBRANCH  13  16
ENDBRANCH   7  13
BRANCH   8  25
ATOM     25  N   UNL     1       2.764  -3.514   1.139  0.00  0.00    -0.318 N 
ATOM     26  H   UNL     1       2.908  -3.109   2.009  0.00  0.00    +0.148 HD
BRANCH  25  27
ATOM     27  C   UNL     1       2.389  -4.849   1.046  0.00  0.00    +0.029 A 
ATOM     28  C   UNL     1       2.367  -5.645   2.189  0.00  0.00    +0.024 A 
ATOM     29  C   UNL     1       1.997  -6.962   2.101  0.00  0.00    +0.017 A 
ATOM     30  C   UNL     1       1.641  -7.506   0.863  0.00  0.00    +0.059 A 
ATOM     31  C   UNL     1       1.665  -6.704  -0.283  0.00  0.00    +0.017 A 
ATOM     32  C   UNL     1       2.030  -5.386  -0.187  0.00  0.00    +0.024 A 
BRANCH  30  33
ATOM     33  C   UNL     1       1.244  -8.922   0.765  0.00  0.00    +0.337 C 
ATOM     34  O   UNL     1       1.224  -9.618   1.760  0.00  0.00    -0.245 OA
BRANCH  33  35
ATOM     35  O   UNL     1       0.901  -9.445  -0.429  0.00  0.00    -0.477 OA
ATOM     36  H   UNL     1       0.655 -10.379  -0.394  0.00  0.00    +0.295 HD
ENDBRANCH  33  35
ENDBRANCH  30  33
ENDBRANCH  25  27
ENDBRANCH   8  25
TORSDOF 6
