REMARK  Name = ZINC64160343
REMARK  7 active torsions:
REMARK  status: ('A' for Active; 'I' for Inactive)
REMARK    1  A    between atoms: C_4  and  O_7
REMARK    2  A    between atoms: O_7  and  C_8
REMARK    3  A    between atoms: C_11  and  N_14
REMARK    4  A    between atoms: C_15  and  C_17
REMARK    5  A    between atoms: C_17  and  C_19
REMARK    6  A    between atoms: C_17  and  N_29
REMARK    7  A    between atoms: C_19  and  C_20
REMARK                            x       y       z     vdW  Elec       q    Type
REMARK                         _______ _______ _______ _____ _____    ______ ____
ROOT
ATOM      1  C   UNL     1       4.176  -8.401  -0.259  0.00  0.00    +0.165 C 
ENDROOT
BRANCH   1   2
ATOM      2  N   UNL     1       5.389  -8.980   0.325  0.00  0.00    -0.288 N 
ATOM      3  C   UNL     1       6.587  -8.756  -0.252  0.00  0.00    +0.298 C 
ATOM      4  O   UNL     1       6.661  -8.074  -1.255  0.00  0.00    -0.253 OA
ATOM      5  N   UNL     1       7.703  -9.289   0.285  0.00  0.00    -0.313 N 
ATOM      6  H   UNL     1       5.330  -9.524   1.125  0.00  0.00    +0.151 HD
ATOM      7  H   UNL     1       7.644  -9.833   1.086  0.00  0.00    +0.146 HD
ATOM      8  H   UNL     1       8.565  -9.128  -0.129  0.00  0.00    +0.146 HD
ENDBRANCH   1   2
BRANCH   1  10
ATOM      9  N   UNL     1       3.190  -6.136  -0.382  0.00  0.00    -0.284 N 
ATOM     10  C   UNL     1       4.296  -6.899  -0.278  0.00  0.00    +0.238 C 
ATOM     11  O   UNL     1       5.388  -6.376  -0.200  0.00  0.00    -0.273 OA
ATOM     12  H   UNL     1       2.326  -6.552  -0.530  0.00  0.00    +0.155 HD
BRANCH   9  16
ATOM     13  C   UNL     1       3.482  -1.988  -0.071  0.00  0.00    +0.129 A 
ATOM     14  C   UNL     1       4.427  -2.798   0.541  0.00  0.00    +0.048 A 
ATOM     15  C   UNL     1       4.331  -4.171   0.439  0.00  0.00    +0.027 A 
ATOM     16  C   UNL     1       3.288  -4.742  -0.278  0.00  0.00    +0.034 A 
ATOM     17  C   UNL     1       2.342  -3.932  -0.890  0.00  0.00    +0.027 A 
ATOM     18  C   UNL     1       2.436  -2.558  -0.783  0.00  0.00    +0.048 A 
BRANCH  13  19
ATOM     19  O   UNL     1       3.577  -0.636   0.030  0.00  0.00    -0.456 OA
BRANCH  19  23
ATOM     20  C   UNL     1       6.431   1.281  -2.250  0.00  0.00    +0.000 A 
ATOM     21  C   UNL     1       5.541   2.021  -1.493  0.00  0.00    +0.004 A 
ATOM     22  C   UNL     1       4.584   1.382  -0.729  0.00  0.00    +0.046 A 
ATOM     23  C   UNL     1       4.517  -0.004  -0.721  0.00  0.00    +0.128 A 
ATOM     24  C   UNL     1       5.411  -0.744  -1.482  0.00  0.00    +0.046 A 
ATOM     25  C   UNL     1       6.366  -0.100  -2.244  0.00  0.00    +0.004 A 
ENDBRANCH  19  23
ENDBRANCH  13  19
ENDBRANCH   9  16
ENDBRANCH   1  10
BRANCH   1  26
ATOM     26  C   UNL     1       4.001  -8.917  -1.688  0.00  0.00    +0.065 C 
BRANCH  26  27
ATOM     27  C   UNL     1       3.759 -10.404  -1.659  0.00  0.00    -0.039 C 
ATOM     28  C   UNL     1       2.562 -11.034  -1.676  0.00  0.00    -0.001 A 
ATOM     29  C   UNL     1       1.180 -10.541  -1.723  0.00  0.00    +0.010 A 
ATOM     30  C   UNL     1       0.165 -11.434  -1.728  0.00  0.00    +0.001 A 
ATOM     31  C   UNL     1       0.399 -12.816  -1.689  0.00  0.00    +0.002 A 
ATOM     32  C   UNL     1       1.640 -13.344  -1.645  0.00  0.00    +0.026 A 
ATOM     33  C   UNL     1       2.782 -12.497  -1.636  0.00  0.00    +0.043 A 
ATOM     34  N   UNL     1       4.065 -12.762  -1.595  0.00  0.00    -0.380 N 
ATOM     35  C   UNL     1       4.805 -11.495  -1.612  0.00  0.00    +0.144 C 
ATOM     36  H   UNL     1       4.460 -13.648  -1.564  0.00  0.00    +0.160 HD
ENDBRANCH  26  27
ENDBRANCH   1  26
TORSDOF 7
