REMARK  Name = ZINC38984408
REMARK  7 active torsions:
REMARK  status: ('A' for Active; 'I' for Inactive)
REMARK    1  A    between atoms: C_1  and  C_2
REMARK    2  A    between atoms: C_5  and  S_9
REMARK    3  A    between atoms: C_7  and  C_8
REMARK    4  A    between atoms: S_9  and  N_12
REMARK    5  A    between atoms: C_14  and  N_24
REMARK    6  A    between atoms: N_24  and  C_25
REMARK    7  A    between atoms: C_25  and  C_26
REMARK                            x       y       z     vdW  Elec       q    Type
REMARK                         _______ _______ _______ _____ _____    ______ ____
ROOT
ATOM      1  N   UNL     1       1.651  -4.999  -0.034  0.00  0.00    -0.112 NA
ATOM      2  C   UNL     1       1.955  -6.264  -0.043  0.00  0.00    +0.167 C 
ATOM      3  C   UNL     1       3.402  -6.704  -0.047  0.00  0.00    +0.218 C 
ATOM      4  N   UNL     1       3.680  -8.149  -0.056  0.00  0.00    -0.362 N 
ATOM      5  C   UNL     1       2.672  -8.977  -0.060  0.00  0.00    +0.060 A 
ATOM      6  C   UNL     1       2.896 -10.430  -0.069  0.00  0.00    +0.027 A 
ATOM      7  C   UNL     1       1.827 -11.255  -0.073  0.00  0.00    +0.002 A 
ATOM      8  C   UNL     1       0.511 -10.761  -0.068  0.00  0.00    +0.002 A 
ATOM      9  C   UNL     1       0.227  -9.441  -0.060  0.00  0.00    +0.028 A 
ATOM     10  C   UNL     1       1.273  -8.483  -0.055  0.00  0.00    +0.064 A 
ATOM     11  N   UNL     1       0.990  -7.197  -0.043  0.00  0.00    -0.338 N 
ATOM     12  H   UNL     1       4.592  -8.479  -0.059  0.00  0.00    +0.162 HD
ATOM     13  H   UNL     1       0.061  -6.917  -0.036  0.00  0.00    +0.167 HD
ENDROOT
BRANCH   1  14
ATOM     14  S   UNL     1       0.063  -4.530  -0.023  0.00  0.00    +0.100 S 
ATOM     15  O   UNL     1      -0.476  -4.950   1.223  0.00  0.00    -0.146 OA
ATOM     16  O   UNL     1      -0.490  -4.937  -1.267  0.00  0.00    -0.146 OA
BRANCH  14  21
ATOM     17  C   UNL     1      -0.018   1.503   0.010  0.00  0.00    +0.044 C 
ATOM     18  C   UNL     1       0.002  -0.004   0.002  0.00  0.00    -0.047 A 
ATOM     19  C   UNL     1       0.006  -0.689  -1.199  0.00  0.00    +0.005 A 
ATOM     20  C   UNL     1       0.025  -2.071  -1.207  0.00  0.00    +0.029 A 
ATOM     21  C   UNL     1       0.040  -2.768  -0.013  0.00  0.00    +0.113 A 
ATOM     22  C   UNL     1       0.037  -2.084   1.188  0.00  0.00    +0.032 A 
ATOM     23  C   UNL     1       0.023  -0.702   1.195  0.00  0.00    -0.046 A 
ATOM     24  C   UNL     1       0.025   0.045   2.504  0.00  0.00    +0.044 C 
ENDBRANCH  14  21
ENDBRANCH   1  14
BRANCH   3  25
ATOM     25  N   UNL     1       4.046  -6.117  -1.229  0.00  0.00    -0.287 NA
ATOM     26  H   UNL     1       4.132  -6.797  -1.970  0.00  0.00    +0.125 HD
BRANCH  25  27
ATOM     27  C   UNL     1       5.355  -5.545  -0.886  0.00  0.00    +0.118 C 
BRANCH  27  28
ATOM     28  C   UNL     1       5.984  -4.953  -2.121  0.00  0.00    -0.030 A 
ATOM     29  C   UNL     1       6.789  -5.736  -2.927  0.00  0.00    +0.009 A 
ATOM     30  C   UNL     1       7.368  -5.198  -4.061  0.00  0.00    +0.050 A 
ATOM     31  C   UNL     1       7.143  -3.872  -4.393  0.00  0.00    +0.166 A 
ATOM     32  C   UNL     1       6.331  -3.084  -3.581  0.00  0.00    +0.167 A 
ATOM     33  C   UNL     1       5.750  -3.631  -2.449  0.00  0.00    +0.054 A 
ATOM     34  O   UNL     1       6.266  -1.829  -4.115  0.00  0.00    -0.453 OA
ATOM     35  C   UNL     1       7.371  -1.746  -5.035  0.00  0.00    +0.466 C 
ATOM     36  O   UNL     1       7.586  -3.112  -5.436  0.00  0.00    -0.453 OA
ENDBRANCH  27  28
ENDBRANCH  25  27
ENDBRANCH   3  25
TORSDOF 5
