REMARK  Name = ZINC41070167
REMARK  6 active torsions:
REMARK  status: ('A' for Active; 'I' for Inactive)
REMARK    1  A    between atoms: C_1  and  N_2
REMARK    2  A    between atoms: C_6  and  N_9
REMARK    3  A    between atoms: N_9  and  S_10
REMARK    4  A    between atoms: S_10  and  C_13
REMARK    5  A    between atoms: C_18  and  N_19
REMARK    6  A    between atoms: N_19  and  N_20
REMARK                            x       y       z     vdW  Elec       q    Type
REMARK                         _______ _______ _______ _____ _____    ______ ____
ROOT
ATOM      1  S   UNL     1       0.768  -3.812   3.332  0.00  0.00    +0.062 S 
ATOM      2  O   UNL     1       1.535  -4.047   4.506  0.00  0.00    -0.153 OA
ATOM      3  O   UNL     1      -0.624  -3.530   3.375  0.00  0.00    -0.153 OA
ENDROOT
BRANCH   1   4
ATOM      4  C   UNL     1       0.963  -5.233   2.310  0.00  0.00    +0.147 A 
ATOM      5  C   UNL     1      -0.142  -5.858   1.760  0.00  0.00    +0.048 A 
ATOM      6  C   UNL     1       0.058  -6.976   0.960  0.00  0.00    +0.038 A 
ATOM      7  C   UNL     1       1.345  -7.428   0.739  0.00  0.00    +0.128 A 
ATOM      8  N   UNL     1       2.380  -6.812   1.278  0.00  0.00    -0.236 NA
ATOM      9  C   UNL     1       2.230  -5.740   2.041  0.00  0.00    +0.159 A 
ATOM     10 BR   UNL     1      -1.415  -7.870   0.182  0.00  0.00    -0.049 Br
BRANCH   9  11
ATOM     11  N   UNL     1       3.350  -5.118   2.582  0.00  0.00    -0.266 N 
ATOM     12  H   UNL     1       3.254  -4.284   3.069  0.00  0.00    +0.167 HD
BRANCH  11  13
ATOM     13  N   UNL     1       4.585  -5.681   2.429  0.00  0.00    -0.255 NA
ATOM     14  H   UNL     1       4.797  -5.828   1.454  0.00  0.00    +0.140 HD
ATOM     15  H   UNL     1       5.296  -5.120   2.874  0.00  0.00    +0.140 HD
ENDBRANCH  11  13
ENDBRANCH   9  11
ENDBRANCH   1   4
BRANCH   1  16
ATOM     16  N   UNL     1       1.484  -2.542   2.546  0.00  0.00    -0.189 NA
ATOM     17  H   UNL     1       2.252  -2.098   2.940  0.00  0.00    +0.148 HD
BRANCH  16  23
ATOM     18  C   UNL     1      -0.593   1.174   0.236  0.00  0.00    -0.096 C 
ATOM     19  N   UNL     1      -0.055  -0.186   0.091  0.00  0.00    +0.379 N 
ATOM     20  C   UNL     1       1.018  -0.182  -0.911  0.00  0.00    -0.079 C 
ATOM     21  C   UNL     1       1.526  -1.609  -1.125  0.00  0.00    -0.017 C 
ATOM     22  C   UNL     1       2.064  -2.158   0.200  0.00  0.00    +0.017 C 
ATOM     23  C   UNL     1       0.958  -2.088   1.257  0.00  0.00    +0.060 C 
ATOM     24  C   UNL     1       0.471  -0.643   1.383  0.00  0.00    -0.059 C 
ATOM     25  H   UNL     1      -0.791  -0.807  -0.210  0.00  0.00    -0.082 HD
ENDBRANCH  16  23
ENDBRANCH   1  16
TORSDOF 5
