REMARK  Name = ZINC08863609
REMARK  8 active torsions:
REMARK  status: ('A' for Active; 'I' for Inactive)
REMARK    1  A    between atoms: C_1  and  O_2
REMARK    2  A    between atoms: O_2  and  C_3
REMARK    3  A    between atoms: C_9  and  C_13
REMARK    4  A    between atoms: C_13  and  C_15
REMARK    5  A    between atoms: C_13  and  O_28
REMARK    6  A    between atoms: C_23  and  C_26
REMARK    7  A    between atoms: O_28  and  C_29
REMARK    8  A    between atoms: C_29  and  C_31
REMARK                            x       y       z     vdW  Elec       q    Type
REMARK                         _______ _______ _______ _____ _____    ______ ____
ROOT
ATOM      1  C   UNL     1      -1.320   2.160   0.020  0.00  0.00    +0.194 C 
ENDROOT
BRANCH   1   8
ATOM      2  C   UNL     1      -0.325  -1.997  -0.180  0.00  0.00    +0.121 A 
ATOM      3  C   UNL     1       1.009  -2.417  -0.155  0.00  0.00    +0.048 A 
ATOM      4  C   UNL     1       2.024  -1.517  -0.064  0.00  0.00    +0.032 A 
ATOM      5  C   UNL     1       1.737  -0.142   0.006  0.00  0.00    +0.072 A 
ATOM      6  C   UNL     1       0.385   0.283  -0.020  0.00  0.00    +0.010 A 
ATOM      7  C   UNL     1      -0.641  -0.670  -0.115  0.00  0.00    +0.056 A 
ATOM      8  C   UNL     1       0.101   1.660   0.051  0.00  0.00    +0.002 A 
ATOM      9  C   UNL     1       1.150   2.530   0.141  0.00  0.00    +0.027 A 
ATOM     10  C   UNL     1       2.456   2.046   0.161  0.00  0.00    +0.112 A 
ATOM     11  N   UNL     1       2.716   0.763   0.096  0.00  0.00    -0.255 NA
BRANCH   2  13
ATOM     12  C   UNL     1      -0.924  -4.293  -0.336  0.00  0.00    +0.277 C 
ATOM     13  O   UNL     1      -1.318  -2.921  -0.271  0.00  0.00    -0.495 OA
ENDBRANCH   2  13
ENDBRANCH   1   8
BRANCH   1  14
ATOM     14  C   UNL     1      -1.880   2.192   1.444  0.00  0.00    -0.023 C 
ATOM     15  C   UNL     1      -2.471   0.849   1.887  0.00  0.00    -0.023 C 
ATOM     16  C   UNL     1      -3.666   1.672   2.358  0.00  0.00    -0.062 C 
ATOM     17  C   UNL     1      -3.986   2.731   0.276  0.00  0.00    -0.077 C 
ATOM     18  C   UNL     1      -5.411   2.400   0.810  0.00  0.00    -0.016 C 
ATOM     19  C   UNL     1      -5.108   1.356   1.904  0.00  0.00    -0.017 C 
ATOM     20  C   UNL     1      -5.601   1.687   3.306  0.00  0.00    +0.012 C 
ATOM     21  C   UNL     1      -4.153   1.833   3.789  0.00  0.00    -0.004 C 
ATOM     22  N   UNL     1      -3.194   2.678   1.569  0.00  0.00    +0.388 N 
ATOM     23  H   UNL     1      -3.220   3.598   2.024  0.00  0.00    -0.080 HD
BRANCH  20  24
ATOM     24  C   UNL     1      -6.377   2.977   3.370  0.00  0.00    -0.031 C 
ATOM     25  C   UNL     1      -7.621   2.973   3.779  0.00  0.00    +0.004 C 
ENDBRANCH  20  24
ENDBRANCH   1  14
BRANCH   1  26
ATOM     26  O   UNL     1      -1.350   3.499  -0.542  0.00  0.00    -0.458 OA
BRANCH  26  27
ATOM     27  C   UNL     1      -1.502   3.598  -1.872  0.00  0.00    +0.314 C 
ATOM     28  O   UNL     1      -1.607   2.600  -2.544  0.00  0.00    -0.250 OA
BRANCH  27  29
ATOM     29  C   UNL     1      -1.542   4.955  -2.526  0.00  0.00    +0.069 C 
ATOM     30  C   UNL     1      -2.713   5.760  -1.959  0.00  0.00    +0.021 C 
ATOM     31  C   UNL     1      -2.754   7.138  -2.624  0.00  0.00    -0.009 C 
ATOM     32  C   UNL     1      -2.934   6.970  -4.134  0.00  0.00    +0.007 C 
ATOM     33  C   UNL     1      -1.763   6.165  -4.701  0.00  0.00    -0.009 C 
ATOM     34  C   UNL     1      -1.722   4.787  -4.037  0.00  0.00    +0.021 C 
ATOM     35  C   UNL     1      -0.453   6.905  -4.422  0.00  0.00    +0.007 C 
ATOM     36  C   UNL     1      -0.273   7.072  -2.912  0.00  0.00    -0.009 C 
ATOM     37  C   UNL     1      -1.444   7.877  -2.345  0.00  0.00    +0.007 C 
ATOM     38  C   UNL     1      -0.233   5.695  -2.248  0.00  0.00    +0.021 C 
ENDBRANCH  27  29
ENDBRANCH  26  27
ENDBRANCH   1  26
TORSDOF 7
