REMARK  Name = ZINC49946773
REMARK  9 active torsions:
REMARK  status: ('A' for Active; 'I' for Inactive)
REMARK    1  A    between atoms: C_1  and  C_2
REMARK    2  A    between atoms: C_8  and  O_36
REMARK    3  A    between atoms: C_12  and  O_35
REMARK    4  A    between atoms: C_13  and  O_34
REMARK    5  A    between atoms: C_16  and  O_20
REMARK    6  A    between atoms: C_21  and  N_31
REMARK    7  A    between atoms: C_24  and  C_27
REMARK    8  A    between atoms: N_31  and  C_32
REMARK    9  A    between atoms: N_31  and  C_33
REMARK                            x       y       z     vdW  Elec       q    Type
REMARK                         _______ _______ _______ _____ _____    ______ ____
ROOT
ATOM      1  C   UNL     1       0.379   2.294   0.204  0.00  0.00    +0.013 C 
ATOM      2  C   UNL     1       0.229   0.792   0.455  0.00  0.00    +0.026 C 
ATOM      3  C   UNL     1      -1.226   0.471   0.672  0.00  0.00    -0.037 A 
ATOM      4  C   UNL     1      -2.147   1.149  -0.122  0.00  0.00    +0.004 A 
ATOM      5  C   UNL     1      -3.499   0.908   0.000  0.00  0.00    +0.004 A 
ATOM      6  C   UNL     1      -3.952  -0.019   0.919  0.00  0.00    +0.046 A 
ATOM      7  C   UNL     1      -3.042  -0.692   1.716  0.00  0.00    +0.121 A 
ATOM      8  C   UNL     1      -1.675  -0.441   1.597  0.00  0.00    +0.002 A 
ATOM      9  C   UNL     1      -0.753  -1.190   2.526  0.00  0.00    +0.073 C 
ATOM     10  C   UNL     1       0.681  -0.994   2.075  0.00  0.00    -0.019 C 
ATOM     11  C   UNL     1       1.490  -2.019   2.059  0.00  0.00    +0.133 C 
ATOM     12  C   UNL     1       2.925  -1.912   1.631  0.00  0.00    +0.189 C 
ATOM     13  C   UNL     1       3.054  -0.739   0.645  0.00  0.00    +0.059 C 
ATOM     14  C   UNL     1       2.549   0.524   1.337  0.00  0.00    +0.128 C 
ATOM     15  C   UNL     1       1.069   0.401   1.670  0.00  0.00    +0.055 C 
ATOM     16  C   UNL     1       4.521  -0.588   0.245  0.00  0.00    +0.013 C 
ATOM     17  C   UNL     1       5.067  -1.885  -0.278  0.00  0.00    +0.159 C 
ATOM     18  C   UNL     1       4.504  -3.101   0.024  0.00  0.00    +0.123 C 
ATOM     19  C   UNL     1       3.332  -3.167   0.888  0.00  0.00    +0.211 C 
ATOM     20  O   UNL     1       2.696  -4.195   0.990  0.00  0.00    -0.288 OA
ATOM     21  O   UNL     1       6.149  -1.855  -1.071  0.00  0.00    -0.293 OA
ENDROOT
BRANCH  18  22
ATOM     22  C   UNL     1       5.092  -4.337  -0.516  0.00  0.00    +0.248 C 
ATOM     23  O   UNL     1       6.113  -4.288  -1.175  0.00  0.00    -0.270 OA
ATOM     24  N   UNL     1       4.499  -5.524  -0.281  0.00  0.00    -0.325 N 
ATOM     25  H   UNL     1       3.724  -5.573   0.302  0.00  0.00    +0.145 HD
ATOM     26  H   UNL     1       4.846  -6.330  -0.694  0.00  0.00    +0.145 HD
ENDBRANCH  18  22
BRANCH  16  27
ATOM     27  N   UNL     1       4.634   0.439  -0.799  0.00  0.00    +0.383 N 
ATOM     28  C   UNL     1       6.052   0.719  -1.059  0.00  0.00    -0.096 C 
ATOM     29  C   UNL     1       3.995  -0.043  -2.031  0.00  0.00    -0.096 C 
ATOM     30  H   UNL     1       4.175   1.284  -0.491  0.00  0.00    -0.082 HD
ENDBRANCH  16  27
BRANCH  14  31
ATOM     31  O   UNL     1       3.286   0.726   2.545  0.00  0.00    -0.391 OA
ATOM     32  H   UNL     1       3.020   1.512   3.041  0.00  0.00    +0.210 HD
ENDBRANCH  14  31
BRANCH  12  33
ATOM     33  O   UNL     1       3.766  -1.717   2.769  0.00  0.00    -0.373 OA
ATOM     34  H   UNL     1       3.722  -2.433   3.418  0.00  0.00    +0.211 HD
ENDBRANCH  12  33
BRANCH  11  35
ATOM     35  O   UNL     1       1.014  -3.230   2.445  0.00  0.00    -0.508 OA
ATOM     36  H   UNL     1       1.181  -3.440   3.374  0.00  0.00    +0.292 HD
ENDBRANCH  11  35
BRANCH   7  37
ATOM     37  O   UNL     1      -3.484  -1.604   2.622  0.00  0.00    -0.506 OA
ATOM     38  H   UNL     1      -3.549  -2.504   2.274  0.00  0.00    +0.292 HD
ENDBRANCH   7  37
TORSDOF 6
