REMARK  Name = ZINC05460894
REMARK  12 active torsions:
REMARK  status: ('A' for Active; 'I' for Inactive)
REMARK    1  A    between atoms: C_1  and  C_2
REMARK    2  A    between atoms: C_5  and  O_8
REMARK    3  A    between atoms: O_8  and  C_9
REMARK    4  A    between atoms: C_9  and  C_10
REMARK    5  A    between atoms: C_10  and  C_12
REMARK    6  A    between atoms: C_10  and  O_30
REMARK    7  A    between atoms: C_12  and  N_13
REMARK    8  A    between atoms: N_21  and  C_29
REMARK    9  A    between atoms: N_25  and  C_26
REMARK   10  A    between atoms: C_26  and  C_27
REMARK   11  A    between atoms: C_27  and  C_28
REMARK   12  A    between atoms: C_28  and  N_55
REMARK                            x       y       z     vdW  Elec       q    Type
REMARK                         _______ _______ _______ _____ _____    ______ ____
ROOT
ATOM      1  N   UNL     1      -2.439   1.053   0.019  0.00  0.00    -0.304 N 
ATOM      2  C   UNL     1      -3.372   2.081   0.030  0.00  0.00    +0.153 A 
ATOM      3  C   UNL     1      -4.777   2.136   0.037  0.00  0.00    +0.280 A 
ATOM      4  O   UNL     1      -5.433   1.108   0.034  0.00  0.00    -0.265 OA
ATOM      5  N   UNL     1      -5.391   3.337   0.047  0.00  0.00    -0.273 N 
ATOM      6  H   UNL     1      -6.390   3.379   0.052  0.00  0.00    +0.173 HD
ATOM      7  C   UNL     1      -4.681   4.478   0.051  0.00  0.00    +0.331 A 
ATOM      8  O   UNL     1      -5.268   5.542   0.060  0.00  0.00    -0.246 OA
ATOM      9  N   UNL     1      -3.334   4.471   0.043  0.00  0.00    -0.280 N 
ATOM     10  C   UNL     1      -2.647   3.268   0.033  0.00  0.00    +0.170 A 
ATOM     11  N   UNL     1      -1.351   2.948   0.030  0.00  0.00    -0.196 NA
ATOM     12  C   UNL     1      -1.212   1.637   0.017  0.00  0.00    +0.198 A 
ATOM     13  N   UNL     1      -0.011   0.966   0.007  0.00  0.00    -0.315 N 
ATOM     14  C   UNL     1      -2.596   5.736   0.047  0.00  0.00    +0.155 C 
ATOM     15  H   UNL     1       0.002  -0.004   0.002  0.00  0.00    +0.149 HD
ENDROOT
BRANCH   1  16
ATOM     16  C   UNL     1      -2.723  -0.384   0.013  0.00  0.00    +0.160 C 
BRANCH  16  17
ATOM     17  C   UNL     1      -2.814  -0.893   1.453  0.00  0.00    +0.172 C 
BRANCH  17  18
ATOM     18  O   UNL     1      -3.935  -0.289   2.101  0.00  0.00    -0.387 OA
ATOM     19  H   UNL     1      -4.784  -0.479   1.677  0.00  0.00    +0.210 HD
ENDBRANCH  17  18
BRANCH  17  20
ATOM     20  C   UNL     1      -2.986  -2.413   1.447  0.00  0.00    +0.262 C 
BRANCH  20  21
ATOM     21  O   UNL     1      -2.954  -2.901   2.790  0.00  0.00    -0.489 OA
BRANCH  21  26
ATOM     22  C   UNL     1      -3.534  -8.458   3.506  0.00  0.00    +0.044 C 
ATOM     23  C   UNL     1      -3.379  -6.971   3.314  0.00  0.00    -0.050 A 
ATOM     24  C   UNL     1      -3.215  -6.147   4.412  0.00  0.00    +0.007 A 
ATOM     25  C   UNL     1      -3.073  -4.784   4.240  0.00  0.00    +0.046 A 
ATOM     26  C   UNL     1      -3.094  -4.242   2.963  0.00  0.00    +0.121 A 
ATOM     27  C   UNL     1      -3.264  -5.070   1.863  0.00  0.00    +0.046 A 
ATOM     28  C   UNL     1      -3.400  -6.433   2.041  0.00  0.00    +0.007 A 
ENDBRANCH  21  26
ENDBRANCH  20  21
ENDBRANCH  17  20
ENDBRANCH  16  17
ENDBRANCH   1  16
BRANCH  13  29
ATOM     29  C   UNL     1       1.248   1.716  -0.001  0.00  0.00    +0.102 C 
BRANCH  29  30
ATOM     30  C   UNL     1       2.424   0.737  -0.017  0.00  0.00    -0.001 C 
BRANCH  30  31
ATOM     31  C   UNL     1       3.738   1.520  -0.025  0.00  0.00    -0.085 C 
BRANCH  31  34
ATOM     32  H   UNL     1       4.802  -0.051  -0.826  0.00  0.00    -0.090 HD
ATOM     33  H   UNL     1       5.748   1.074  -0.047  0.00  0.00    -0.090 HD
ATOM     34  N   UNL     1       4.864   0.569  -0.019  0.00  0.00    +0.378 N 
ATOM     35  H   UNL     1       4.826   0.007   0.839  0.00  0.00    -0.090 HD
ENDBRANCH  31  34
ENDBRANCH  30  31
ENDBRANCH  29  30
ENDBRANCH  13  29
TORSDOF 10
