REMARK  Name = ZINC09681938
REMARK  8 active torsions:
REMARK  status: ('A' for Active; 'I' for Inactive)
REMARK    1  A    between atoms: C_1  and  N_2
REMARK    2  A    between atoms: N_13  and  C_31
REMARK    3  A    between atoms: C_15  and  C_16
REMARK    4  A    between atoms: N_18  and  C_19
REMARK    5  A    between atoms: C_24  and  N_25
REMARK    6  A    between atoms: C_30  and  N_69
REMARK    7  A    between atoms: C_34  and  O_37
REMARK    8  A    between atoms: O_37  and  C_38
REMARK                            x       y       z     vdW  Elec       q    Type
REMARK                         _______ _______ _______ _____ _____    ______ ____
ROOT
ATOM      1  C   UNL     1       0.883  -6.252  -7.582  0.00  0.00    +0.149 C 
ATOM      2  N   UNL     1       0.087  -5.378  -6.715  0.00  0.00    -0.339 N 
ATOM      3  C   UNL     1      -1.282  -5.454  -6.561  0.00  0.00    +0.050 A 
ATOM      4  C   UNL     1      -2.247  -6.291  -7.115  0.00  0.00    +0.026 A 
ATOM      5  C   UNL     1      -3.571  -6.134  -6.772  0.00  0.00    +0.002 A 
ATOM      6  C   UNL     1      -3.957  -5.147  -5.875  0.00  0.00    +0.001 A 
ATOM      7  C   UNL     1      -3.027  -4.315  -5.320  0.00  0.00    +0.011 A 
ATOM      8  C   UNL     1      -1.678  -4.455  -5.653  0.00  0.00    +0.010 A 
ATOM      9  C   UNL     1      -0.456  -3.754  -5.255  0.00  0.00    +0.045 A 
ATOM     10  C   UNL     1       0.597  -4.364  -5.939  0.00  0.00    +0.119 A 
ATOM     11  C   UNL     1       1.897  -3.853  -5.714  0.00  0.00    +0.296 A 
ATOM     12  O   UNL     1       2.856  -4.347  -6.284  0.00  0.00    -0.264 OA
ATOM     13  N   UNL     1       2.072  -2.821  -4.869  0.00  0.00    -0.194 N 
ATOM     14  N   UNL     1       1.111  -2.252  -4.242  0.00  0.00    -0.158 NA
ATOM     15  C   UNL     1      -0.142  -2.638  -4.362  0.00  0.00    +0.156 A 
ENDROOT
BRANCH  13  16
ATOM     16  C   UNL     1       3.371  -2.340  -4.670  0.00  0.00    +0.070 A 
ATOM     17  C   UNL     1       4.406  -3.225  -4.397  0.00  0.00    +0.031 A 
ATOM     18  C   UNL     1       5.688  -2.750  -4.204  0.00  0.00    +0.048 A 
ATOM     19  C   UNL     1       5.940  -1.388  -4.274  0.00  0.00    +0.120 A 
ATOM     20  C   UNL     1       4.906  -0.502  -4.542  0.00  0.00    +0.048 A 
ATOM     21  C   UNL     1       3.625  -0.976  -4.739  0.00  0.00    +0.031 A 
BRANCH  19  22
ATOM     22  O   UNL     1       7.202  -0.920  -4.080  0.00  0.00    -0.495 OA
ATOM     23  C   UNL     1       8.218  -1.888  -3.809  0.00  0.00    +0.277 C 
ENDBRANCH  19  22
ENDBRANCH  13  16
BRANCH  15  24
ATOM     24  C   UNL     1      -1.214  -1.952  -3.612  0.00  0.00    +0.269 C 
ATOM     25  O   UNL     1      -2.348  -2.392  -3.632  0.00  0.00    -0.268 OA
ATOM     26  N   UNL     1      -0.936  -0.839  -2.905  0.00  0.00    -0.279 N 
ATOM     27  H   UNL     1      -0.046  -0.454  -2.937  0.00  0.00    +0.155 HD
BRANCH  26  28
ATOM     28  C   UNL     1      -1.931  -0.238  -2.124  0.00  0.00    +0.055 A 
ATOM     29  C   UNL     1      -3.265  -0.357  -2.485  0.00  0.00    +0.025 A 
ATOM     30  C   UNL     1      -4.246   0.236  -1.712  0.00  0.00    +0.002 A 
ATOM     31  C   UNL     1      -3.902   0.949  -0.578  0.00  0.00    +0.002 A 
ATOM     32  C   UNL     1      -2.576   1.069  -0.208  0.00  0.00    +0.025 A 
ATOM     33  C   UNL     1      -1.584   0.481  -0.980  0.00  0.00    +0.051 A 
BRANCH  33  34
ATOM     34  N   UNL     1      -0.241   0.605  -0.610  0.00  0.00    -0.332 N 
ATOM     35  C   UNL     1       0.168   2.016  -0.576  0.00  0.00    +0.086 C 
ATOM     36  C   UNL     1       1.660   2.103  -0.245  0.00  0.00    -0.060 C 
ATOM     37  C   UNL     1       1.502   0.043   1.014  0.00  0.00    -0.060 C 
ATOM     38  C   UNL     1       0.011  -0.045   0.684  0.00  0.00    +0.086 C 
ATOM     39  C   UNL     1       3.322   1.583   1.438  0.00  0.00    -0.096 C 
ATOM     40  N   UNL     1       1.896   1.466   1.067  0.00  0.00    +0.380 N 
ATOM     41  H   UNL     1       1.327   1.944   1.777  0.00  0.00    -0.082 HD
ENDBRANCH  33  34
ENDBRANCH  26  28
ENDBRANCH  15  24
TORSDOF 5
