REMARK  Name = ZINC35300908
REMARK  11 active torsions:
REMARK  status: ('A' for Active; 'I' for Inactive)
REMARK    1  A    between atoms: C_1  and  C_2
REMARK    2  A    between atoms: C_2  and  C_3
REMARK    3  A    between atoms: C_3  and  C_5
REMARK    4  A    between atoms: C_3  and  C_6
REMARK    5  A    between atoms: C_6  and  C_8
REMARK    6  A    between atoms: C_6  and  N_25
REMARK    7  A    between atoms: C_14  and  C_16
REMARK    8  A    between atoms: C_19  and  N_22
REMARK    9  A    between atoms: N_22  and  C_23
REMARK   10  A    between atoms: N_22  and  C_24
REMARK   11  A    between atoms: N_28  and  C_29
REMARK                            x       y       z     vdW  Elec       q    Type
REMARK                         _______ _______ _______ _____ _____    ______ ____
ROOT
ATOM      1  C   UNL     1      -0.336  -0.451  -2.353  0.00  0.00    +0.163 C 
ENDROOT
BRANCH   1   2
ATOM      2  C   UNL     1       0.088  -0.988  -3.695  0.00  0.00    +0.239 C 
ATOM      3  O   UNL     1       0.281  -0.227  -4.620  0.00  0.00    -0.273 OA
ATOM      4  N   UNL     1       0.252  -2.315  -3.868  0.00  0.00    -0.262 N 
ATOM      5  C   UNL     1       0.743  -2.803  -5.074  0.00  0.00    +0.188 A 
ATOM      6  N   UNL     1       1.113  -2.152  -6.169  0.00  0.00    -0.125 NA
ATOM      7  N   UNL     1       1.542  -2.755  -7.190  0.00  0.00    -0.140 NA
ATOM      8  C   UNL     1       1.648  -4.078  -7.230  0.00  0.00    +0.134 A 
ATOM      9  S   UNL     1       1.063  -4.487  -5.588  0.00  0.00    -0.030 S 
ATOM     10  H   UNL     1       0.028  -2.929  -3.152  0.00  0.00    +0.157 HD
BRANCH   8  11
ATOM     11  C   UNL     1       2.121  -4.961  -8.317  0.00  0.00    +0.009 A 
ATOM     12  C   UNL     1       2.141  -6.345  -8.135  0.00  0.00    +0.012 A 
ATOM     13  C   UNL     1       2.582  -7.165  -9.151  0.00  0.00    +0.024 A 
ATOM     14  C   UNL     1       3.008  -6.616 -10.355  0.00  0.00    +0.029 A 
ATOM     15  C   UNL     1       2.989  -5.238 -10.539  0.00  0.00    +0.024 A 
ATOM     16  C   UNL     1       2.543  -4.412  -9.530  0.00  0.00    +0.012 A 
BRANCH  14  17
ATOM     17  N   UNL     1       3.454  -7.449 -11.382  0.00  0.00    -0.336 N 
ATOM     18  C   UNL     1       3.364  -8.904 -11.235  0.00  0.00    +0.129 C 
ATOM     19  C   UNL     1       4.013  -6.869 -12.605  0.00  0.00    +0.129 C 
ENDBRANCH  14  17
ENDBRANCH   8  11
ENDBRANCH   1   2
BRANCH   1  20
ATOM     20  N   UNL     1      -0.467   1.007  -2.430  0.00  0.00    -0.288 N 
ATOM     21  C   UNL     1      -1.435   1.634  -1.732  0.00  0.00    +0.304 C 
ATOM     22  O   UNL     1      -2.142   1.003  -0.970  0.00  0.00    -0.252 OA
ATOM     23  N   UNL     1      -1.619   2.961  -1.878  0.00  0.00    -0.269 N 
ATOM     24  H   UNL     1       0.142   1.520  -2.983  0.00  0.00    +0.151 HD
ATOM     25  H   UNL     1      -1.102   3.453  -2.536  0.00  0.00    +0.156 HD
BRANCH  23  26
ATOM     26  C   UNL     1      -2.552   3.628  -1.083  0.00  0.00    +0.042 A 
ATOM     27  C   UNL     1      -3.709   2.993  -0.687  0.00  0.00    +0.024 A 
ATOM     28  C   UNL     1      -4.646   3.649   0.106  0.00  0.00    +0.002 A 
ATOM     29  C   UNL     1      -4.448   4.934   0.511  0.00  0.00    +0.008 A 
ATOM     30  C   UNL     1      -3.281   5.618   0.129  0.00  0.00    -0.016 A 
ATOM     31  C   UNL     1      -2.317   4.958  -0.673  0.00  0.00    +0.003 A 
ATOM     32  C   UNL     1      -1.149   5.641  -1.049  0.00  0.00    +0.010 A 
ATOM     33  C   UNL     1      -0.956   6.923  -0.635  0.00  0.00    +0.001 A 
ATOM     34  C   UNL     1      -1.900   7.571   0.159  0.00  0.00    +0.001 A 
ATOM     35  C   UNL     1      -3.049   6.944   0.532  0.00  0.00    +0.008 A 
ENDBRANCH  23  26
ENDBRANCH   1  20
BRANCH   1  36
ATOM     36  C   UNL     1       0.716  -0.813  -1.303  0.00  0.00    +0.015 C 
ATOM     37  C   UNL     1       0.200  -0.436   0.087  0.00  0.00    +0.010 C 
BRANCH  36  39
ATOM     38  C   UNL     1       2.616  -0.550  -2.903  0.00  0.00    +0.004 C 
ATOM     39  C   UNL     1       2.009  -0.049  -1.591  0.00  0.00    +0.002 C 
ENDBRANCH  36  39
ENDBRANCH   1  36
TORSDOF 7
