REMARK  Name = ZINC33416009
REMARK  15 active torsions:
REMARK  status: ('A' for Active; 'I' for Inactive)
REMARK    1  A    between atoms: C_2  and  C_3
REMARK    2  A    between atoms: C_3  and  O_4
REMARK    3  A    between atoms: O_4  and  C_5
REMARK    4  A    between atoms: N_7  and  C_8
REMARK    5  A    between atoms: C_10  and  O_39
REMARK    6  A    between atoms: C_12  and  O_22
REMARK    7  A    between atoms: C_14  and  C_20
REMARK    8  A    between atoms: C_17  and  O_19
REMARK    9  A    between atoms: C_20  and  O_21
REMARK   10  A    between atoms: O_22  and  C_23
REMARK   11  A    between atoms: C_25  and  O_38
REMARK   12  A    between atoms: C_27  and  O_37
REMARK   13  A    between atoms: C_29  and  O_36
REMARK   14  A    between atoms: C_31  and  C_34
REMARK   15  A    between atoms: C_34  and  O_35
REMARK                            x       y       z     vdW  Elec       q    Type
REMARK                         _______ _______ _______ _____ _____    ______ ____
ROOT
ATOM      1  C   UNL     1      -1.060   7.512  -3.784  0.00  0.00    +0.163 C 
ATOM      2  C   UNL     1      -0.691   6.886  -2.435  0.00  0.00    +0.171 C 
ATOM      3  C   UNL     1      -0.073   5.506  -2.677  0.00  0.00    +0.183 C 
ATOM      4  C   UNL     1       1.139   5.651  -3.601  0.00  0.00    +0.178 C 
ATOM      5  O   UNL     1       0.732   6.268  -4.824  0.00  0.00    -0.341 OA
ATOM      6  C   UNL     1       0.190   7.581  -4.665  0.00  0.00    +0.271 C 
ENDROOT
BRANCH   1   9
ATOM      7  C   UNL     1      -2.911   7.244  -5.345  0.00  0.00    +0.401 C 
ATOM      8  O   UNL     1      -2.817   8.425  -5.613  0.00  0.00    -0.226 OA
ATOM      9  N   UNL     1      -2.078   6.690  -4.442  0.00  0.00    -0.271 N 
ATOM     10  H   UNL     1      -2.163   5.620  -4.199  0.00  0.00    +0.153 HD
BRANCH   7  11
ATOM     11  O   UNL     1      -3.847   6.488  -5.950  0.00  0.00    -0.446 OA
BRANCH  11  12
ATOM     12  C   UNL     1      -4.709   7.152  -6.912  0.00  0.00    +0.261 C 
BRANCH  12  14
ATOM     13  C   UNL     1      -6.951   6.473  -7.600  0.00  0.00    +0.007 C 
ATOM     14  C   UNL     1      -5.686   6.156  -7.482  0.00  0.00    +0.006 C 
ENDBRANCH  12  14
ENDBRANCH  11  12
ENDBRANCH   7  11
ENDBRANCH   1   9
BRANCH   6  15
ATOM     15  O   UNL     1      -0.158   8.112  -5.945  0.00  0.00    -0.365 OA
ATOM     16  H   UNL     1       0.615   8.236  -6.717  0.00  0.00    +0.213 HD
ENDBRANCH   6  15
BRANCH   2  17
ATOM     17  O   UNL     1      -1.865   6.751  -1.631  0.00  0.00    -0.387 OA
ATOM     18  H   UNL     1      -1.794   6.318  -0.623  0.00  0.00    +0.210 HD
ENDBRANCH   2  17
BRANCH   4  19
ATOM     19  C   UNL     1       1.724   4.268  -3.896  0.00  0.00    +0.190 C 
BRANCH  19  20
ATOM     20  O   UNL     1       2.925   4.412  -4.658  0.00  0.00    -0.392 OA
ATOM     21  H   UNL     1       3.490   3.520  -4.966  0.00  0.00    +0.210 HD
ENDBRANCH  19  20
ENDBRANCH   4  19
BRANCH   3  22
ATOM     22  O   UNL     1       0.342   4.943  -1.431  0.00  0.00    -0.340 OA
BRANCH  22  23
ATOM     23  C   UNL     1       0.072   3.546  -1.305  0.00  0.00    +0.282 C 
ATOM     24  C   UNL     1       0.785   2.997  -0.067  0.00  0.00    +0.201 C 
ATOM     25  C   UNL     1       0.442   1.512   0.095  0.00  0.00    +0.179 C 
ATOM     26  C   UNL     1      -1.079   1.358   0.184  0.00  0.00    +0.177 C 
ATOM     27  C   UNL     1      -1.721   1.970  -1.063  0.00  0.00    +0.178 C 
ATOM     28  O   UNL     1      -1.337   3.343  -1.171  0.00  0.00    -0.341 OA
BRANCH  26  29
ATOM     29  O   UNL     1      -1.560   2.032   1.349  0.00  0.00    -0.386 OA
ATOM     30  H   UNL     1      -2.635   2.031   1.582  0.00  0.00    +0.210 HD
ENDBRANCH  26  29
BRANCH  25  31
ATOM     31  O   UNL     1       1.045   1.010   1.289  0.00  0.00    -0.386 OA
ATOM     32  H   UNL     1       0.908  -0.044   1.572  0.00  0.00    +0.210 HD
ENDBRANCH  25  31
BRANCH  24  33
ATOM     33  O   UNL     1       0.354   3.715   1.091  0.00  0.00    -0.384 OA
ATOM     34  H   UNL     1       0.761   3.459   2.080  0.00  0.00    +0.210 HD
ENDBRANCH  24  33
BRANCH  27  35
ATOM     35  C   UNL     1      -3.244   1.874  -0.954  0.00  0.00    +0.190 C 
BRANCH  35  36
ATOM     36  O   UNL     1      -3.839   2.339  -2.167  0.00  0.00    -0.392 OA
ATOM     37  H   UNL     1      -4.934   2.344  -2.275  0.00  0.00    +0.210 HD
ENDBRANCH  35  36
ENDBRANCH  27  35
ENDBRANCH  22  23
ENDBRANCH   3  22
TORSDOF 15
