REMARK  Name = ZINC41648783
REMARK  11 active torsions:
REMARK  status: ('A' for Active; 'I' for Inactive)
REMARK    1  A    between atoms: C_1  and  N_2
REMARK    2  A    between atoms: N_2  and  C_3
REMARK    3  A    between atoms: N_2  and  C_4
REMARK    4  A    between atoms: C_4  and  C_6
REMARK    5  A    between atoms: C_4  and  C_24
REMARK    6  A    between atoms: C_6  and  N_7
REMARK    7  A    between atoms: C_8  and  C_10
REMARK    8  A    between atoms: N_12  and  C_13
REMARK    9  A    between atoms: C_16  and  O_19
REMARK   10  A    between atoms: O_19  and  C_20
REMARK   11  A    between atoms: C_20  and  C_21
REMARK                            x       y       z     vdW  Elec       q    Type
REMARK                         _______ _______ _______ _____ _____    ______ ____
ROOT
ATOM      1  C   UNL     1       0.770  -4.704   2.031  0.00  0.00    +0.303 C 
ATOM      2  O   UNL     1       1.268  -3.969   2.859  0.00  0.00    -0.265 OA
ATOM      3  N   UNL     1       0.977  -6.034   2.099  0.00  0.00    -0.278 N 
ATOM      4  H   UNL     1       0.650  -6.613   1.393  0.00  0.00    +0.155 HD
ENDROOT
BRANCH   3   5
ATOM      5  C   UNL     1       1.663  -6.580   3.189  0.00  0.00    +0.034 A 
ATOM      6  C   UNL     1       1.516  -6.023   4.453  0.00  0.00    +0.027 A 
ATOM      7  C   UNL     1       2.193  -6.563   5.528  0.00  0.00    +0.047 A 
ATOM      8  C   UNL     1       3.021  -7.662   5.346  0.00  0.00    +0.121 A 
ATOM      9  C   UNL     1       3.169  -8.219   4.084  0.00  0.00    +0.047 A 
ATOM     10  C   UNL     1       2.488  -7.684   3.009  0.00  0.00    +0.027 A 
BRANCH   8  11
ATOM     11  O   UNL     1       3.688  -8.193   6.405  0.00  0.00    -0.483 OA
BRANCH  11  12
ATOM     12  C   UNL     1       4.522  -9.323   6.146  0.00  0.00    +0.324 C 
BRANCH  12  13
ATOM     13  C   UNL     1       5.175  -9.771   7.428  0.00  0.00    +0.248 C 
ATOM     14  O   UNL     1       4.947  -9.180   8.463  0.00  0.00    -0.272 OA
ATOM     15  N   UNL     1       6.011 -10.828   7.426  0.00  0.00    -0.327 N 
ATOM     16  H   UNL     1       6.193 -11.301   6.598  0.00  0.00    +0.145 HD
ATOM     17  H   UNL     1       6.431 -11.116   8.251  0.00  0.00    +0.145 HD
ENDBRANCH  12  13
ENDBRANCH  11  12
ENDBRANCH   8  11
ENDBRANCH   3   5
BRANCH   1  19
ATOM     18  N   UNL     1      -0.279  -2.804   0.869  0.00  0.00    -0.309 N 
ATOM     19  C   UNL     1      -0.072  -4.135   0.937  0.00  0.00    +0.299 C 
ATOM     20  O   UNL     1      -0.570  -4.869   0.110  0.00  0.00    -0.265 OA
ATOM     21  H   UNL     1       0.119  -2.217   1.530  0.00  0.00    +0.149 HD
BRANCH  18  22
ATOM     22  C   UNL     1      -1.105  -2.246  -0.204  0.00  0.00    +0.094 C 
BRANCH  22  23
ATOM     23  C   UNL     1      -1.282  -0.743   0.019  0.00  0.00    -0.020 C 
BRANCH  23  24
ATOM     24  C   UNL     1      -1.985  -0.509   1.332  0.00  0.00    -0.052 A 
ATOM     25  C   UNL     1      -1.268  -0.150   2.458  0.00  0.00    +0.009 A 
ATOM     26  C   UNL     1      -1.931   0.052   3.622  0.00  0.00    +0.045 A 
ATOM     27  S   UNL     1      -3.621  -0.267   3.146  0.00  0.00    -0.105 S 
ATOM     28  C   UNL     1      -3.331  -0.643   1.425  0.00  0.00    +0.047 A 
ENDBRANCH  23  24
BRANCH  23  30
ATOM     29  C   UNL     1      -2.169   1.281  -0.915  0.00  0.00    -0.096 C 
ATOM     30  N   UNL     1      -2.085  -0.177  -1.073  0.00  0.00    +0.382 N 
ATOM     31  C   UNL     1      -1.452  -0.494  -2.361  0.00  0.00    -0.096 C 
ATOM     32  H   UNL     1      -3.013  -0.572  -1.048  0.00  0.00    -0.082 HD
ENDBRANCH  23  30
ENDBRANCH  22  23
ENDBRANCH  18  22
ENDBRANCH   1  19
TORSDOF 9
