REMARK  Name = ZINC44166584
REMARK  7 active torsions:
REMARK  status: ('A' for Active; 'I' for Inactive)
REMARK    1  A    between atoms: C_1  and  C_2
REMARK    2  A    between atoms: C_2  and  C_4
REMARK    3  A    between atoms: C_2  and  N_14
REMARK    4  A    between atoms: C_15  and  C_17
REMARK    5  A    between atoms: C_22  and  C_25
REMARK    6  A    between atoms: C_30  and  O_31
REMARK    7  A    between atoms: O_31  and  C_32
REMARK                            x       y       z     vdW  Elec       q    Type
REMARK                         _______ _______ _______ _____ _____    ______ ____
ROOT
ATOM      1  N   UNL     1       2.594  -0.654  -0.038  0.00  0.00    -0.310 N 
ATOM      2  C   UNL     1       2.032  -0.469   1.173  0.00  0.00    +0.200 C 
ATOM      3  O   UNL     1       0.901  -0.039   1.258  0.00  0.00    -0.278 OA
ATOM      4  H   UNL     1       3.498  -0.998  -0.106  0.00  0.00    +0.149 HD
ENDROOT
BRANCH   2   5
ATOM      5  C   UNL     1       2.809  -0.797   2.422  0.00  0.00    +0.027 C 
ATOM      6  C   UNL     1       2.269   0.034   3.591  0.00  0.00    +0.062 C 
ATOM      7  S   UNL     1       2.408   1.795   3.152  0.00  0.00    -0.163 S 
ATOM      8  C   UNL     1       4.134   1.930   2.590  0.00  0.00    +0.058 C 
ATOM      9  C   UNL     1       4.396   0.815   1.570  0.00  0.00    -0.026 C 
ATOM     10  N   UNL     1       4.225  -0.490   2.208  0.00  0.00    +0.392 N 
ATOM     11  H   UNL     1       4.701  -0.489   3.098  0.00  0.00    -0.084 HD
ATOM     12  H   UNL     1       4.632  -1.201   1.618  0.00  0.00    -0.084 HD
BRANCH   9  13
ATOM     13  C   UNL     1       5.804   0.935   1.047  0.00  0.00    -0.019 A 
ATOM     14  C   UNL     1       6.800   0.119   1.547  0.00  0.00    +0.005 A 
ATOM     15  C   UNL     1       8.091   0.229   1.068  0.00  0.00    +0.000 A 
ATOM     16  C   UNL     1       8.390   1.156   0.086  0.00  0.00    +0.004 A 
ATOM     17  C   UNL     1       7.399   1.974  -0.418  0.00  0.00    +0.046 A 
ATOM     18  C   UNL     1       6.100   1.862   0.058  0.00  0.00    +0.122 A 
BRANCH  18  19
ATOM     19  O   UNL     1       5.121   2.662  -0.440  0.00  0.00    -0.495 OA
ATOM     20  C   UNL     1       5.498   3.594  -1.456  0.00  0.00    +0.277 C 
ENDBRANCH  18  19
ENDBRANCH   9  13
ENDBRANCH   2   5
BRANCH   1  22
ATOM     21  C   UNL     1       0.989  -1.542  -1.656  0.00  0.00    +0.033 C 
ATOM     22  C   UNL     1       1.838  -0.335  -1.252  0.00  0.00    +0.101 C 
BRANCH  22  23
ATOM     23  C   UNL     1       2.796   0.000  -2.366  0.00  0.00    -0.020 A 
ATOM     24  C   UNL     1       4.055  -0.516  -2.365  0.00  0.00    +0.006 A 
ATOM     25  C   UNL     1       4.955  -0.217  -3.386  0.00  0.00    +0.001 A 
ATOM     26  C   UNL     1       4.600   0.600  -4.415  0.00  0.00    +0.008 A 
ATOM     27  C   UNL     1       3.309   1.152  -4.451  0.00  0.00    -0.018 A 
ATOM     28  C   UNL     1       2.392   0.843  -3.415  0.00  0.00    -0.013 A 
ATOM     29  C   UNL     1       1.098   1.391  -3.454  0.00  0.00    +0.009 A 
ATOM     30  C   UNL     1       0.742   2.203  -4.486  0.00  0.00    +0.001 A 
ATOM     31  C   UNL     1       1.641   2.502  -5.508  0.00  0.00    +0.001 A 
ATOM     32  C   UNL     1       2.906   2.001  -5.497  0.00  0.00    +0.008 A 
ENDBRANCH  22  23
ENDBRANCH   1  22
TORSDOF 5
