REMARK  Name = ZINC39421125
REMARK  9 active torsions:
REMARK  status: ('A' for Active; 'I' for Inactive)
REMARK    1  A    between atoms: C_1  and  O_2
REMARK    2  A    between atoms: O_2  and  C_3
REMARK    3  A    between atoms: C_5  and  N_33
REMARK    4  A    between atoms: N_16  and  C_19
REMARK    5  A    between atoms: C_19  and  C_20
REMARK    6  A    between atoms: C_25  and  C_26
REMARK    7  A    between atoms: C_34  and  C_36
REMARK    8  A    between atoms: C_36  and  S_37
REMARK    9  A    between atoms: S_37  and  C_38
REMARK                            x       y       z     vdW  Elec       q    Type
REMARK                         _______ _______ _______ _____ _____    ______ ____
ROOT
ATOM      1  C   UNL     1       0.457  -0.196  -0.921  0.00  0.00    +0.153 C 
ATOM      2  C   UNL     1       1.932  -0.390  -0.509  0.00  0.00    +0.133 C 
ATOM      3  C   UNL     1       2.006  -1.793   0.055  0.00  0.00    -0.021 A 
ATOM      4  C   UNL     1       2.970  -2.393   0.847  0.00  0.00    +0.006 A 
ATOM      5  C   UNL     1       2.824  -3.707   1.247  0.00  0.00    +0.000 A 
ATOM      6  C   UNL     1       1.711  -4.427   0.854  0.00  0.00    +0.000 A 
ATOM      7  C   UNL     1       0.748  -3.831   0.064  0.00  0.00    +0.004 A 
ATOM      8  C   UNL     1       0.891  -2.513  -0.337  0.00  0.00    -0.034 A 
ATOM      9  C   UNL     1      -0.006  -1.639  -1.189  0.00  0.00    +0.021 C 
ATOM     10  C   UNL     1      -1.466  -1.805  -0.775  0.00  0.00    -0.005 C 
ATOM     11  C   UNL     1      -2.351  -0.948  -1.683  0.00  0.00    -0.078 C 
ATOM     12  N   UNL     1      -2.170  -1.361  -3.079  0.00  0.00    +0.380 N 
ATOM     13  C   UNL     1      -0.785  -1.112  -3.499  0.00  0.00    -0.078 C 
ATOM     14  C   UNL     1       0.166  -1.978  -2.667  0.00  0.00    -0.005 C 
ATOM     15  H   UNL     1      -2.374  -2.346  -3.166  0.00  0.00    -0.082 HD
ENDROOT
BRANCH   2  16
ATOM     16  N   UNL     1       2.808  -0.263  -1.677  0.00  0.00    -0.305 N 
ATOM     17  C   UNL     1       4.095   0.105  -1.518  0.00  0.00    +0.223 C 
ATOM     18  O   UNL     1       4.528   0.330  -0.407  0.00  0.00    -0.275 OA
ATOM     19  H   UNL     1       2.461  -0.443  -2.564  0.00  0.00    +0.149 HD
BRANCH  17  20
ATOM     20  C   UNL     1       4.995   0.235  -2.719  0.00  0.00    +0.164 C 
BRANCH  20  21
ATOM     21  S   UNL     1       6.652   0.740  -2.180  0.00  0.00    -0.155 S 
ATOM     22  C   UNL     1       7.600   0.851  -3.723  0.00  0.00    +0.085 C 
ENDBRANCH  20  21
ENDBRANCH  17  20
ENDBRANCH   2  16
BRANCH   1  24
ATOM     23  C   UNL     1      -0.396   1.814   0.067  0.00  0.00    +0.194 C 
ATOM     24  O   UNL     1      -0.296   0.391   0.142  0.00  0.00    -0.377 OA
ENDBRANCH   1  24
BRANCH  12  25
ATOM     25  C   UNL     1      -3.085  -0.597  -3.938  0.00  0.00    -0.063 C 
BRANCH  25  26
ATOM     26  C   UNL     1      -4.530  -0.981  -3.612  0.00  0.00    +0.066 C 
ATOM     27  C   UNL     1      -4.822  -2.397  -4.066  0.00  0.00    +0.115 C 
ATOM     28  N   UNL     1      -5.765  -2.305  -4.946  0.00  0.00    -0.161 NA
ATOM     29  N   UNL     1      -6.167  -0.991  -5.160  0.00  0.00    -0.153 NA
ATOM     30  C   UNL     1      -5.500  -0.142  -4.420  0.00  0.00    +0.077 C 
BRANCH  30  31
ATOM     31  C   UNL     1      -5.657   1.320  -4.379  0.00  0.00    -0.001 A 
ATOM     32  C   UNL     1      -4.854   2.089  -3.530  0.00  0.00    +0.012 A 
ATOM     33  C   UNL     1      -5.005   3.458  -3.497  0.00  0.00    +0.039 A 
ATOM     34  C   UNL     1      -5.951   4.074  -4.303  0.00  0.00    +0.123 A 
ATOM     35  C   UNL     1      -6.750   3.317  -5.146  0.00  0.00    +0.039 A 
ATOM     36  C   UNL     1      -6.605   1.948  -5.193  0.00  0.00    +0.012 A 
ATOM     37  F   UNL     1      -6.095   5.417  -4.265  0.00  0.00    -0.205 F 
ENDBRANCH  30  31
ENDBRANCH  25  26
ENDBRANCH  12  25
TORSDOF 7
