REMARK  Name = ZINC48376504
REMARK  13 active torsions:
REMARK  status: ('A' for Active; 'I' for Inactive)
REMARK    1  A    between atoms: C_1  and  C_2
REMARK    2  A    between atoms: C_2  and  N_3
REMARK    3  A    between atoms: N_3  and  C_4
REMARK    4  A    between atoms: N_3  and  C_6
REMARK    5  A    between atoms: C_4  and  C_5
REMARK    6  A    between atoms: C_6  and  C_8
REMARK    7  A    between atoms: C_6  and  C_9
REMARK    8  A    between atoms: C_9  and  N_10
REMARK    9  A    between atoms: N_13  and  C_14
REMARK   10  A    between atoms: C_16  and  C_21
REMARK   11  A    between atoms: C_19  and  C_20
REMARK   12  A    between atoms: N_23  and  C_24
REMARK   13  A    between atoms: C_24  and  C_25
REMARK                            x       y       z     vdW  Elec       q    Type
REMARK                         _______ _______ _______ _____ _____    ______ ____
ROOT
ATOM      1  C   UNL     1      -7.348  -1.408  -1.367  0.00  0.00    +0.038 A 
ATOM      2  C   UNL     1      -7.909  -2.371  -0.543  0.00  0.00    +0.036 A 
ATOM      3  C   UNL     1      -9.295  -2.434  -0.394  0.00  0.00    +0.038 A 
ATOM      4  C   UNL     1     -10.107  -1.527  -1.077  0.00  0.00    +0.013 A 
ATOM      5  C   UNL     1      -9.539  -0.572  -1.896  0.00  0.00    +0.006 A 
ATOM      6  C   UNL     1      -8.165  -0.507  -2.039  0.00  0.00    -0.029 A 
ATOM      7  C   UNL     1      -7.552   0.543  -2.930  0.00  0.00    +0.045 C 
ENDROOT
BRANCH   1  11
ATOM      8  N   UNL     1      -3.816  -1.622  -0.636  0.00  0.00    -0.301 N 
ATOM      9  C   UNL     1      -5.151  -1.781  -0.534  0.00  0.00    +0.304 C 
ATOM     10  O   UNL     1      -5.626  -2.321   0.446  0.00  0.00    -0.253 OA
ATOM     11  N   UNL     1      -5.958  -1.341  -1.519  0.00  0.00    -0.269 N 
ATOM     12  H   UNL     1      -3.437  -1.191  -1.417  0.00  0.00    +0.150 HD
ATOM     13  H   UNL     1      -5.577  -0.977  -2.333  0.00  0.00    +0.156 HD
BRANCH   8  14
ATOM     14  C   UNL     1      -2.938  -2.101   0.435  0.00  0.00    +0.090 C 
BRANCH  14  15
ATOM     15  C   UNL     1      -1.496  -1.687   0.135  0.00  0.00    -0.054 C 
ATOM     16  C   UNL     1      -0.592  -2.110   1.295  0.00  0.00    -0.012 C 
BRANCH  15  17
ATOM     17  N   UNL     1      -1.429  -0.229  -0.031  0.00  0.00    +0.382 N 
ATOM     18  H   UNL     1      -2.064   0.055  -0.762  0.00  0.00    -0.081 HD
BRANCH  17  20
ATOM     19  C   UNL     1      -1.877   1.939   1.016  0.00  0.00    -0.017 C 
ATOM     20  C   UNL     1      -1.808   0.425   1.228  0.00  0.00    -0.082 C 
ENDBRANCH  17  20
BRANCH  17  21
ATOM     21  C   UNL     1      -0.060   0.160  -0.393  0.00  0.00    -0.082 C 
ATOM     22  C   UNL     1       0.288  -0.416  -1.767  0.00  0.00    -0.017 C 
ENDBRANCH  17  21
ENDBRANCH  15  17
ENDBRANCH  14  15
ENDBRANCH   8  14
ENDBRANCH   1  11
BRANCH   3  23
ATOM     23  C   UNL     1      -9.901  -3.458   0.483  0.00  0.00    +0.244 C 
ATOM     24  O   UNL     1      -9.192  -4.247   1.077  0.00  0.00    -0.270 OA
ATOM     25  N   UNL     1     -11.240  -3.517   0.625  0.00  0.00    -0.303 N 
ATOM     26  H   UNL     1     -11.806  -2.887   0.151  0.00  0.00    +0.149 HD
BRANCH  25  27
ATOM     27  C   UNL     1     -11.841  -4.532   1.494  0.00  0.00    +0.217 C 
BRANCH  27  28
ATOM     28  C   UNL     1     -13.363  -4.380   1.478  0.00  0.00    +0.405 C 
ATOM     29  F   UNL     1     -13.834  -4.548   0.171  0.00  0.00    -0.169 F 
ATOM     30  F   UNL     1     -13.937  -5.350   2.308  0.00  0.00    -0.169 F 
ATOM     31  F   UNL     1     -13.710  -3.106   1.939  0.00  0.00    -0.169 F 
ENDBRANCH  27  28
ENDBRANCH  25  27
ENDBRANCH   3  23
TORSDOF 9
