REMARK  Name = ZINC12876092
REMARK  9 active torsions:
REMARK  status: ('A' for Active; 'I' for Inactive)
REMARK    1  A    between atoms: C_1  and  C_2
REMARK    2  A    between atoms: C_4  and  C_36
REMARK    3  A    between atoms: C_13  and  C_15
REMARK    4  A    between atoms: C_15  and  C_17
REMARK    5  A    between atoms: C_15  and  O_18
REMARK    6  A    between atoms: N_21  and  C_24
REMARK    7  A    between atoms: C_24  and  C_25
REMARK    8  A    between atoms: C_30  and  O_31
REMARK    9  A    between atoms: O_31  and  C_32
REMARK                            x       y       z     vdW  Elec       q    Type
REMARK                         _______ _______ _______ _____ _____    ______ ____
ROOT
ATOM      1  C   UNL     1      -0.074   1.320  -0.313  0.00  0.00    +0.044 C 
ATOM      2  C   UNL     1      -0.716   1.666   1.006  0.00  0.00    -0.050 A 
ATOM      3  C   UNL     1       0.063   1.806   2.140  0.00  0.00    +0.008 A 
ATOM      4  C   UNL     1      -0.519   2.122   3.350  0.00  0.00    -0.029 A 
ATOM      5  C   UNL     1      -1.897   2.304   3.439  0.00  0.00    +0.039 A 
ATOM      6  C   UNL     1      -2.671   2.161   2.290  0.00  0.00    -0.027 A 
ATOM      7  C   UNL     1      -2.085   1.850   1.084  0.00  0.00    +0.008 A 
ATOM      8  C   UNL     1      -4.088   2.418   2.716  0.00  0.00    +0.050 C 
ATOM      9  C   UNL     1      -4.702   3.593   1.944  0.00  0.00    +0.088 C 
ATOM     10  C   UNL     1      -5.522   2.925   0.805  0.00  0.00    +0.075 C 
ATOM     11  C   UNL     1      -5.316   1.409   1.004  0.00  0.00    -0.028 C 
ATOM     12  C   UNL     1      -6.950   3.285   1.147  0.00  0.00    +0.224 C 
ATOM     13  O   UNL     1      -7.927   2.955   0.509  0.00  0.00    -0.275 OA
ATOM     14  N   UNL     1      -6.968   4.024   2.262  0.00  0.00    -0.237 N 
ATOM     15  C   UNL     1      -5.763   4.259   2.792  0.00  0.00    +0.225 C 
ATOM     16  O   UNL     1      -5.553   4.905   3.796  0.00  0.00    -0.275 OA
ATOM     17  C   UNL     1      -4.009   2.707   4.189  0.00  0.00    +0.211 C 
ATOM     18  O   UNL     1      -4.935   2.967   4.928  0.00  0.00    -0.277 OA
ATOM     19  N   UNL     1      -2.708   2.623   4.530  0.00  0.00    -0.286 N 
ATOM     20  C   UNL     1       0.339   2.273   4.580  0.00  0.00    +0.045 C 
ATOM     21  H   UNL     1      -2.374   2.766   5.429  0.00  0.00    +0.155 HD
ATOM     22  N   UNL     1      -4.944   1.284   2.415  0.00  0.00    +0.396 N 
ATOM     23  H   UNL     1      -5.783   1.304   3.006  0.00  0.00    -0.083 HD
ATOM     24  H   UNL     1      -4.437   0.405   2.571  0.00  0.00    -0.083 HD
ENDROOT
BRANCH  11  25
ATOM     25  C   UNL     1      -6.610   0.651   0.698  0.00  0.00    +0.098 C 
ATOM     26  C   UNL     1      -6.935   0.778  -0.792  0.00  0.00    +0.036 C 
BRANCH  25  27
ATOM     27  O   UNL     1      -6.445  -0.728   1.034  0.00  0.00    -0.394 OA
ATOM     28  H   UNL     1      -5.734  -1.169   0.548  0.00  0.00    +0.210 HD
ENDBRANCH  25  27
ENDBRANCH  11  25
BRANCH  14  29
ATOM     29  C   UNL     1      -8.207   4.535   2.853  0.00  0.00    +0.155 C 
BRANCH  29  30
ATOM     30  C   UNL     1      -8.518   5.891   2.275  0.00  0.00    +0.012 A 
ATOM     31  C   UNL     1      -8.216   7.034   2.990  0.00  0.00    +0.009 A 
ATOM     32  C   UNL     1      -8.496   8.279   2.458  0.00  0.00    +0.001 A 
ATOM     33  C   UNL     1      -9.090   8.383   1.213  0.00  0.00    +0.004 A 
ATOM     34  C   UNL     1      -9.399   7.243   0.496  0.00  0.00    +0.046 A 
ATOM     35  C   UNL     1      -9.114   5.993   1.026  0.00  0.00    +0.125 A 
BRANCH  35  36
ATOM     36  O   UNL     1      -9.417   4.871   0.323  0.00  0.00    -0.495 OA
ATOM     37  C   UNL     1     -10.028   5.051  -0.956  0.00  0.00    +0.277 C 
ENDBRANCH  35  36
ENDBRANCH  29  30
ENDBRANCH  14  29
TORSDOF 5
