REMARK  Name = ZINC39693413
REMARK  10 active torsions:
REMARK  status: ('A' for Active; 'I' for Inactive)
REMARK    1  A    between atoms: C_1  and  C_2
REMARK    2  A    between atoms: C_2  and  C_3
REMARK    3  A    between atoms: C_2  and  C_4
REMARK    4  A    between atoms: C_2  and  O_5
REMARK    5  A    between atoms: O_5  and  C_6
REMARK    6  A    between atoms: N_8  and  C_9
REMARK    7  A    between atoms: C_9  and  C_10
REMARK    8  A    between atoms: C_10  and  N_11
REMARK    9  A    between atoms: C_12  and  C_14
REMARK   10  A    between atoms: C_25  and  C_27
REMARK                            x       y       z     vdW  Elec       q    Type
REMARK                         _______ _______ _______ _____ _____    ______ ____
ROOT
ATOM      1  C   UNL     1       8.690   0.108  -5.215  0.00  0.00    +0.100 C 
ATOM      2  C   UNL     1       9.271  -0.582  -3.961  0.00  0.00    +0.121 C 
ATOM      3  N   UNL     1       9.787  -1.881  -4.454  0.00  0.00    -0.296 N 
ATOM      4  C   UNL     1      10.393  -1.562  -5.769  0.00  0.00    +0.115 C 
ATOM      5  C   UNL     1       9.431  -0.534  -6.399  0.00  0.00    -0.004 C 
ATOM      6  C   UNL     1      10.218   0.524  -7.167  0.00  0.00    -0.010 C 
ATOM      7  C   UNL     1      10.899  -0.129  -8.373  0.00  0.00    -0.082 C 
ATOM      8  N   UNL     1       9.884  -0.738  -9.241  0.00  0.00    +0.379 N 
ATOM      9  C   UNL     1       9.195  -1.818  -8.523  0.00  0.00    -0.082 C 
ATOM     10  C   UNL     1       8.442  -1.237  -7.324  0.00  0.00    -0.010 C 
ATOM     11  C   UNL     1       9.721  -3.081  -3.844  0.00  0.00    +0.247 C 
ATOM     12  O   UNL     1       9.079  -3.208  -2.820  0.00  0.00    -0.270 OA
ATOM     13  H   UNL     1       9.213  -0.036  -9.515  0.00  0.00    -0.086 HD
ATOM     14  H   UNL     1      10.329  -1.114 -10.065  0.00  0.00    -0.086 HD
ENDROOT
BRANCH  11  15
ATOM     15  C   UNL     1      10.430  -4.243  -4.422  0.00  0.00    +0.042 A 
ATOM     16  C   UNL     1      11.490  -4.048  -5.307  0.00  0.00    +0.051 A 
ATOM     17  C   UNL     1      12.149  -5.138  -5.844  0.00  0.00    +0.127 A 
ATOM     18  C   UNL     1      11.758  -6.423  -5.504  0.00  0.00    +0.076 A 
ATOM     19  C   UNL     1      10.706  -6.623  -4.625  0.00  0.00    +0.127 A 
ATOM     20  C   UNL     1      10.044  -5.540  -4.079  0.00  0.00    +0.051 A 
ATOM     21  F   UNL     1      10.330  -7.878  -4.298  0.00  0.00    -0.205 F 
ATOM     22  F   UNL     1      13.176  -4.950  -6.701  0.00  0.00    -0.205 F 
ENDBRANCH  11  15
BRANCH   1  24
ATOM     23  N   UNL     1       6.423   0.695  -6.012  0.00  0.00    -0.314 N 
ATOM     24  C   UNL     1       7.209  -0.152  -5.319  0.00  0.00    +0.218 C 
ATOM     25  O   UNL     1       6.725  -1.124  -4.779  0.00  0.00    -0.275 OA
ATOM     26  H   UNL     1       6.810   1.473  -6.444  0.00  0.00    +0.149 HD
BRANCH  23  27
ATOM     27  C   UNL     1       4.984   0.442  -6.113  0.00  0.00    +0.123 C 
BRANCH  27  28
ATOM     28  C   UNL     1       4.329   1.545  -6.948  0.00  0.00    +0.126 C 
BRANCH  28  31
ATOM     29  C   UNL     1       2.103   2.139  -7.742  0.00  0.00    +0.401 C 
ATOM     30  O   UNL     1       2.588   3.113  -8.283  0.00  0.00    -0.226 OA
ATOM     31  N   UNL     1       2.890   1.291  -7.049  0.00  0.00    -0.280 N 
ATOM     32  H   UNL     1       2.502   0.514  -6.617  0.00  0.00    +0.152 HD
BRANCH  29  33
ATOM     33  O   UNL     1       0.780   1.906  -7.835  0.00  0.00    -0.445 OA
BRANCH  33  35
ATOM     34  C   UNL     1       0.519   2.891 -10.026  0.00  0.00    +0.055 C 
ATOM     35  C   UNL     1       0.008   2.845  -8.585  0.00  0.00    +0.107 C 
ATOM     36  C   UNL     1       0.137   4.232  -7.953  0.00  0.00    +0.055 C 
ATOM     37  C   UNL     1      -1.461   2.417  -8.579  0.00  0.00    +0.055 C 
ENDBRANCH  33  35
ENDBRANCH  29  33
ENDBRANCH  28  31
ENDBRANCH  27  28
ENDBRANCH  23  27
ENDBRANCH   1  24
TORSDOF 7
