REMARK  Name = ZINC04574793
REMARK  7 active torsions:
REMARK  status: ('A' for Active; 'I' for Inactive)
REMARK    1  A    between atoms: C_1  and  O_2
REMARK    2  A    between atoms: O_2  and  C_3
REMARK    3  A    between atoms: N_11  and  N_12
REMARK    4  A    between atoms: N_12  and  C_13
REMARK    5  A    between atoms: C_13  and  N_15
REMARK    6  A    between atoms: N_15  and  C_16
REMARK    7  A    between atoms: C_22  and  C_24
REMARK                            x       y       z     vdW  Elec       q    Type
REMARK                         _______ _______ _______ _____ _____    ______ ____
ROOT
ATOM      1  C   UNL     1      -1.301   9.695  -1.264  0.00  0.00    +0.163 A 
ATOM      2  C   UNL     1      -1.317  10.903  -1.943  0.00  0.00    +0.049 A 
ATOM      3  C   UNL     1      -0.176  11.686  -2.015  0.00  0.00    +0.004 A 
ATOM      4  C   UNL     1       0.993  11.273  -1.413  0.00  0.00    +0.012 A 
ATOM      5  C   UNL     1       1.026  10.055  -0.725  0.00  0.00    +0.022 A 
ATOM      6  C   UNL     1      -0.131   9.262  -0.650  0.00  0.00    +0.179 A 
ATOM      7  O   UNL     1      -0.099   8.082   0.021  0.00  0.00    -0.434 OA
ATOM      8  C   UNL     1       1.108   7.452   0.099  0.00  0.00    +0.224 A 
ATOM      9  N   UNL     1       1.200   6.157  -0.032  0.00  0.00    -0.274 N 
ATOM     10  C   UNL     1       2.309   8.283   0.342  0.00  0.00    +0.098 A 
ATOM     11  C   UNL     1       2.261   9.592  -0.081  0.00  0.00    +0.030 A 
ATOM     12  H   UNL     1       0.289   5.543  -0.085  0.00  0.00    +0.187 HD
ENDROOT
BRANCH  10  13
ATOM     13  C   UNL     1       3.503   7.730   1.003  0.00  0.00    +0.247 C 
ATOM     14  O   UNL     1       4.608   8.143   0.708  0.00  0.00    -0.270 OA
ATOM     15  N   UNL     1       3.371   6.765   1.935  0.00  0.00    -0.325 N 
ATOM     16  H   UNL     1       4.263   6.352   2.429  0.00  0.00    +0.145 HD
ATOM     17  H   UNL     1       2.372   6.391   2.202  0.00  0.00    +0.145 HD
ENDBRANCH  10  13
BRANCH   1  19
ATOM     18  C   UNL     1      -3.591   9.442  -1.854  0.00  0.00    +0.277 C 
ATOM     19  O   UNL     1      -2.426   8.934  -1.200  0.00  0.00    -0.491 OA
ENDBRANCH   1  19
BRANCH   9  20
ATOM     20  N   UNL     1       2.460   5.548  -0.106  0.00  0.00    -0.238 N 
ATOM     21  H   UNL     1       3.368   6.168  -0.145  0.00  0.00    +0.174 HD
BRANCH  20  22
ATOM     22  C   UNL     1       2.559   4.205  -0.129  0.00  0.00    +0.153 C 
ATOM     23  S   UNL     1       4.098   3.461  -0.219  0.00  0.00    -0.017 S 
BRANCH  22  24
ATOM     24  N   UNL     1       1.446   3.446  -0.081  0.00  0.00    -0.296 N 
ATOM     25  H   UNL     1       0.455   3.921  -0.119  0.00  0.00    +0.154 HD
BRANCH  24  26
ATOM     26  C   UNL     1       1.552   2.055   0.017  0.00  0.00    +0.033 A 
ATOM     27  C   UNL     1       2.515   1.486   0.840  0.00  0.00    +0.023 A 
ATOM     28  C   UNL     1       2.617   0.112   0.934  0.00  0.00    +0.002 A 
ATOM     29  C   UNL     1       1.760  -0.698   0.211  0.00  0.00    +0.000 A 
ATOM     30  C   UNL     1       0.799  -0.135  -0.609  0.00  0.00    +0.002 A 
ATOM     31  C   UNL     1       0.693   1.239  -0.708  0.00  0.00    +0.023 A 
ENDBRANCH  24  26
ENDBRANCH  22  24
ENDBRANCH  20  22
ENDBRANCH   9  20
TORSDOF 6
