REMARK  Name = ZINC35382183
REMARK  9 active torsions:
REMARK  status: ('A' for Active; 'I' for Inactive)
REMARK    1  A    between atoms: C_1  and  C_2
REMARK    2  A    between atoms: C_2  and  O_3
REMARK    3  A    between atoms: O_3  and  C_4
REMARK    4  A    between atoms: C_6  and  C_14
REMARK    5  A    between atoms: C_9  and  O_10
REMARK    6  A    between atoms: O_10  and  C_11
REMARK    7  A    between atoms: C_11  and  C_12
REMARK    8  A    between atoms: C_14  and  C_16
REMARK    9  A    between atoms: C_14  and  N_22
REMARK                            x       y       z     vdW  Elec       q    Type
REMARK                         _______ _______ _______ _____ _____    ______ ____
ROOT
ATOM      1  C   UNL     1       0.777  -1.811  -1.336  0.00  0.00    +0.162 A 
ATOM      2  C   UNL     1       0.243  -2.669  -0.388  0.00  0.00    +0.053 A 
ATOM      3  C   UNL     1       0.352  -4.037  -0.554  0.00  0.00    -0.037 A 
ATOM      4  C   UNL     1       0.992  -4.553  -1.667  0.00  0.00    +0.024 A 
ATOM      5  C   UNL     1       1.527  -3.702  -2.617  0.00  0.00    +0.065 A 
ATOM      6  C   UNL     1       1.416  -2.330  -2.458  0.00  0.00    +0.163 A 
ATOM      7 BR   UNL     1       1.137  -6.425  -1.888  0.00  0.00    -0.050 Br
ENDROOT
BRANCH   1   8
ATOM      8  O   UNL     1       0.671  -0.465  -1.174  0.00  0.00    -0.489 OA
BRANCH   8  10
ATOM      9  C   UNL     1      -0.019   1.526   0.010  0.00  0.00    +0.048 C 
ATOM     10  C   UNL     1       0.002  -0.004   0.002  0.00  0.00    +0.226 C 
ENDBRANCH   8  10
ENDBRANCH   1   8
BRANCH   6  11
ATOM     11  O   UNL     1       1.935  -1.491  -3.395  0.00  0.00    -0.489 OA
BRANCH  11  12
ATOM     12  C   UNL     1       2.578  -2.094  -4.520  0.00  0.00    +0.226 C 
ATOM     13  C   UNL     1       3.095  -1.001  -5.458  0.00  0.00    +0.048 C 
ENDBRANCH  11  12
ENDBRANCH   6  11
BRANCH   3  14
ATOM     14  C   UNL     1      -0.228  -4.968   0.479  0.00  0.00    +0.025 C 
BRANCH  14  15
ATOM     15  C   UNL     1       0.846  -5.364   1.458  0.00  0.00    +0.096 A 
ATOM     16  C   UNL     1       1.538  -6.517   1.443  0.00  0.00    +0.044 A 
ATOM     17  C   UNL     1       2.437  -6.471   2.534  0.00  0.00    +0.057 A 
ATOM     18  C   UNL     1       2.240  -5.290   3.151  0.00  0.00    +0.170 A 
ATOM     19  O   UNL     1       1.279  -4.622   2.492  0.00  0.00    -0.454 OA
ATOM     20 BR   UNL     1       3.163  -4.675   4.682  0.00  0.00    -0.008 Br
ENDBRANCH  14  15
BRANCH  14  21
ATOM     21  N   UNL     1      -1.317  -4.289   1.194  0.00  0.00    +0.387 N 
ATOM     22  H   UNL     1      -0.957  -3.464   1.650  0.00  0.00    -0.089 HD
ATOM     23  H   UNL     1      -2.037  -4.024   0.538  0.00  0.00    -0.089 HD
ATOM     24  H   UNL     1      -1.706  -4.913   1.886  0.00  0.00    -0.089 HD
ENDBRANCH  14  21
ENDBRANCH   3  14
TORSDOF 7
