REMARK  Name = ZINC39480858
REMARK  8 active torsions:
REMARK  status: ('A' for Active; 'I' for Inactive)
REMARK    1  A    between atoms: C_1  and  C_2
REMARK    2  A    between atoms: C_5  and  N_22
REMARK    3  A    between atoms: C_6  and  N_8
REMARK    4  A    between atoms: C_12  and  C_15
REMARK    5  A    between atoms: C_20  and  O_21
REMARK    6  A    between atoms: N_22  and  S_23
REMARK    7  A    between atoms: S_23  and  C_26
REMARK    8  A    between atoms: C_31  and  O_32
REMARK                            x       y       z     vdW  Elec       q    Type
REMARK                         _______ _______ _______ _____ _____    ______ ____
ROOT
ATOM      1  C   UNL     1       1.548   1.142   0.357  0.00  0.00    +0.044 C 
ATOM      2  C   UNL     1       1.217  -0.324   0.240  0.00  0.00    -0.049 A 
ATOM      3  C   UNL     1       0.967  -0.876  -1.002  0.00  0.00    +0.005 A 
ATOM      4  C   UNL     1       0.663  -2.220  -1.117  0.00  0.00    +0.026 A 
ATOM      5  C   UNL     1       0.609  -3.018   0.016  0.00  0.00    +0.069 A 
ATOM      6  C   UNL     1       0.862  -2.461   1.269  0.00  0.00    +0.052 A 
ATOM      7  C   UNL     1       1.171  -1.113   1.374  0.00  0.00    +0.028 A 
ENDROOT
BRANCH   6   8
ATOM      8  N   UNL     1       0.809  -3.261   2.417  0.00  0.00    -0.331 N 
ATOM      9  C   UNL     1       2.009  -3.955   2.912  0.00  0.00    +0.086 C 
ATOM     10  C   UNL     1       2.166  -3.649   4.405  0.00  0.00    -0.063 C 
ATOM     11  N   UNL     1       0.927  -4.003   5.109  0.00  0.00    +0.386 N 
ATOM     12  C   UNL     1      -0.174  -3.149   4.645  0.00  0.00    -0.020 C 
ATOM     13  C   UNL     1      -0.446  -3.426   3.167  0.00  0.00    +0.094 C 
ATOM     14  H   UNL     1       0.702  -4.969   4.926  0.00  0.00    -0.085 HD
ATOM     15  H   UNL     1       1.057  -3.873   6.101  0.00  0.00    -0.085 HD
BRANCH  12  16
ATOM     16  C   UNL     1      -1.413  -3.446   5.449  0.00  0.00    -0.018 A 
ATOM     17  C   UNL     1      -1.520  -4.637   6.141  0.00  0.00    +0.005 A 
ATOM     18  C   UNL     1      -2.657  -4.909   6.879  0.00  0.00    +0.000 A 
ATOM     19  C   UNL     1      -3.689  -3.991   6.927  0.00  0.00    +0.004 A 
ATOM     20  C   UNL     1      -3.587  -2.798   6.238  0.00  0.00    +0.045 A 
ATOM     21  C   UNL     1      -2.445  -2.520   5.501  0.00  0.00    +0.118 A 
BRANCH  21  22
ATOM     22  O   UNL     1      -2.339  -1.345   4.827  0.00  0.00    -0.507 OA
ATOM     23  H   UNL     1      -2.680  -1.379   3.922  0.00  0.00    +0.292 HD
ENDBRANCH  21  22
ENDBRANCH  12  16
ENDBRANCH   6   8
BRANCH   5  24
ATOM     24  N   UNL     1       0.301  -4.379  -0.098  0.00  0.00    -0.214 N 
ATOM     25  H   UNL     1      -0.220  -4.818   0.593  0.00  0.00    +0.174 HD
BRANCH  24  26
ATOM     26  S   UNL     1       0.826  -5.240  -1.411  0.00  0.00    +0.076 S 
ATOM     27  O   UNL     1       2.194  -4.903  -1.597  0.00  0.00    -0.150 OA
ATOM     28  O   UNL     1       0.391  -6.579  -1.220  0.00  0.00    -0.150 OA
BRANCH  26  29
ATOM     29  C   UNL     1      -0.040  -4.625  -2.817  0.00  0.00    +0.150 A 
ATOM     30  C   UNL     1       0.653  -4.013  -3.843  0.00  0.00    +0.032 A 
ATOM     31  C   UNL     1      -0.026  -3.530  -4.946  0.00  0.00    +0.002 A 
ATOM     32  C   UNL     1      -1.401  -3.659  -5.026  0.00  0.00    +0.004 A 
ATOM     33  C   UNL     1      -2.099  -4.270  -4.003  0.00  0.00    +0.047 A 
ATOM     34  C   UNL     1      -1.419  -4.761  -2.897  0.00  0.00    +0.143 A 
BRANCH  34  35
ATOM     35  O   UNL     1      -2.102  -5.368  -1.891  0.00  0.00    -0.505 OA
ATOM     36  H   UNL     1      -2.414  -4.761  -1.206  0.00  0.00    +0.292 HD
ENDBRANCH  34  35
ENDBRANCH  26  29
ENDBRANCH  24  26
ENDBRANCH   5  24
TORSDOF 7
