REMARK  Name = ZINC09321955
REMARK  11 active torsions:
REMARK  status: ('A' for Active; 'I' for Inactive)
REMARK    1  A    between atoms: C_1  and  C_2
REMARK    2  A    between atoms: C_7  and  C_8
REMARK    3  A    between atoms: C_8  and  C_10
REMARK    4  A    between atoms: C_8  and  N_69
REMARK    5  A    between atoms: C_11  and  N_23
REMARK    6  A    between atoms: N_12  and  C_19
REMARK    7  A    between atoms: N_15  and  C_18
REMARK    8  A    between atoms: C_19  and  C_20
REMARK    9  A    between atoms: C_20  and  C_21
REMARK   10  A    between atoms: C_20  and  C_22
REMARK   11  A    between atoms: N_26  and  C_29
REMARK                            x       y       z     vdW  Elec       q    Type
REMARK                         _______ _______ _______ _____ _____    ______ ____
ROOT
ATOM      1  C   UNL     1       2.699   1.775   4.851  0.00  0.00    +0.002 C 
ENDROOT
BRANCH   1   2
ATOM      2  C   UNL     1       1.546   1.090   4.164  0.00  0.00    +0.046 A 
ATOM      3  C   UNL     1       0.848   1.729   3.177  0.00  0.00    +0.107 A 
ATOM      4  N   UNL     1      -0.200   1.084   2.566  0.00  0.00    -0.281 N 
ATOM      5  C   UNL     1      -0.541  -0.164   2.938  0.00  0.00    +0.333 A 
ATOM      6  O   UNL     1      -1.474  -0.718   2.389  0.00  0.00    -0.246 OA
ATOM      7  N   UNL     1       0.138  -0.809   3.904  0.00  0.00    -0.264 N 
ATOM      8  C   UNL     1       1.173  -0.213   4.529  0.00  0.00    +0.260 A 
ATOM      9  O   UNL     1       1.780  -0.802   5.407  0.00  0.00    -0.267 OA
ATOM     10  C   UNL     1      -0.254  -2.168   4.283  0.00  0.00    +0.157 C 
BRANCH   3  11
ATOM     11  N   UNL     1       1.190   3.003   2.801  0.00  0.00    -0.344 N 
ATOM     12  H   UNL     1       0.746   3.422   2.047  0.00  0.00    +0.144 HD
ATOM     13  H   UNL     1       1.877   3.484   3.288  0.00  0.00    +0.144 HD
ENDBRANCH   3  11
BRANCH   4  14
ATOM     14  C   UNL     1      -0.954   1.760   1.507  0.00  0.00    +0.131 C 
BRANCH  14  15
ATOM     15  C   UNL     1      -0.310   1.460   0.152  0.00  0.00    +0.003 C 
ATOM     16  C   UNL     1       1.091   2.073   0.105  0.00  0.00    +0.009 C 
ATOM     17  C   UNL     1      -1.167   2.062  -0.964  0.00  0.00    +0.009 C 
ENDBRANCH  14  15
ENDBRANCH   4  14
ENDBRANCH   1   2
BRANCH   1  24
ATOM     18  C   UNL     1       4.230   2.217   2.441  0.00  0.00    +0.044 C 
ATOM     19  C   UNL     1       4.697   1.205   3.455  0.00  0.00    -0.049 A 
ATOM     20  C   UNL     1       5.857   0.488   3.232  0.00  0.00    +0.003 A 
ATOM     21  C   UNL     1       6.286  -0.441   4.162  0.00  0.00    +0.000 A 
ATOM     22  C   UNL     1       5.553  -0.652   5.315  0.00  0.00    +0.000 A 
ATOM     23  C   UNL     1       4.395   0.068   5.540  0.00  0.00    +0.002 A 
ATOM     24  C   UNL     1       3.964   0.994   4.607  0.00  0.00    -0.053 A 
ENDBRANCH   1  24
BRANCH   1  30
ATOM     25  C   UNL     1       1.163   2.526   6.565  0.00  0.00    -0.058 C 
ATOM     26  C   UNL     1       0.889   2.509   8.071  0.00  0.00    +0.086 C 
ATOM     27  N   UNL     1       1.996   3.173   8.775  0.00  0.00    -0.331 N 
ATOM     28  C   UNL     1       3.271   2.494   8.504  0.00  0.00    +0.086 C 
ATOM     29  C   UNL     1       3.544   2.510   6.998  0.00  0.00    -0.058 C 
ATOM     30  N   UNL     1       2.435   1.821   6.305  0.00  0.00    +0.389 N 
ATOM     31  H   UNL     1       2.364   0.861   6.661  0.00  0.00    -0.080 HD
BRANCH  27  32
ATOM     32  C   UNL     1       1.746   3.241  10.149  0.00  0.00    +0.065 A 
ATOM     33  C   UNL     1       2.638   3.897  10.986  0.00  0.00    +0.026 A 
ATOM     34  C   UNL     1       2.388   3.966  12.343  0.00  0.00    +0.002 A 
ATOM     35  C   UNL     1       1.254   3.375  12.870  0.00  0.00    +0.003 A 
ATOM     36  C   UNL     1       0.365   2.715  12.041  0.00  0.00    +0.040 A 
ATOM     37  C   UNL     1       0.608   2.646  10.681  0.00  0.00    +0.144 A 
ATOM     38  F   UNL     1      -0.261   2.001   9.871  0.00  0.00    -0.204 F 
ENDBRANCH  27  32
ENDBRANCH   1  30
TORSDOF 7
