REMARK  Name = ZINC27753962
REMARK  7 active torsions:
REMARK  status: ('A' for Active; 'I' for Inactive)
REMARK    1  A    between atoms: C_1  and  C_2
REMARK    2  A    between atoms: C_5  and  C_8
REMARK    3  A    between atoms: C_8  and  O_30
REMARK    4  A    between atoms: C_9  and  C_24
REMARK    5  A    between atoms: C_11  and  C_17
REMARK    6  A    between atoms: C_20  and  O_23
REMARK    7  A    between atoms: C_24  and  C_26
REMARK                            x       y       z     vdW  Elec       q    Type
REMARK                         _______ _______ _______ _____ _____    ______ ____
ROOT
ATOM      1  C   UNL     1      -0.762   3.547   3.111  0.00  0.00    +0.172 C 
ATOM      2  C   UNL     1      -0.806   3.376   1.588  0.00  0.00    +0.144 C 
ATOM      3  C   UNL     1      -2.148   3.907   1.076  0.00  0.00    +0.120 C 
ATOM      4  N   UNL     1      -3.235   3.223   1.778  0.00  0.00    -0.292 N 
ATOM      5  C   UNL     1      -3.077   2.761   3.027  0.00  0.00    +0.302 C 
ATOM      6  O   UNL     1      -4.016   2.210   3.569  0.00  0.00    -0.253 OA
ATOM      7  N   UNL     1      -1.925   2.883   3.702  0.00  0.00    -0.267 N 
ATOM      8  H   UNL     1      -4.206   3.079   1.281  0.00  0.00    +0.151 HD
ATOM      9  H   UNL     1      -1.864   2.473   4.721  0.00  0.00    +0.153 HD
ENDROOT
BRANCH   1  14
ATOM     10  C   UNL     1       4.081   1.174   5.185  0.00  0.00    +0.044 C 
ATOM     11  C   UNL     1       2.818   1.793   4.644  0.00  0.00    -0.050 A 
ATOM     12  C   UNL     1       2.808   3.122   4.262  0.00  0.00    +0.004 A 
ATOM     13  C   UNL     1       1.649   3.689   3.765  0.00  0.00    +0.008 A 
ATOM     14  C   UNL     1       0.501   2.928   3.651  0.00  0.00    +0.003 A 
ATOM     15  C   UNL     1       0.510   1.601   4.039  0.00  0.00    +0.008 A 
ATOM     16  C   UNL     1       1.670   1.032   4.530  0.00  0.00    +0.004 A 
ENDBRANCH   1  14
BRANCH   3  17
ATOM     17  C   UNL     1      -2.261   3.647  -0.405  0.00  0.00    -0.026 A 
ATOM     18  C   UNL     1      -2.744   2.434  -0.858  0.00  0.00    +0.009 A 
ATOM     19  C   UNL     1      -2.854   2.196  -2.214  0.00  0.00    +0.046 A 
ATOM     20  C   UNL     1      -2.466   3.170  -3.122  0.00  0.00    +0.117 A 
ATOM     21  C   UNL     1      -1.976   4.385  -2.665  0.00  0.00    +0.046 A 
ATOM     22  C   UNL     1      -1.874   4.621  -1.307  0.00  0.00    +0.009 A 
BRANCH  20  23
ATOM     23  O   UNL     1      -2.567   2.936  -4.457  0.00  0.00    -0.507 OA
ATOM     24  H   UNL     1      -2.259   3.709  -5.176  0.00  0.00    +0.292 HD
ENDBRANCH  20  23
ENDBRANCH   3  17
BRANCH   2  25
ATOM     25  C   UNL     1      -0.673   1.915   1.240  0.00  0.00    +0.245 C 
ATOM     26  O   UNL     1      -1.496   1.124   1.633  0.00  0.00    -0.287 OA
BRANCH  25  27
ATOM     27  C   UNL     1       0.486   1.443   0.401  0.00  0.00    +0.451 C 
ATOM     28  F   UNL     1       0.460   0.048   0.312  0.00  0.00    -0.163 F 
ATOM     29  F   UNL     1       1.687   1.851   0.993  0.00  0.00    -0.163 F 
ATOM     30  F   UNL     1       0.389   1.994  -0.882  0.00  0.00    -0.163 F 
ENDBRANCH  25  27
ENDBRANCH   2  25
BRANCH   1  31
ATOM     31  O   UNL     1      -0.791   4.939   3.435  0.00  0.00    -0.367 OA
ATOM     32  H   UNL     1      -1.643   5.559   3.121  0.00  0.00    +0.212 HD
ENDBRANCH   1  31
TORSDOF 6
