REMARK  Name = ZINC01956637
REMARK  10 active torsions:
REMARK  status: ('A' for Active; 'I' for Inactive)
REMARK    1  A    between atoms: C_1  and  N_2
REMARK    2  A    between atoms: C_3  and  N_16
REMARK    3  A    between atoms: C_5  and  N_11
REMARK    4  A    between atoms: N_7  and  C_10
REMARK    5  A    between atoms: N_11  and  N_12
REMARK    6  A    between atoms: N_12  and  C_13
REMARK    7  A    between atoms: C_13  and  N_15
REMARK    8  A    between atoms: N_16  and  N_17
REMARK    9  A    between atoms: N_17  and  C_18
REMARK   10  A    between atoms: C_18  and  N_20
REMARK                            x       y       z     vdW  Elec       q    Type
REMARK                         _______ _______ _______ _____ _____    ______ ____
ROOT
ATOM      1  C   UNL     1      -0.013   1.086   0.008  0.00  0.00    +0.135 C 
ATOM      2  N   UNL     1      -0.698   1.558   1.213  0.00  0.00    -0.268 N 
ATOM      3  C   UNL     1      -0.054   1.844   2.504  0.00  0.00    +0.198 C 
ATOM      4  C   UNL     1      -1.217   2.301   3.405  0.00  0.00    +0.198 C 
ATOM      5  N   UNL     1      -2.394   2.224   2.526  0.00  0.00    -0.268 N 
ATOM      6  C   UNL     1      -2.011   1.804   1.313  0.00  0.00    +0.307 C 
ATOM      7  O   UNL     1      -2.786   1.655   0.388  0.00  0.00    -0.252 OA
ATOM      8  C   UNL     1      -3.766   2.560   2.914  0.00  0.00    +0.135 C 
ENDROOT
BRANCH   4   9
ATOM      9  N   UNL     1      -1.369   1.394   4.551  0.00  0.00    -0.218 NA
ATOM     10  H   UNL     1      -0.495   0.941   4.771  0.00  0.00    +0.146 HD
BRANCH   9  11
ATOM     11  N   UNL     1      -1.865   2.058   5.637  0.00  0.00    -0.261 N 
ATOM     12  H   UNL     1      -2.064   3.005   5.578  0.00  0.00    +0.168 HD
BRANCH  11  13
ATOM     13  C   UNL     1      -2.076   1.395   6.792  0.00  0.00    +0.142 C 
ATOM     14  S   UNL     1      -2.696   2.227   8.154  0.00  0.00    -0.018 S 
BRANCH  13  15
ATOM     15  N   UNL     1      -1.798   0.079   6.875  0.00  0.00    -0.340 N 
ATOM     16  H   UNL     1      -1.446  -0.392   6.103  0.00  0.00    +0.144 HD
ATOM     17  H   UNL     1      -1.950  -0.397   7.706  0.00  0.00    +0.144 HD
ENDBRANCH  13  15
ENDBRANCH  11  13
ENDBRANCH   9  11
ENDBRANCH   4   9
BRANCH   3  18
ATOM     18  N   UNL     1       0.938   2.918   2.358  0.00  0.00    -0.218 NA
ATOM     19  H   UNL     1       1.702   2.626   1.767  0.00  0.00    +0.146 HD
BRANCH  18  20
ATOM     20  N   UNL     1       0.358   4.059   1.881  0.00  0.00    -0.261 N 
ATOM     21  H   UNL     1      -0.593   4.075   1.688  0.00  0.00    +0.168 HD
BRANCH  20  22
ATOM     22  C   UNL     1       1.106   5.161   1.678  0.00  0.00    +0.142 C 
ATOM     23  S   UNL     1       0.379   6.591   1.081  0.00  0.00    -0.018 S 
BRANCH  22  24
ATOM     24  N   UNL     1       2.427   5.138   1.946  0.00  0.00    -0.340 N 
ATOM     25  H   UNL     1       2.839   4.328   2.285  0.00  0.00    +0.144 HD
ATOM     26  H   UNL     1       2.965   5.931   1.800  0.00  0.00    +0.144 HD
ENDBRANCH  22  24
ENDBRANCH  20  22
ENDBRANCH  18  20
ENDBRANCH   3  18
TORSDOF 8
