REMARK  Name = ZINC14018072
REMARK  5 active torsions:
REMARK  status: ('A' for Active; 'I' for Inactive)
REMARK    1  A    between atoms: C_1  and  C_2
REMARK    2  A    between atoms: C_2  and  C_4
REMARK    3  A    between atoms: C_2  and  N_14
REMARK    4  A    between atoms: C_15  and  C_17
REMARK    5  A    between atoms: C_17  and  N_18
REMARK                            x       y       z     vdW  Elec       q    Type
REMARK                         _______ _______ _______ _____ _____    ______ ____
ROOT
ATOM      1  C   UNL     1       0.002  -0.004   0.002  0.00  0.00    +0.213 C 
ENDROOT
BRANCH   1   2
ATOM      2  N   UNL     1      -0.018   1.461   0.010  0.00  0.00    -0.215 N 
ATOM      3  C   UNL     1       1.088   2.235   0.004  0.00  0.00    +0.251 C 
ATOM      4  O   UNL     1       2.243   1.866  -0.008  0.00  0.00    -0.272 OA
ATOM      5  C   UNL     1       0.582   3.656   0.015  0.00  0.00    +0.139 C 
ATOM      6  C   UNL     1       1.074   4.403   1.246  0.00  0.00    +0.040 C 
ATOM      7  C   UNL     1       0.685   5.882   1.155  0.00  0.00    +0.008 C 
ATOM      8  C   UNL     1       1.499   6.543   0.033  0.00  0.00    +0.043 C 
ATOM      9  C   UNL     1       1.430   5.675  -1.181  0.00  0.00    -0.005 A 
ATOM     10  C   UNL     1       1.027   4.375  -1.247  0.00  0.00    -0.005 A 
ATOM     11  C   UNL     1       1.053   3.780  -2.508  0.00  0.00    +0.014 A 
ATOM     12  C   UNL     1       1.462   4.489  -3.584  0.00  0.00    +0.046 A 
ATOM     13  S   UNL     1       1.843   6.076  -2.857  0.00  0.00    -0.101 S 
ATOM     14  N   UNL     1      -0.878   3.521   0.027  0.00  0.00    -0.281 N 
ATOM     15  C   UNL     1      -1.135   2.198   0.019  0.00  0.00    +0.310 C 
ATOM     16  O   UNL     1      -2.256   1.728   0.022  0.00  0.00    -0.252 OA
ATOM     17  H   UNL     1      -1.528   4.240   0.036  0.00  0.00    +0.152 HD
ENDBRANCH   1   2
BRANCH   1  19
ATOM     18  N   UNL     1       0.043  -1.840   1.659  0.00  0.00    -0.307 N 
ATOM     19  C   UNL     1       0.022  -0.514   1.420  0.00  0.00    +0.231 C 
ATOM     20  O   UNL     1       0.021   0.269   2.346  0.00  0.00    -0.274 OA
ATOM     21  H   UNL     1       0.044  -2.466   0.918  0.00  0.00    +0.149 HD
BRANCH  18  23
ATOM     22  C   UNL     1       1.505  -2.371   3.546  0.00  0.00    +0.033 C 
ATOM     23  C   UNL     1       0.063  -2.336   3.037  0.00  0.00    +0.100 C 
BRANCH  23  24
ATOM     24  C   UNL     1      -0.519  -3.726   3.080  0.00  0.00    -0.027 A 
ATOM     25  C   UNL     1      -0.214  -4.629   2.063  0.00  0.00    +0.006 A 
ATOM     26  C   UNL     1      -0.722  -5.891   2.071  0.00  0.00    +0.009 A 
ATOM     27  C   UNL     1      -1.567  -6.293   3.119  0.00  0.00    -0.018 A 
ATOM     28  C   UNL     1      -2.111  -7.589   3.162  0.00  0.00    +0.008 A 
ATOM     29  C   UNL     1      -2.925  -7.943   4.193  0.00  0.00    +0.001 A 
ATOM     30  C   UNL     1      -3.230  -7.040   5.210  0.00  0.00    +0.001 A 
ATOM     31  C   UNL     1      -2.722  -5.778   5.202  0.00  0.00    +0.008 A 
ATOM     32  C   UNL     1      -1.877  -5.375   4.153  0.00  0.00    -0.018 A 
ATOM     33  C   UNL     1      -1.329  -4.082   4.114  0.00  0.00    +0.014 A 
ENDBRANCH  23  24
ENDBRANCH  18  23
ENDBRANCH   1  19
TORSDOF 4
