REMARK  Name = ZINC59296886
REMARK  12 active torsions:
REMARK  status: ('A' for Active; 'I' for Inactive)
REMARK    1  A    between atoms: C_1  and  C_2
REMARK    2  A    between atoms: C_5  and  S_8
REMARK    3  A    between atoms: S_8  and  N_11
REMARK    4  A    between atoms: N_11  and  C_12
REMARK    5  A    between atoms: C_12  and  C_13
REMARK    6  A    between atoms: C_13  and  N_14
REMARK    7  A    between atoms: N_17  and  C_18
REMARK    8  A    between atoms: C_18  and  C_19
REMARK    9  A    between atoms: C_19  and  C_21
REMARK   10  A    between atoms: C_19  and  N_24
REMARK   11  A    between atoms: C_21  and  C_22
REMARK   12  A    between atoms: C_21  and  C_23
REMARK                            x       y       z     vdW  Elec       q    Type
REMARK                         _______ _______ _______ _____ _____    ______ ____
ROOT
ATOM      1  N   UNL     1       5.035  -5.169   1.610  0.00  0.00    -0.298 N 
ATOM      2  C   UNL     1       6.077  -5.922   2.014  0.00  0.00    +0.300 C 
ATOM      3  O   UNL     1       6.319  -6.974   1.454  0.00  0.00    -0.253 OA
ATOM      4  N   UNL     1       6.851  -5.510   3.037  0.00  0.00    -0.301 N 
ATOM      5  H   UNL     1       4.842  -4.329   2.056  0.00  0.00    +0.150 HD
ATOM      6  H   UNL     1       6.658  -4.670   3.483  0.00  0.00    +0.150 HD
ENDROOT
BRANCH   1   7
ATOM      7  C   UNL     1       4.194  -5.617   0.498  0.00  0.00    +0.122 C 
BRANCH   7   8
ATOM      8  C   UNL     1       3.091  -4.587   0.245  0.00  0.00    +0.124 C 
BRANCH   8   9
ATOM      9  N   UNL     1       2.250  -5.036  -0.868  0.00  0.00    -0.188 NA
ATOM     10  H   UNL     1       2.557  -5.748  -1.451  0.00  0.00    +0.148 HD
BRANCH   9  11
ATOM     11  S   UNL     1       0.776  -4.328  -1.129  0.00  0.00    +0.058 S 
ATOM     12  O   UNL     1       0.107  -4.310   0.125  0.00  0.00    -0.153 OA
ATOM     13  O   UNL     1       0.223  -4.954  -2.279  0.00  0.00    -0.153 OA
BRANCH  11  18
ATOM     14  C   UNL     1       1.796   1.428  -2.621  0.00  0.00    +0.044 C 
ATOM     15  C   UNL     1       1.542  -0.010  -2.248  0.00  0.00    -0.050 A 
ATOM     16  C   UNL     1       1.482  -0.979  -3.232  0.00  0.00    +0.005 A 
ATOM     17  C   UNL     1       1.248  -2.297  -2.890  0.00  0.00    +0.029 A 
ATOM     18  C   UNL     1       1.075  -2.647  -1.565  0.00  0.00    +0.105 A 
ATOM     19  C   UNL     1       1.136  -1.679  -0.580  0.00  0.00    +0.029 A 
ATOM     20  C   UNL     1       1.374  -0.360  -0.922  0.00  0.00    +0.005 A 
ENDBRANCH  11  18
ENDBRANCH   9  11
ENDBRANCH   8   9
ENDBRANCH   7   8
ENDBRANCH   1   7
BRANCH   4  21
ATOM     21  C   UNL     1       7.984  -6.329   3.475  0.00  0.00    +0.091 C 
BRANCH  21  22
ATOM     22  C   UNL     1       8.643  -5.678   4.693  0.00  0.00    -0.048 C 
BRANCH  22  23
ATOM     23  N   UNL     1       7.773  -5.841   5.866  0.00  0.00    +0.383 N 
ATOM     24  C   UNL     1       7.506  -7.280   6.060  0.00  0.00    -0.078 C 
ATOM     25  C   UNL     1       7.164  -7.506   7.512  0.00  0.00    -0.019 C 
ATOM     26  C   UNL     1       5.641  -7.519   7.737  0.00  0.00    -0.002 C 
ATOM     27  C   UNL     1       4.931  -6.429   6.908  0.00  0.00    -0.002 C 
ATOM     28  C   UNL     1       5.687  -5.125   6.905  0.00  0.00    -0.019 C 
ATOM     29  C   UNL     1       6.616  -5.084   5.674  0.00  0.00    -0.078 C 
ATOM     30  H   UNL     1       8.258  -5.491   6.679  0.00  0.00    -0.081 HD
ENDBRANCH  22  23
BRANCH  22  31
ATOM     31  C   UNL     1       9.992  -6.348   4.962  0.00  0.00    -0.029 C 
ATOM     32  C   UNL     1      10.946  -6.055   3.802  0.00  0.00    +0.005 C 
ATOM     33  C   UNL     1      10.584  -5.798   6.261  0.00  0.00    +0.005 C 
ENDBRANCH  22  31
ENDBRANCH  21  22
ENDBRANCH   4  21
TORSDOF 9
