REMARK  Name = ZINC38050249
REMARK  6 active torsions:
REMARK  status: ('A' for Active; 'I' for Inactive)
REMARK    1  A    between atoms: C_4  and  C_7
REMARK    2  A    between atoms: C_7  and  C_8
REMARK    3  A    between atoms: C_8  and  S_9
REMARK    4  A    between atoms: S_9  and  N_12
REMARK    5  A    between atoms: N_12  and  C_13
REMARK    6  A    between atoms: C_19  and  N_21
REMARK                            x       y       z     vdW  Elec       q    Type
REMARK                         _______ _______ _______ _____ _____    ______ ____
ROOT
ATOM      1  N   UNL     1       6.143  -2.064   2.973  0.00  0.00    -0.193 NA
ATOM      2  H   UNL     1       6.926  -1.630   3.345  0.00  0.00    +0.148 HD
ENDROOT
BRANCH   1   3
ATOM      3  C   UNL     1       5.302  -2.911   3.824  0.00  0.00    +0.062 C 
ATOM      4  C   UNL     1       5.884  -4.326   3.869  0.00  0.00    +0.019 C 
ATOM      5  C   UNL     1       5.006  -5.210   4.757  0.00  0.00    +0.001 C 
ATOM      6  C   UNL     1       4.965  -4.630   6.172  0.00  0.00    -0.001 C 
ATOM      7  C   UNL     1       4.383  -3.216   6.127  0.00  0.00    -0.015 C 
ATOM      8  C   UNL     1       5.261  -2.332   5.239  0.00  0.00    -0.056 C 
BRANCH   8   9
ATOM      9  N   UNL     1       4.703  -0.973   5.196  0.00  0.00    +0.381 N 
ATOM     10  H   UNL     1       3.768  -1.006   4.818  0.00  0.00    -0.090 HD
ATOM     11  H   UNL     1       4.676  -0.591   6.129  0.00  0.00    -0.090 HD
ATOM     12  H   UNL     1       5.282  -0.390   4.610  0.00  0.00    -0.090 HD
ENDBRANCH   8   9
ENDBRANCH   1   3
BRANCH   1  13
ATOM     13  S   UNL     1       5.754  -1.849   1.378  0.00  0.00    +0.030 S 
ATOM     14  O   UNL     1       5.574  -3.163   0.868  0.00  0.00    -0.158 OA
ATOM     15  O   UNL     1       6.779  -1.008   0.866  0.00  0.00    -0.158 OA
BRANCH  13  16
ATOM     16  C   UNL     1       4.171  -0.963   1.399  0.00  0.00    +0.189 C 
BRANCH  16  17
ATOM     17  C   UNL     1       3.711  -0.707  -0.038  0.00  0.00    +0.059 C 
BRANCH  17  21
ATOM     18  C   UNL     1      -0.017   1.378   0.010  0.00  0.00    +0.000 A 
ATOM     19  C   UNL     1       1.171   2.086   0.002  0.00  0.00    +0.000 A 
ATOM     20  C   UNL     1       2.377   1.411  -0.013  0.00  0.00    +0.004 A 
ATOM     21  C   UNL     1       2.396   0.029  -0.020  0.00  0.00    -0.046 A 
ATOM     22  C   UNL     1       1.208  -0.679  -0.012  0.00  0.00    +0.004 A 
ATOM     23  C   UNL     1       0.002  -0.004   0.002  0.00  0.00    +0.000 A 
ENDBRANCH  17  21
ENDBRANCH  16  17
ENDBRANCH  13  16
ENDBRANCH   1  13
TORSDOF 6
