REMARK  Name = ZINC39652736
REMARK  11 active torsions:
REMARK  status: ('A' for Active; 'I' for Inactive)
REMARK    1  A    between atoms: C_1  and  C_2
REMARK    2  A    between atoms: C_2  and  O_3
REMARK    3  A    between atoms: O_3  and  C_4
REMARK    4  A    between atoms: C_9  and  C_10
REMARK    5  A    between atoms: C_10  and  C_11
REMARK    6  A    between atoms: C_11  and  N_12
REMARK    7  A    between atoms: C_13  and  C_15
REMARK    8  A    between atoms: C_26  and  C_28
REMARK    9  A    between atoms: C_31  and  O_38
REMARK   10  A    between atoms: C_32  and  C_34
REMARK   11  A    between atoms: O_38  and  C_39
REMARK                            x       y       z     vdW  Elec       q    Type
REMARK                         _______ _______ _______ _____ _____    ______ ____
ROOT
ATOM      1  C   UNL     1      -7.269   0.518  -2.715  0.00  0.00    +0.100 C 
ATOM      2  C   UNL     1      -8.606   0.032  -2.111  0.00  0.00    +0.121 C 
ATOM      3  N   UNL     1      -9.649   0.664  -2.954  0.00  0.00    -0.296 N 
ATOM      4  C   UNL     1      -9.107   0.586  -4.331  0.00  0.00    +0.115 C 
ATOM      5  C   UNL     1      -7.602   0.880  -4.172  0.00  0.00    -0.004 C 
ATOM      6  C   UNL     1      -7.324   2.358  -4.426  0.00  0.00    -0.010 C 
ATOM      7  C   UNL     1      -7.609   2.681  -5.896  0.00  0.00    -0.082 C 
ATOM      8  N   UNL     1      -6.759   1.847  -6.755  0.00  0.00    +0.379 N 
ATOM      9  C   UNL     1      -7.098   0.431  -6.572  0.00  0.00    -0.082 C 
ATOM     10  C   UNL     1      -6.792   0.013  -5.131  0.00  0.00    -0.010 C 
ATOM     11  C   UNL     1     -10.824   1.190  -2.557  0.00  0.00    +0.247 C 
ATOM     12  O   UNL     1     -11.073   1.296  -1.371  0.00  0.00    -0.270 OA
ATOM     13  H   UNL     1      -6.904   2.104  -7.720  0.00  0.00    -0.086 HD
ATOM     14  H   UNL     1      -5.791   1.994  -6.513  0.00  0.00    -0.086 HD
ENDROOT
BRANCH  11  15
ATOM     15  C   UNL     1     -11.809   1.638  -3.561  0.00  0.00    +0.038 A 
ATOM     16  C   UNL     1     -11.751   1.146  -4.867  0.00  0.00    +0.016 A 
ATOM     17  C   UNL     1     -12.671   1.566  -5.801  0.00  0.00    +0.047 A 
ATOM     18  C   UNL     1     -13.658   2.479  -5.445  0.00  0.00    +0.132 A 
ATOM     19  C   UNL     1     -13.719   2.971  -4.147  0.00  0.00    +0.097 A 
ATOM     20  C   UNL     1     -12.805   2.551  -3.206  0.00  0.00    +0.029 A 
BRANCH  19  21
ATOM     21  C   UNL     1     -14.790   3.960  -3.767  0.00  0.00    +0.421 C 
ATOM     22  F   UNL     1     -14.648   4.306  -2.419  0.00  0.00    -0.166 F 
ATOM     23  F   UNL     1     -14.667   5.107  -4.558  0.00  0.00    -0.166 F 
ATOM     24  F   UNL     1     -16.049   3.386  -3.971  0.00  0.00    -0.166 F 
ENDBRANCH  19  21
BRANCH  18  25
ATOM     25  O   UNL     1     -14.563   2.891  -6.369  0.00  0.00    -0.495 OA
ATOM     26  C   UNL     1     -14.442   2.345  -7.684  0.00  0.00    +0.277 C 
ENDBRANCH  18  25
ENDBRANCH  11  15
BRANCH   1  28
ATOM     27  N   UNL     1      -4.934  -0.281  -2.555  0.00  0.00    -0.315 N 
ATOM     28  C   UNL     1      -6.242  -0.584  -2.670  0.00  0.00    +0.218 C 
ATOM     29  O   UNL     1      -6.592  -1.743  -2.736  0.00  0.00    -0.275 OA
ATOM     30  H   UNL     1      -4.653   0.646  -2.502  0.00  0.00    +0.149 HD
BRANCH  27  31
ATOM     31  C   UNL     1      -3.935  -1.352  -2.511  0.00  0.00    +0.109 C 
BRANCH  31  32
ATOM     32  C   UNL     1      -2.538  -0.741  -2.379  0.00  0.00    +0.057 C 
BRANCH  32  38
ATOM     33  C   UNL     1      -1.018  -2.382  -3.513  0.00  0.00    +0.124 A 
ATOM     34  C   UNL     1      -0.069  -3.392  -3.468  0.00  0.00    +0.046 A 
ATOM     35  C   UNL     1       0.380  -3.863  -2.250  0.00  0.00    +0.004 A 
ATOM     36  C   UNL     1      -0.116  -3.327  -1.075  0.00  0.00    +0.000 A 
ATOM     37  C   UNL     1      -1.063  -2.321  -1.117  0.00  0.00    +0.007 A 
ATOM     38  C   UNL     1      -1.511  -1.843  -2.334  0.00  0.00    -0.004 A 
BRANCH  33  39
ATOM     39  O   UNL     1      -1.461  -1.917  -4.711  0.00  0.00    -0.492 OA
BRANCH  39  41
ATOM     40  C   UNL     1      -1.525  -1.870  -7.127  0.00  0.00    +0.048 C 
ATOM     41  C   UNL     1      -0.911  -2.519  -5.884  0.00  0.00    +0.225 C 
ENDBRANCH  39  41
ENDBRANCH  33  39
ENDBRANCH  32  38
ENDBRANCH  31  32
ENDBRANCH  27  31
ENDBRANCH   1  28
TORSDOF 9
