REMARK  Name = ZINC37769689
REMARK  6 active torsions:
REMARK  status: ('A' for Active; 'I' for Inactive)
REMARK    1  A    between atoms: C_1  and  C_2
REMARK    2  A    between atoms: C_2  and  C_4
REMARK    3  A    between atoms: C_2  and  N_18
REMARK    4  A    between atoms: N_6  and  C_7
REMARK    5  A    between atoms: C_7  and  C_9
REMARK    6  A    between atoms: C_7  and  C_10
REMARK                            x       y       z     vdW  Elec       q    Type
REMARK                         _______ _______ _______ _____ _____    ______ ____
ROOT
ATOM      1  C   UNL     1      -1.418  -0.191   0.126  0.00  0.00    +0.199 C 
ATOM      2  O   UNL     1      -1.657  -0.936  -0.801  0.00  0.00    -0.278 OA
ATOM      3  N   UNL     1      -2.330  -0.015   1.102  0.00  0.00    -0.306 N 
ATOM      4  H   UNL     1      -2.139   0.582   1.843  0.00  0.00    +0.149 HD
ENDROOT
BRANCH   1   6
ATOM      5  C   UNL     1      -0.351   2.047   0.188  0.00  0.00    -0.005 C 
ATOM      6  C   UNL     1      -0.100   0.538   0.186  0.00  0.00    +0.010 C 
BRANCH   6   7
ATOM      7  N   UNL     1       0.712   0.179  -0.985  0.00  0.00    +0.385 N 
ATOM      8  H   UNL     1       1.594   0.667  -0.945  0.00  0.00    -0.089 HD
ATOM      9  H   UNL     1       0.878  -0.817  -0.987  0.00  0.00    -0.089 HD
ATOM     10  H   UNL     1       0.221   0.439  -1.827  0.00  0.00    -0.089 HD
ENDBRANCH   6   7
ENDBRANCH   1   6
BRANCH   3  11
ATOM     11  C   UNL     1      -3.611  -0.723   1.044  0.00  0.00    +0.156 C 
ATOM     12  C   UNL     1      -4.595   0.072   0.182  0.00  0.00    +0.038 C 
BRANCH  11  13
ATOM     13  C   UNL     1      -4.168  -0.870   2.436  0.00  0.00    +0.236 C 
ATOM     14  O   UNL     1      -3.752  -0.167   3.333  0.00  0.00    -0.274 OA
ATOM     15  N   UNL     1      -5.128  -1.782   2.686  0.00  0.00    -0.300 N 
ATOM     16  C   UNL     1      -5.561  -2.718   1.640  0.00  0.00    +0.108 C 
ATOM     17  C   UNL     1      -5.455  -4.147   2.183  0.00  0.00    +0.019 C 
ATOM     18  C   UNL     1      -6.248  -4.252   3.488  0.00  0.00    +0.003 C 
ATOM     19  C   UNL     1      -5.655  -3.296   4.525  0.00  0.00    +0.019 C 
ATOM     20  C   UNL     1      -5.759  -1.862   4.010  0.00  0.00    +0.108 C 
ENDBRANCH  11  13
ENDBRANCH   3  11
TORSDOF 4
