REMARK  Name = ZINC38705726
REMARK  13 active torsions:
REMARK  status: ('A' for Active; 'I' for Inactive)
REMARK    1  A    between atoms: C_1  and  C_2
REMARK    2  A    between atoms: C_2  and  C_3
REMARK    3  A    between atoms: C_3  and  C_4
REMARK    4  A    between atoms: C_4  and  C_5
REMARK    5  A    between atoms: C_5  and  O_6
REMARK    6  A    between atoms: O_6  and  C_7
REMARK    7  A    between atoms: C_11  and  C_13
REMARK    8  A    between atoms: C_16  and  C_32
REMARK    9  A    between atoms: N_23  and  C_24
REMARK   10  A    between atoms: C_24  and  C_25
REMARK   11  A    between atoms: C_33  and  C_40
REMARK   12  A    between atoms: C_35  and  C_39
REMARK   13  A    between atoms: C_37  and  O_38
REMARK                            x       y       z     vdW  Elec       q    Type
REMARK                         _______ _______ _______ _____ _____    ______ ____
ROOT
ATOM      1  C   UNL     1       2.786  -7.721  -5.018  0.00  0.00    +0.142 C 
ATOM      2  C   UNL     1       1.670  -8.409  -5.755  0.00  0.00    +0.035 A 
ATOM      3  C   UNL     1       0.295  -8.647  -5.858  0.00  0.00    +0.102 A 
ATOM      4  N   UNL     1       0.110  -9.447  -6.889  0.00  0.00    -0.173 NA
ATOM      5  N   UNL     1       1.231  -9.738  -7.447  0.00  0.00    -0.272 N 
ATOM      6  H   UNL     1       1.335 -10.312  -8.223  0.00  0.00    +0.189 HD
ATOM      7  C   UNL     1       2.254  -9.120  -6.786  0.00  0.00    +0.126 A 
ATOM      8  C   UNL     1       3.705  -8.911  -6.734  0.00  0.00    +0.266 C 
ATOM      9  O   UNL     1       4.505  -9.402  -7.507  0.00  0.00    -0.268 OA
ATOM     10  N   UNL     1       4.026  -8.100  -5.708  0.00  0.00    -0.281 N 
ENDROOT
BRANCH   3  11
ATOM     11  C   UNL     1      -0.760  -8.099  -4.970  0.00  0.00    +0.047 A 
ATOM     12  C   UNL     1      -1.903  -7.521  -5.516  0.00  0.00    -0.037 A 
ATOM     13  C   UNL     1      -2.882  -7.013  -4.686  0.00  0.00    +0.007 A 
ATOM     14  C   UNL     1      -2.732  -7.076  -3.312  0.00  0.00    -0.047 A 
ATOM     15  C   UNL     1      -1.601  -7.647  -2.760  0.00  0.00    +0.049 A 
ATOM     16  C   UNL     1      -0.614  -8.166  -3.582  0.00  0.00    +0.127 A 
ATOM     17  C   UNL     1      -3.806  -6.519  -2.414  0.00  0.00    +0.044 C 
ATOM     18  C   UNL     1      -2.071  -7.450  -7.012  0.00  0.00    +0.044 C 
BRANCH  16  19
ATOM     19  O   UNL     1       0.495  -8.734  -3.040  0.00  0.00    -0.506 OA
ATOM     20  H   UNL     1       1.195  -8.102  -2.825  0.00  0.00    +0.292 HD
ENDBRANCH  16  19
ENDBRANCH   3  11
BRANCH   1  25
ATOM     21  C   UNL     1       2.062  -4.161  -3.978  0.00  0.00    +0.121 A 
ATOM     22  C   UNL     1       2.256  -3.482  -5.172  0.00  0.00    +0.045 A 
ATOM     23  C   UNL     1       2.621  -4.176  -6.309  0.00  0.00    +0.004 A 
ATOM     24  C   UNL     1       2.792  -5.547  -6.258  0.00  0.00    +0.006 A 
ATOM     25  C   UNL     1       2.599  -6.227  -5.069  0.00  0.00    -0.019 A 
ATOM     26  C   UNL     1       2.240  -5.536  -3.928  0.00  0.00    +0.051 A 
BRANCH  21  27
ATOM     27  O   UNL     1       1.704  -3.480  -2.858  0.00  0.00    -0.492 OA
BRANCH  27  28
ATOM     28  C   UNL     1       1.539  -2.066  -2.983  0.00  0.00    +0.229 C 
BRANCH  28  29
ATOM     29  C   UNL     1       1.138  -1.477  -1.629  0.00  0.00    +0.041 C 
BRANCH  29  30
ATOM     30  C   UNL     1       0.961   0.036  -1.763  0.00  0.00    +0.003 C 
BRANCH  30  32
ATOM     31  C   UNL     1       0.384   2.139  -0.543  0.00  0.00    +0.004 C 
ATOM     32  C   UNL     1       0.561   0.625  -0.409  0.00  0.00    -0.003 C 
ENDBRANCH  30  32
ENDBRANCH  29  30
ENDBRANCH  28  29
ENDBRANCH  27  28
ENDBRANCH  21  27
ENDBRANCH   1  25
BRANCH  10  33
ATOM     33  C   UNL     1       5.377  -7.668  -5.344  0.00  0.00    +0.144 C 
BRANCH  33  34
ATOM     34  C   UNL     1       5.972  -8.648  -4.366  0.00  0.00    -0.030 A 
ATOM     35  C   UNL     1       5.791  -8.464  -3.008  0.00  0.00    +0.008 A 
ATOM     36  C   UNL     1       6.335  -9.363  -2.110  0.00  0.00    +0.038 A 
ATOM     37  C   UNL     1       7.061 -10.447  -2.571  0.00  0.00    +0.123 A 
ATOM     38  C   UNL     1       7.242 -10.630  -3.931  0.00  0.00    +0.038 A 
ATOM     39  C   UNL     1       6.693  -9.733  -4.828  0.00  0.00    +0.008 A 
ATOM     40  F   UNL     1       7.594 -11.326  -1.694  0.00  0.00    -0.205 F 
ENDBRANCH  33  34
ENDBRANCH  10  33
TORSDOF 10
