REMARK  Name = ZINC36545254
REMARK  15 active torsions:
REMARK  status: ('A' for Active; 'I' for Inactive)
REMARK    1  A    between atoms: C_1  and  C_2
REMARK    2  A    between atoms: C_2  and  C_3
REMARK    3  A    between atoms: C_2  and  C_4
REMARK    4  A    between atoms: C_2  and  N_5
REMARK    5  A    between atoms: C_6  and  C_8
REMARK    6  A    between atoms: C_8  and  C_10
REMARK    7  A    between atoms: C_8  and  N_20
REMARK    8  A    between atoms: C_13  and  O_18
REMARK    9  A    between atoms: C_14  and  O_16
REMARK   10  A    between atoms: O_16  and  C_17
REMARK   11  A    between atoms: O_18  and  C_19
REMARK   12  A    between atoms: N_20  and  C_21
REMARK   13  A    between atoms: C_28  and  C_30
REMARK   14  A    between atoms: C_31  and  O_37
REMARK   15  A    between atoms: C_35  and  O_36
REMARK                            x       y       z     vdW  Elec       q    Type
REMARK                         _______ _______ _______ _____ _____    ______ ____
ROOT
ATOM      1  N   UNL     1       4.171  -0.246  -2.526  0.00  0.00    -0.250 N 
ATOM      2  C   UNL     1       4.426   1.075  -2.598  0.00  0.00    +0.259 C 
ATOM      3  O   UNL     1       3.507   1.868  -2.685  0.00  0.00    -0.269 OA
ENDROOT
BRANCH   1   4
ATOM      4  C   UNL     1       5.221  -1.151  -2.333  0.00  0.00    +0.056 A 
ATOM      5  C   UNL     1       5.596  -1.519  -1.048  0.00  0.00    +0.025 A 
ATOM      6  C   UNL     1       6.632  -2.413  -0.862  0.00  0.00    +0.002 A 
ATOM      7  C   UNL     1       7.296  -2.942  -1.954  0.00  0.00    +0.002 A 
ATOM      8  C   UNL     1       6.926  -2.578  -3.235  0.00  0.00    +0.022 A 
ATOM      9  C   UNL     1       5.886  -1.688  -3.429  0.00  0.00    +0.062 A 
ATOM     10 CL   UNL     1       5.418  -1.236  -5.038  0.00  0.00    -0.082 Cl
ENDBRANCH   1   4
BRANCH   2  11
ATOM     11  C   UNL     1       5.815   1.560  -2.570  0.00  0.00    +0.120 A 
ATOM     12  C   UNL     1       6.494   1.827  -3.769  0.00  0.00    +0.133 A 
ATOM     13  C   UNL     1       7.801   2.283  -3.732  0.00  0.00    +0.046 A 
ATOM     14  C   UNL     1       8.438   2.474  -2.519  0.00  0.00    +0.007 A 
ATOM     15  C   UNL     1       7.779   2.214  -1.332  0.00  0.00    +0.046 A 
ATOM     16  C   UNL     1       6.469   1.764  -1.346  0.00  0.00    +0.133 A 
BRANCH  16  17
ATOM     17  O   UNL     1       5.822   1.514  -0.180  0.00  0.00    -0.506 OA
ATOM     18  H   UNL     1       5.994   0.635   0.185  0.00  0.00    +0.292 HD
ENDBRANCH  16  17
BRANCH  12  19
ATOM     19  O   UNL     1       5.872   1.640  -4.960  0.00  0.00    -0.506 OA
ATOM     20  H   UNL     1       5.400   2.419  -5.284  0.00  0.00    +0.292 HD
ENDBRANCH  12  19
ENDBRANCH   2  11
BRANCH   1  21
ATOM     21  C   UNL     1       2.796  -0.735  -2.648  0.00  0.00    +0.198 C 
BRANCH  21  22
ATOM     22  C   UNL     1       2.209  -0.263  -3.954  0.00  0.00    -0.014 A 
ATOM     23  C   UNL     1       2.991   0.452  -4.842  0.00  0.00    +0.010 A 
ATOM     24  C   UNL     1       2.458   0.887  -6.041  0.00  0.00    +0.050 A 
ATOM     25  C   UNL     1       1.137   0.606  -6.355  0.00  0.00    +0.162 A 
ATOM     26  C   UNL     1       0.351  -0.114  -5.461  0.00  0.00    +0.162 A 
ATOM     27  C   UNL     1       0.893  -0.551  -4.263  0.00  0.00    +0.055 A 
BRANCH  26  28
ATOM     28  O   UNL     1      -0.945  -0.393  -5.765  0.00  0.00    -0.491 OA
ATOM     29  C   UNL     1      -1.692  -1.136  -4.800  0.00  0.00    +0.277 C 
ENDBRANCH  26  28
BRANCH  25  30
ATOM     30  O   UNL     1       0.612   1.034  -7.534  0.00  0.00    -0.491 OA
ATOM     31  C   UNL     1       1.477   1.768  -8.402  0.00  0.00    +0.277 C 
ENDBRANCH  25  30
ENDBRANCH  21  22
BRANCH  21  33
ATOM     32  N   UNL     1       0.768  -0.749  -1.231  0.00  0.00    -0.309 N 
ATOM     33  C   UNL     1       1.970  -0.203  -1.505  0.00  0.00    +0.239 C 
ATOM     34  O   UNL     1       2.386   0.716  -0.833  0.00  0.00    -0.273 OA
ATOM     35  H   UNL     1       0.402  -1.433  -1.813  0.00  0.00    +0.149 HD
BRANCH  32  37
ATOM     36  C   UNL     1      -0.275   1.188  -0.163  0.00  0.00    +0.031 C 
ATOM     37  C   UNL     1       0.016  -0.310  -0.053  0.00  0.00    +0.026 C 
ATOM     38  C   UNL     1       0.841  -0.578   1.208  0.00  0.00    +0.031 C 
ATOM     39  C   UNL     1      -1.303  -1.082   0.027  0.00  0.00    +0.031 C 
ENDBRANCH  32  37
ENDBRANCH  21  33
ENDBRANCH   1  21
TORSDOF 10
