REMARK  Name = ZINC44438102
REMARK  7 active torsions:
REMARK  status: ('A' for Active; 'I' for Inactive)
REMARK    1  A    between atoms: C_1  and  N_2
REMARK    2  A    between atoms: N_2  and  C_3
REMARK    3  A    between atoms: N_2  and  C_12
REMARK    4  A    between atoms: C_3  and  C_4
REMARK    5  A    between atoms: C_12  and  C_13
REMARK    6  A    between atoms: N_15  and  C_16
REMARK    7  A    between atoms: C_17  and  C_21
REMARK                            x       y       z     vdW  Elec       q    Type
REMARK                         _______ _______ _______ _____ _____    ______ ____
ROOT
ATOM      1  C   UNL     1       2.158  -0.072   1.120  0.00  0.00    +0.201 C 
ATOM      2  O   UNL     1       2.558   0.569   0.171  0.00  0.00    -0.278 OA
ATOM      3  N   UNL     1       3.008  -0.409   2.111  0.00  0.00    -0.281 N 
ATOM      4  H   UNL     1       2.688  -0.922   2.870  0.00  0.00    +0.155 HD
ENDROOT
BRANCH   3   5
ATOM      5  C   UNL     1       4.338  -0.024   2.045  0.00  0.00    +0.084 A 
ATOM      6  C   UNL     1       5.348  -0.284   2.960  0.00  0.00    +0.065 A 
ATOM      7  C   UNL     1       6.657   0.239   2.643  0.00  0.00    +0.022 A 
ATOM      8  C   UNL     1       6.752   0.924   1.489  0.00  0.00    +0.048 A 
ATOM      9  S   UNL     1       5.098   0.857   0.836  0.00  0.00    -0.081 S 
BRANCH   6  10
ATOM     10  C   UNL     1       5.099  -1.049   4.185  0.00  0.00    +0.244 C 
ATOM     11  O   UNL     1       3.983  -1.475   4.421  0.00  0.00    -0.270 OA
ATOM     12  N   UNL     1       6.106  -1.281   5.051  0.00  0.00    -0.325 N 
ATOM     13  H   UNL     1       6.995  -0.942   4.863  0.00  0.00    +0.145 HD
ATOM     14  H   UNL     1       5.941  -1.788   5.862  0.00  0.00    +0.145 HD
ENDBRANCH   6  10
ENDBRANCH   3   5
BRANCH   1  15
ATOM     15  C   UNL     1       0.713  -0.491   1.192  0.00  0.00    +0.019 C 
BRANCH  15  17
ATOM     16  C   UNL     1      -0.018   1.465   0.010  0.00  0.00    -0.095 C 
ATOM     17  N   UNL     1       0.002  -0.004   0.002  0.00  0.00    +0.386 N 
ATOM     18  H   UNL     1       0.474  -0.330  -0.828  0.00  0.00    -0.081 HD
BRANCH  17  19
ATOM     19  C   UNL     1      -1.376  -0.512   0.012  0.00  0.00    -0.043 C 
BRANCH  19  20
ATOM     20  C   UNL     1      -2.067  -0.116  -1.267  0.00  0.00    -0.061 A 
ATOM     21  C   UNL     1      -2.750   1.084  -1.339  0.00  0.00    +0.005 A 
ATOM     22  C   UNL     1      -3.385   1.450  -2.511  0.00  0.00    +0.041 A 
ATOM     23  C   UNL     1      -3.337   0.614  -3.614  0.00  0.00    +0.158 A 
ATOM     24  C   UNL     1      -2.652  -0.589  -3.541  0.00  0.00    +0.159 A 
ATOM     25  C   UNL     1      -2.013  -0.950  -2.368  0.00  0.00    +0.043 A 
ATOM     26  F   UNL     1      -2.605  -1.406  -4.616  0.00  0.00    -0.202 F 
ATOM     27  F   UNL     1      -3.958   0.971  -4.760  0.00  0.00    -0.202 F 
ENDBRANCH  19  20
ENDBRANCH  17  19
ENDBRANCH  15  17
ENDBRANCH   1  15
TORSDOF 6
