REMARK  Name = ZINC54380714
REMARK  6 active torsions:
REMARK  status: ('A' for Active; 'I' for Inactive)
REMARK    1  A    between atoms: C_1  and  C_2
REMARK    2  A    between atoms: C_2  and  C_3
REMARK    3  A    between atoms: C_2  and  C_4
REMARK    4  A    between atoms: C_2  and  O_5
REMARK    5  A    between atoms: O_5  and  C_6
REMARK    6  A    between atoms: C_7  and  C_12
REMARK                            x       y       z     vdW  Elec       q    Type
REMARK                         _______ _______ _______ _____ _____    ______ ____
ROOT
ATOM      1  C   UNL     1       2.016  -0.211  -1.266  0.00  0.00    +0.245 A 
ATOM      2  C   UNL     1       2.676  -0.491  -2.470  0.00  0.00    +0.162 A 
ATOM      3  N   UNL     1       3.887   0.012  -2.691  0.00  0.00    -0.245 NA
ATOM      4  C   UNL     1       4.460   0.772  -1.779  0.00  0.00    +0.131 A 
ATOM      5  C   UNL     1       3.807   1.049  -0.588  0.00  0.00    +0.134 A 
ATOM      6  N   UNL     1       2.601   0.559  -0.359  0.00  0.00    -0.218 NA
ENDROOT
BRANCH   2   7
ATOM      7  C   UNL     1       2.030  -1.345  -3.491  0.00  0.00    +0.118 C 
ATOM      8  N   UNL     1       2.335  -1.191  -4.778  0.00  0.00    -0.385 N 
ATOM      9  N   UNL     1       1.142  -2.267  -3.123  0.00  0.00    -0.343 N 
ATOM     10  H   UNL     1       1.859  -1.699  -5.454  0.00  0.00    +0.157 HD
ATOM     11  H   UNL     1       0.919  -2.379  -2.186  0.00  0.00    +0.144 HD
ATOM     12  H   UNL     1       0.718  -2.826  -3.793  0.00  0.00    +0.144 HD
ATOM     13  H   UNL     1       3.034  -0.572  -5.040  0.00  0.00    +0.157 HD
ENDBRANCH   2   7
BRANCH   1  14
ATOM     14  O   UNL     1       0.782  -0.719  -1.033  0.00  0.00    -0.469 OA
BRANCH  14  16
ATOM     15  C   UNL     1       0.013   1.134   0.315  0.00  0.00    +0.055 C 
ATOM     16  C   UNL     1       0.168  -0.385   0.213  0.00  0.00    +0.104 C 
ATOM     17  C   UNL     1       1.043  -0.886   1.364  0.00  0.00    +0.055 C 
ATOM     18  C   UNL     1      -1.210  -1.045   0.296  0.00  0.00    +0.055 C 
ENDBRANCH  14  16
ENDBRANCH   1  14
TORSDOF 3
