REMARK  Name = ZINC39231985
REMARK  4 active torsions:
REMARK  status: ('A' for Active; 'I' for Inactive)
REMARK    1  A    between atoms: C_1  and  C_2
REMARK    2  A    between atoms: C_5  and  C_9
REMARK    3  A    between atoms: C_6  and  C_8
REMARK    4  A    between atoms: C_19  and  C_21
REMARK                            x       y       z     vdW  Elec       q    Type
REMARK                         _______ _______ _______ _____ _____    ______ ____
ROOT
ATOM      1  C   UNL     1       0.196  -4.143  -0.135  0.00  0.00    +0.060 C 
ATOM      2  N   UNL     1       0.212  -4.734   1.026  0.00  0.00    -0.233 NA
ATOM      3  C   UNL     1       0.028  -6.064   0.967  0.00  0.00    +0.144 A 
ATOM      4  C   UNL     1      -0.136  -6.476  -0.342  0.00  0.00    +0.069 A 
ATOM      5  C   UNL     1      -0.343  -7.827  -0.634  0.00  0.00    +0.260 A 
ATOM      6  N   UNL     1      -0.380  -8.722   0.377  0.00  0.00    -0.275 N 
ATOM      7  C   UNL     1      -0.220  -8.318   1.649  0.00  0.00    +0.328 A 
ATOM      8  N   UNL     1      -0.020  -7.026   1.962  0.00  0.00    -0.292 N 
ATOM      9  O   UNL     1      -0.258  -9.143   2.542  0.00  0.00    -0.247 OA
ATOM     10  O   UNL     1      -0.488  -8.194  -1.787  0.00  0.00    -0.267 OA
ATOM     11  C   UNL     1      -0.042  -5.220  -1.177  0.00  0.00    +0.096 C 
ATOM     12  H   UNL     1      -0.523  -9.661   0.184  0.00  0.00    +0.173 HD
ATOM     13  H   UNL     1       0.092  -6.766   2.889  0.00  0.00    +0.172 HD
ENDROOT
BRANCH  11  14
ATOM     14  C   UNL     1      -1.349  -4.967  -1.930  0.00  0.00    +0.149 C 
ATOM     15  C   UNL     1      -2.485  -4.988  -0.925  0.00  0.00    +0.100 C 
ATOM     16  N   UNL     1      -3.449  -5.858  -1.108  0.00  0.00    -0.152 NA
ATOM     17  C   UNL     1      -3.463  -6.712  -2.134  0.00  0.00    +0.331 C 
ATOM     18  O   UNL     1      -4.404  -7.479  -2.216  0.00  0.00    -0.250 OA
ATOM     19  N   UNL     1      -2.519  -6.785  -3.080  0.00  0.00    -0.238 N 
ATOM     20  C   UNL     1      -1.444  -5.973  -3.063  0.00  0.00    +0.231 C 
ATOM     21  O   UNL     1      -0.589  -6.043  -3.920  0.00  0.00    -0.275 OA
ATOM     22  N   UNL     1      -2.502  -4.139   0.125  0.00  0.00    -0.348 N 
ATOM     23  H   UNL     1      -2.610  -7.438  -3.792  0.00  0.00    +0.159 HD
ATOM     24  H   UNL     1      -1.840  -3.432   0.188  0.00  0.00    +0.143 HD
ATOM     25  H   UNL     1      -3.176  -4.235   0.815  0.00  0.00    +0.143 HD
ENDBRANCH  11  14
BRANCH   1  30
ATOM     26  C   UNL     1       0.868   1.479  -1.122  0.00  0.00    +0.044 C 
ATOM     27  C   UNL     1       0.692   0.005  -0.863  0.00  0.00    -0.050 A 
ATOM     28  C   UNL     1       0.605  -0.875  -1.928  0.00  0.00    +0.004 A 
ATOM     29  C   UNL     1       0.443  -2.225  -1.700  0.00  0.00    +0.010 A 
ATOM     30  C   UNL     1       0.368  -2.705  -0.388  0.00  0.00    -0.000 A 
ATOM     31  C   UNL     1       0.458  -1.809   0.683  0.00  0.00    -0.041 A 
ATOM     32  C   UNL     1       0.625  -0.462   0.438  0.00  0.00    +0.007 A 
ATOM     33  C   UNL     1       0.378  -2.314   2.100  0.00  0.00    +0.044 C 
ENDBRANCH   1  30
TORSDOF 2
