REMARK  Name = ZINC04349559
REMARK  12 active torsions:
REMARK  status: ('A' for Active; 'I' for Inactive)
REMARK    1  A    between atoms: C_1  and  C_2
REMARK    2  A    between atoms: C_4  and  O_38
REMARK    3  A    between atoms: C_6  and  O_37
REMARK    4  A    between atoms: C_8  and  O_36
REMARK    5  A    between atoms: C_10  and  C_13
REMARK    6  A    between atoms: C_13  and  C_14
REMARK    7  A    between atoms: C_18  and  O_35
REMARK    8  A    between atoms: C_20  and  O_34
REMARK    9  A    between atoms: C_24  and  C_25
REMARK   10  A    between atoms: C_27  and  O_33
REMARK   11  A    between atoms: C_28  and  O_32
REMARK   12  A    between atoms: C_29  and  O_31
REMARK                            x       y       z     vdW  Elec       q    Type
REMARK                         _______ _______ _______ _____ _____    ______ ____
ROOT
ATOM      1  C   UNL     1       1.901   2.278   3.648  0.00  0.00    +0.045 A 
ATOM      2  C   UNL     1       1.127   1.959   2.506  0.00  0.00    +0.200 A 
ATOM      3  O   UNL     1      -0.084   1.829   2.578  0.00  0.00    -0.287 OA
ATOM      4  C   UNL     1       1.840   1.796   1.228  0.00  0.00    +0.106 A 
ATOM      5  C   UNL     1       1.156   1.475   0.049  0.00  0.00    +0.135 A 
ATOM      6  C   UNL     1       1.863   1.324  -1.129  0.00  0.00    +0.091 A 
ATOM      7  C   UNL     1       3.244   1.486  -1.141  0.00  0.00    +0.124 A 
ATOM      8  C   UNL     1       3.928   1.799   0.023  0.00  0.00    +0.092 A 
ATOM      9  C   UNL     1       3.237   1.954   1.215  0.00  0.00    +0.146 A 
ATOM     10  O   UNL     1       3.888   2.258   2.357  0.00  0.00    -0.454 OA
ATOM     11  C   UNL     1       3.249   2.414   3.527  0.00  0.00    +0.143 A 
ENDROOT
BRANCH  11  12
ATOM     12  C   UNL     1       4.038   2.746   4.728  0.00  0.00    +0.025 A 
ATOM     13  C   UNL     1       4.779   3.930   4.774  0.00  0.00    +0.061 A 
ATOM     14  C   UNL     1       5.513   4.241   5.904  0.00  0.00    +0.163 A 
ATOM     15  C   UNL     1       5.524   3.370   6.990  0.00  0.00    +0.201 A 
ATOM     16  C   UNL     1       4.792   2.187   6.945  0.00  0.00    +0.163 A 
ATOM     17  C   UNL     1       4.052   1.874   5.820  0.00  0.00    +0.061 A 
BRANCH  16  18
ATOM     18  O   UNL     1       4.806   1.339   8.008  0.00  0.00    -0.503 OA
ATOM     19  H   UNL     1       5.508   0.675   7.972  0.00  0.00    +0.292 HD
ENDBRANCH  16  18
BRANCH  15  20
ATOM     20  O   UNL     1       6.252   3.676   8.097  0.00  0.00    -0.501 OA
ATOM     21  H   UNL     1       7.160   3.346   8.074  0.00  0.00    +0.292 HD
ENDBRANCH  15  20
BRANCH  14  22
ATOM     22  O   UNL     1       6.230   5.396   5.951  0.00  0.00    -0.503 OA
ATOM     23  H   UNL     1       7.135   5.311   5.622  0.00  0.00    +0.292 HD
ENDBRANCH  14  22
ENDBRANCH  11  12
BRANCH   7  24
ATOM     24  O   UNL     1       3.928   1.336  -2.303  0.00  0.00    -0.507 OA
ATOM     25  H   UNL     1       4.025   2.153  -2.811  0.00  0.00    +0.292 HD
ENDBRANCH   7  24
BRANCH   5  26
ATOM     26  O   UNL     1      -0.192   1.317   0.063  0.00  0.00    -0.506 OA
ATOM     27  H   UNL     1      -0.481   0.411   0.238  0.00  0.00    +0.292 HD
ENDBRANCH   5  26
BRANCH   1  28
ATOM     28  C   UNL     1       1.236   2.465   4.987  0.00  0.00    +0.077 C 
BRANCH  28  34
ATOM     29  C   UNL     1       2.738   7.045   5.157  0.00  0.00    +0.040 C 
ATOM     30  C   UNL     1       1.476   6.181   5.193  0.00  0.00    +0.147 C 
ATOM     31  C   UNL     1       0.724   6.430   6.503  0.00  0.00    +0.174 C 
ATOM     32  C   UNL     1      -0.506   5.518   6.557  0.00  0.00    +0.176 C 
ATOM     33  C   UNL     1      -0.054   4.061   6.414  0.00  0.00    +0.174 C 
ATOM     34  C   UNL     1       0.729   3.904   5.108  0.00  0.00    +0.154 C 
ATOM     35  O   UNL     1       1.841   4.802   5.109  0.00  0.00    -0.368 OA
BRANCH  33  36
ATOM     36  O   UNL     1       0.784   3.710   7.518  0.00  0.00    -0.387 OA
ATOM     37  H   UNL     1       0.351   3.787   8.380  0.00  0.00    +0.210 HD
ENDBRANCH  33  36
BRANCH  32  38
ATOM     38  O   UNL     1      -1.174   5.690   7.809  0.00  0.00    -0.386 OA
ATOM     39  H   UNL     1      -1.482   6.593   7.969  0.00  0.00    +0.210 HD
ENDBRANCH  32  38
BRANCH  31  40
ATOM     40  O   UNL     1       0.308   7.796   6.562  0.00  0.00    -0.387 OA
ATOM     41  H   UNL     1       1.036   8.431   6.527  0.00  0.00    +0.210 HD
ENDBRANCH  31  40
ENDBRANCH  28  34
ENDBRANCH   1  28
TORSDOF 11
