REMARK  Name = ZINC57422860
REMARK  11 active torsions:
REMARK  status: ('A' for Active; 'I' for Inactive)
REMARK    1  A    between atoms: C_3  and  N_27
REMARK    2  A    between atoms: C_6  and  C_7
REMARK    3  A    between atoms: C_7  and  C_9
REMARK    4  A    between atoms: C_7  and  O_26
REMARK    5  A    between atoms: C_9  and  C_11
REMARK    6  A    between atoms: C_9  and  N_13
REMARK    7  A    between atoms: C_11  and  O_12
REMARK    8  A    between atoms: N_16  and  C_17
REMARK    9  A    between atoms: C_17  and  C_18
REMARK   10  A    between atoms: N_20  and  C_21
REMARK   11  A    between atoms: C_21  and  C_22
REMARK                            x       y       z     vdW  Elec       q    Type
REMARK                         _______ _______ _______ _____ _____    ______ ____
ROOT
ATOM      1  C   UNK A   1      -1.650  -1.136   1.454  0.00  0.00    +0.133 C 
ENDROOT
BRANCH   1   2
ATOM      2  N   UNK A   1      -2.991  -1.720   1.373  0.00  0.00    -0.292 N 
ATOM      3  C   UNK A   0      -3.787  -1.736   2.460  0.00  0.00    +0.300 C 
ATOM      4  O   UNK A   0      -3.392  -1.265   3.510  0.00  0.00    -0.253 OA
ATOM      5  N   UNK A   0      -5.020  -2.274   2.385  0.00  0.00    -0.291 N 
ATOM      6  H   UNK A   1      -3.307  -2.096   0.536  0.00  0.00    +0.151 HD
ATOM      7  H   UNK A   0      -5.336  -2.649   1.548  0.00  0.00    +0.151 HD
BRANCH   5   8
ATOM      8  C   UNK A   0      -5.885  -2.291   3.568  0.00  0.00    +0.201 C 
BRANCH   8   9
ATOM      9  C   UNK A   0      -7.199  -2.942   3.220  0.00  0.00    +0.231 C 
ATOM     10  O   UNK A   0      -7.394  -3.351   2.095  0.00  0.00    -0.274 OA
ATOM     11  N   UNK A   0      -8.158  -3.069   4.159  0.00  0.00    -0.305 N 
ATOM     12  H   UNK A   0      -8.002  -2.742   5.059  0.00  0.00    +0.149 HD
BRANCH  11  13
ATOM     13  C   UNK A   0      -9.435  -3.701   3.821  0.00  0.00    +0.217 C 
BRANCH  13  14
ATOM     14  C   UNK A   0     -10.338  -3.719   5.055  0.00  0.00    +0.405 C 
ATOM     15  F   UNK A   0     -10.566  -2.408   5.485  0.00  0.00    -0.169 F 
ATOM     16  F   UNK A   0     -11.558  -4.323   4.732  0.00  0.00    -0.169 F 
ATOM     17  F   UNK A   0      -9.716  -4.443   6.078  0.00  0.00    -0.169 F 
ENDBRANCH  13  14
ENDBRANCH  11  13
ENDBRANCH   8   9
ENDBRANCH   5   8
ENDBRANCH   1   2
BRANCH   1  18
ATOM     18  C   UNK A   1      -1.210  -0.673   0.064  0.00  0.00    +0.167 C 
BRANCH  18  24
ATOM     19  C   UNK A   1      -3.219   0.040  -1.249  0.00  0.00    +0.008 A 
ATOM     20  C   UNK A   1      -4.088   1.013  -1.707  0.00  0.00    +0.033 A 
ATOM     21  C   UNK A   1      -3.894   2.334  -1.350  0.00  0.00    +0.126 A 
ATOM     22  C   UNK A   1      -2.833   2.683  -0.536  0.00  0.00    +0.033 A 
ATOM     23  C   UNK A   1      -1.965   1.710  -0.078  0.00  0.00    +0.008 A 
ATOM     24  C   UNK A   1      -2.157   0.388  -0.435  0.00  0.00    -0.017 A 
BRANCH  21  25
ATOM     25  N   UNK A   1      -4.824   3.377  -1.841  0.00  0.00    +0.056 N 
ATOM     26  O   UNK A   1      -5.752   3.072  -2.554  0.00  0.00    -0.126 OA
ATOM     27  O   UNK A   1      -4.655   4.533  -1.530  0.00  0.00    -0.126 OA
ENDBRANCH  21  25
ENDBRANCH  18  24
BRANCH  18  28
ATOM     28  O   UNK A   1       0.112  -0.135   0.137  0.00  0.00    -0.385 OA
ATOM     29  H   UNK A   1       0.213   0.571   0.790  0.00  0.00    +0.210 HD
ENDBRANCH  18  28
ENDBRANCH   1  18
BRANCH   1  30
ATOM     30  C   UNK A   1      -0.667  -2.186   1.977  0.00  0.00    +0.181 C 
BRANCH  30  31
ATOM     31  O   UNK A   1      -0.570  -3.257   1.036  0.00  0.00    -0.393 OA
ATOM     32  H   UNK A   1       0.037  -3.961   1.303  0.00  0.00    +0.209 HD
ENDBRANCH  30  31
ENDBRANCH   1  30
TORSDOF 11
