REMARK  Name = ZINC08695755
REMARK  12 active torsions:
REMARK  status: ('A' for Active; 'I' for Inactive)
REMARK    1  A    between atoms: C_1  and  C_2
REMARK    2  A    between atoms: C_7  and  C_8
REMARK    3  A    between atoms: C_8  and  N_9
REMARK    4  A    between atoms: N_9  and  C_10
REMARK    5  A    between atoms: C_10  and  C_12
REMARK    6  A    between atoms: C_10  and  C_19
REMARK    7  A    between atoms: N_21  and  C_22
REMARK    8  A    between atoms: C_25  and  N_28
REMARK    9  A    between atoms: N_28  and  C_29
REMARK   10  A    between atoms: N_28  and  C_30
REMARK   11  A    between atoms: C_31  and  C_33
REMARK   12  A    between atoms: C_33  and  N_34
REMARK                            x       y       z     vdW  Elec       q    Type
REMARK                         _______ _______ _______ _____ _____    ______ ____
ROOT
ATOM      1  N   UNL     1      -0.785   3.475   0.092  0.00  0.00    -0.284 N 
ATOM      2  C   UNL     1      -0.730   4.295   1.160  0.00  0.00    +0.234 C 
ATOM      3  O   UNL     1      -1.322   4.005   2.178  0.00  0.00    -0.274 OA
ENDROOT
BRANCH   1   4
ATOM      4  C   UNL     1      -0.013   3.788  -1.113  0.00  0.00    +0.144 C 
BRANCH   4  11
ATOM      5  C   UNL     1      -0.480   2.496  -3.655  0.00  0.00    +0.044 C 
ATOM      6  C   UNL     1      -1.137   3.817  -3.349  0.00  0.00    -0.046 A 
ATOM      7  C   UNL     1      -1.963   4.412  -4.285  0.00  0.00    +0.003 A 
ATOM      8  C   UNL     1      -2.567   5.623  -4.004  0.00  0.00    +0.000 A 
ATOM      9  C   UNL     1      -2.343   6.241  -2.788  0.00  0.00    +0.000 A 
ATOM     10  C   UNL     1      -1.521   5.644  -1.850  0.00  0.00    +0.005 A 
ATOM     11  C   UNL     1      -0.913   4.435  -2.133  0.00  0.00    -0.027 A 
ENDBRANCH   4  11
ENDBRANCH   1   4
BRANCH   1  12
ATOM     12  C   UNL     1      -1.618   2.270   0.136  0.00  0.00    +0.166 C 
BRANCH  12  13
ATOM     13  C   UNL     1      -2.672   2.338  -0.972  0.00  0.00    +0.023 C 
ATOM     14  C   UNL     1      -3.428   1.006  -1.046  0.00  0.00    +0.010 C 
ATOM     15  C   UNL     1      -4.346   1.038  -2.270  0.00  0.00    +0.027 C 
ATOM     16  C   UNL     1      -5.148   2.307  -2.281  0.00  0.00    -0.031 C 
ATOM     17  C   UNL     1      -4.854   3.356  -1.583  0.00  0.00    -0.031 C 
ATOM     18  C   UNL     1      -3.674   3.452  -0.660  0.00  0.00    +0.032 C 
ENDBRANCH  12  13
BRANCH  12  19
ATOM     19  C   UNL     1      -0.753   1.053  -0.068  0.00  0.00    +0.238 C 
ATOM     20  O   UNL     1       0.409   1.183  -0.391  0.00  0.00    -0.273 OA
ATOM     21  N   UNL     1      -1.272  -0.179   0.102  0.00  0.00    -0.284 N 
ATOM     22  H   UNL     1      -2.184  -0.282   0.414  0.00  0.00    +0.155 HD
BRANCH  21  23
ATOM     23  C   UNL     1      -0.492  -1.311  -0.172  0.00  0.00    +0.034 A 
ATOM     24  C   UNL     1       0.490  -1.258  -1.151  0.00  0.00    +0.025 A 
ATOM     25  C   UNL     1       1.261  -2.372  -1.417  0.00  0.00    +0.025 A 
ATOM     26  C   UNL     1       1.047  -3.549  -0.712  0.00  0.00    +0.029 A 
ATOM     27  C   UNL     1       0.061  -3.604   0.265  0.00  0.00    +0.025 A 
ATOM     28  C   UNL     1      -0.707  -2.488   0.533  0.00  0.00    +0.025 A 
BRANCH  26  29
ATOM     29  N   UNL     1       1.826  -4.679  -0.984  0.00  0.00    -0.336 N 
ATOM     30  C   UNL     1       1.689  -5.879  -0.155  0.00  0.00    +0.129 C 
ATOM     31  C   UNL     1       2.777  -4.662  -2.098  0.00  0.00    +0.129 C 
ENDBRANCH  26  29
ENDBRANCH  21  23
ENDBRANCH  12  19
ENDBRANCH   1  12
BRANCH   2  32
ATOM     32  C   UNL     1       0.069   5.571   1.089  0.00  0.00    +0.210 C 
BRANCH  32  33
ATOM     33  N   UNL     1       0.098   6.203   2.410  0.00  0.00    -0.255 N 
ATOM     34  C   UNL     1      -0.841   7.130   2.858  0.00  0.00    +0.048 A 
ATOM     35  C   UNL     1      -1.971   7.659   2.248  0.00  0.00    +0.024 A 
ATOM     36  C   UNL     1      -2.758   8.576   2.919  0.00  0.00    +0.002 A 
ATOM     37  C   UNL     1      -2.438   8.975   4.206  0.00  0.00    +0.001 A 
ATOM     38  C   UNL     1      -1.323   8.456   4.833  0.00  0.00    +0.014 A 
ATOM     39  C   UNL     1      -0.522   7.531   4.165  0.00  0.00    +0.048 A 
ATOM     40  C   UNL     1       0.705   6.805   4.541  0.00  0.00    +0.250 C 
ATOM     41  O   UNL     1       1.313   6.871   5.589  0.00  0.00    -0.282 OA
ATOM     42  C   UNL     1       1.037   5.966   3.342  0.00  0.00    +0.292 C 
ATOM     43  O   UNL     1       1.981   5.212   3.234  0.00  0.00    -0.266 OA
ENDBRANCH  32  33
ENDBRANCH   2  32
TORSDOF 9
