REMARK  Name = ZINC23248541
REMARK  8 active torsions:
REMARK  status: ('A' for Active; 'I' for Inactive)
REMARK    1  A    between atoms: C_2  and  C_3
REMARK    2  A    between atoms: C_3  and  N_4
REMARK    3  A    between atoms: C_5  and  C_7
REMARK    4  A    between atoms: C_7  and  N_8
REMARK    5  A    between atoms: N_11  and  C_14
REMARK    6  A    between atoms: C_14  and  C_15
REMARK    7  A    between atoms: N_17  and  C_18
REMARK    8  A    between atoms: C_19  and  C_23
REMARK                            x       y       z     vdW  Elec       q    Type
REMARK                         _______ _______ _______ _____ _____    ______ ____
ROOT
ATOM      1  N   UNL     1       3.790  -4.127   2.441  0.00  0.00    +0.387 N 
ATOM      2  C   UNL     1       4.886  -3.176   2.674  0.00  0.00    -0.063 C 
ATOM      3  C   UNL     1       6.223  -3.920   2.639  0.00  0.00    +0.066 C 
ATOM      4  N   UNL     1       6.227  -4.963   3.674  0.00  0.00    -0.298 NA
ATOM      5  C   UNL     1       5.121  -5.908   3.468  0.00  0.00    +0.066 C 
ATOM      6  C   UNL     1       3.793  -5.148   3.496  0.00  0.00    -0.063 C 
ATOM      7  H   UNL     1       3.916  -4.570   1.543  0.00  0.00    -0.081 HD
ENDROOT
BRANCH   1   8
ATOM      8  C   UNL     1       2.508  -3.409   2.457  0.00  0.00    +0.019 C 
BRANCH   8  10
ATOM      9  N   UNL     1       1.367  -1.676   1.111  0.00  0.00    -0.313 N 
ATOM     10  C   UNL     1       2.457  -2.447   1.299  0.00  0.00    +0.197 C 
ATOM     11  O   UNL     1       3.396  -2.366   0.535  0.00  0.00    -0.278 OA
ATOM     12  H   UNL     1       0.617  -1.740   1.722  0.00  0.00    +0.149 HD
BRANCH   9  13
ATOM     13  C   UNL     1       1.317  -0.740  -0.015  0.00  0.00    +0.131 C 
BRANCH  13  15
ATOM     14  C   UNL     1      -0.016   1.306   0.009  0.00  0.00    +0.005 C 
ATOM     15  C   UNL     1       0.002  -0.004   0.002  0.00  0.00    -0.016 C 
ENDBRANCH  13  15
ENDBRANCH   9  13
ENDBRANCH   8  10
ENDBRANCH   1   8
BRANCH   4  16
ATOM     16  C   UNL     1       7.518  -5.663   3.710  0.00  0.00    +0.180 C 
BRANCH  16  17
ATOM     17  C   UNL     1       7.577  -6.547   4.929  0.00  0.00    +0.232 C 
ATOM     18  O   UNL     1       6.636  -6.589   5.693  0.00  0.00    -0.274 OA
ATOM     19  N   UNL     1       8.675  -7.290   5.171  0.00  0.00    -0.278 N 
ATOM     20  H   UNL     1       9.427  -7.257   4.560  0.00  0.00    +0.155 HD
BRANCH  19  21
ATOM     21  C   UNL     1       8.728  -8.104   6.293  0.00  0.00    +0.084 A 
ATOM     22  C   UNL     1       9.768  -8.926   6.701  0.00  0.00    +0.065 A 
ATOM     23  C   UNL     1       9.561  -9.673   7.920  0.00  0.00    +0.022 A 
ATOM     24  C   UNL     1       8.375  -9.486   8.528  0.00  0.00    +0.048 A 
ATOM     25  S   UNL     1       7.553  -8.313   7.472  0.00  0.00    -0.081 S 
BRANCH  22  26
ATOM     26  C   UNL     1      11.014  -9.032   5.934  0.00  0.00    +0.244 C 
ATOM     27  O   UNL     1      11.155  -8.389   4.910  0.00  0.00    -0.270 OA
ATOM     28  N   UNL     1      12.002  -9.842   6.363  0.00  0.00    -0.325 N 
ATOM     29  H   UNL     1      11.889 -10.355   7.178  0.00  0.00    +0.145 HD
ATOM     30  H   UNL     1      12.826  -9.912   5.855  0.00  0.00    +0.145 HD
ENDBRANCH  22  26
ENDBRANCH  19  21
ENDBRANCH  16  17
ENDBRANCH   4  16
TORSDOF 8
