REMARK  Name = ZINC14461639
REMARK  12 active torsions:
REMARK  status: ('A' for Active; 'I' for Inactive)
REMARK    1  A    between atoms: C_1  and  C_2
REMARK    2  A    between atoms: C_2  and  N_3
REMARK    3  A    between atoms: N_3  and  C_4
REMARK    4  A    between atoms: N_3  and  C_6
REMARK    5  A    between atoms: C_4  and  C_5
REMARK    6  A    between atoms: C_9  and  C_12
REMARK    7  A    between atoms: C_23  and  S_28
REMARK    8  A    between atoms: S_28  and  N_31
REMARK    9  A    between atoms: N_31  and  C_32
REMARK   10  A    between atoms: C_35  and  O_38
REMARK   11  A    between atoms: O_38  and  C_39
REMARK   12  A    between atoms: C_39  and  C_40
REMARK                            x       y       z     vdW  Elec       q    Type
REMARK                         _______ _______ _______ _____ _____    ______ ____
ROOT
ATOM      1  C   UNL     1       1.262   2.010  -0.354  0.00  0.00    +0.105 C 
ATOM      2  C   UNL     1       2.363   1.355  -1.169  0.00  0.00    +0.029 C 
ATOM      3  C   UNL     1       3.738   2.036  -1.162  0.00  0.00    +0.033 C 
ATOM      4  C   UNL     1       4.675   0.845  -1.369  0.00  0.00    -0.030 C 
ATOM      5  C   UNL     1       4.098  -0.268  -0.931  0.00  0.00    -0.023 C 
ATOM      6  C   UNL     1       2.766   0.078  -0.371  0.00  0.00    +0.049 C 
ATOM      7  C   UNL     1       1.628  -0.865  -0.415  0.00  0.00    -0.018 A 
ATOM      8  C   UNL     1       1.800  -2.232  -0.458  0.00  0.00    +0.034 A 
ATOM      9  C   UNL     1       0.703  -3.073  -0.475  0.00  0.00    +0.109 A 
ATOM     10  C   UNL     1      -0.574  -2.544  -0.450  0.00  0.00    +0.030 A 
ATOM     11  C   UNL     1      -0.757  -1.177  -0.416  0.00  0.00    +0.025 A 
ATOM     12  C   UNL     1       0.338  -0.322  -0.404  0.00  0.00    +0.031 A 
ATOM     13  N   UNL     1       0.127   1.062  -0.383  0.00  0.00    -0.336 N 
ATOM     14  H   UNL     1      -0.780   1.406  -0.391  0.00  0.00    +0.147 HD
ENDROOT
BRANCH   1  18
ATOM     15  C   UNL     1       2.570   2.625   3.668  0.00  0.00    +0.030 A 
ATOM     16  C   UNL     1       2.782   3.608   2.710  0.00  0.00    +0.023 A 
ATOM     17  C   UNL     1       2.358   3.406   1.411  0.00  0.00    +0.007 A 
ATOM     18  C   UNL     1       1.724   2.227   1.064  0.00  0.00    -0.027 A 
ATOM     19  C   UNL     1       1.506   1.249   2.018  0.00  0.00    +0.007 A 
ATOM     20  C   UNL     1       1.932   1.442   3.317  0.00  0.00    +0.023 A 
BRANCH  15  21
ATOM     21  N   UNL     1       2.997   2.826   4.983  0.00  0.00    -0.330 N 
BRANCH  21  23
ATOM     22  C   UNL     1       3.970   0.837   6.021  0.00  0.00    +0.024 C 
ATOM     23  C   UNL     1       2.773   1.789   5.993  0.00  0.00    +0.102 C 
ENDBRANCH  21  23
BRANCH  21  24
ATOM     24  C   UNL     1       3.669   4.075   5.352  0.00  0.00    +0.102 C 
ATOM     25  C   UNL     1       2.627   5.100   5.804  0.00  0.00    +0.024 C 
ENDBRANCH  21  24
ENDBRANCH  15  21
ENDBRANCH   1  18
BRANCH   9  26
ATOM     26  S   UNL     1       0.933  -4.819  -0.529  0.00  0.00    +0.072 S 
ATOM     27  O   UNL     1      -0.198  -5.357  -1.200  0.00  0.00    -0.150 OA
ATOM     28  O   UNL     1       2.262  -5.040  -0.979  0.00  0.00    -0.150 OA
BRANCH  26  29
ATOM     29  N   UNL     1       0.863  -5.370   1.031  0.00  0.00    -0.216 N 
ATOM     30  H   UNL     1       0.172  -5.999   1.293  0.00  0.00    +0.174 HD
BRANCH  29  31
ATOM     31  C   UNL     1       1.802  -4.930   1.971  0.00  0.00    +0.048 A 
ATOM     32  C   UNL     1       3.152  -4.908   1.648  0.00  0.00    +0.028 A 
ATOM     33  C   UNL     1       4.076  -4.468   2.574  0.00  0.00    +0.047 A 
ATOM     34  C   UNL     1       3.658  -4.058   3.832  0.00  0.00    +0.121 A 
ATOM     35  C   UNL     1       2.310  -4.085   4.158  0.00  0.00    +0.047 A 
ATOM     36  C   UNL     1       1.383  -4.520   3.230  0.00  0.00    +0.028 A 
BRANCH  34  37
ATOM     37  O   UNL     1       4.570  -3.630   4.745  0.00  0.00    -0.492 OA
BRANCH  37  38
ATOM     38  C   UNL     1       5.941  -3.629   4.342  0.00  0.00    +0.225 C 
ATOM     39  C   UNL     1       6.810  -3.119   5.493  0.00  0.00    +0.048 C 
ENDBRANCH  37  38
ENDBRANCH  34  37
ENDBRANCH  29  31
ENDBRANCH  26  29
ENDBRANCH   9  26
TORSDOF 9
