REMARK  Name = ZINC23038672
REMARK  8 active torsions:
REMARK  status: ('A' for Active; 'I' for Inactive)
REMARK    1  A    between atoms: C_1  and  C_2
REMARK    2  A    between atoms: C_2  and  C_4
REMARK    3  A    between atoms: C_2  and  N_18
REMARK    4  A    between atoms: N_10  and  C_11
REMARK    5  A    between atoms: N_18  and  C_19
REMARK    6  A    between atoms: N_18  and  C_20
REMARK    7  A    between atoms: C_20  and  C_21
REMARK    8  A    between atoms: N_23  and  C_24
REMARK                            x       y       z     vdW  Elec       q    Type
REMARK                         _______ _______ _______ _____ _____    ______ ____
ROOT
ATOM      1  C   UNL     1       0.003   0.060   3.703  0.00  0.00    -0.005 C 
ATOM      2  C   UNL     1       0.513  -0.215   2.287  0.00  0.00    -0.002 C 
ENDROOT
BRANCH   2   3
ATOM      3  C   UNL     1       1.788   0.553   2.053  0.00  0.00    +0.123 A 
ATOM      4  N   UNL     1       1.747   1.866   1.899  0.00  0.00    -0.201 NA
ATOM      5  C   UNL     1       2.871   2.548   1.692  0.00  0.00    +0.217 A 
ATOM      6  N   UNL     1       4.034   1.909   1.641  0.00  0.00    -0.181 NA
ATOM      7  C   UNL     1       4.071   0.590   1.796  0.00  0.00    +0.224 A 
ATOM      8  N   UNL     1       2.943  -0.085   2.008  0.00  0.00    -0.201 NA
ATOM      9  N   UNL     1       5.278  -0.080   1.744  0.00  0.00    -0.284 N 
ATOM     10  N   UNL     1       2.828   3.918   1.530  0.00  0.00    -0.327 N 
ATOM     11  H   UNL     1       5.318  -1.159   1.953  0.00  0.00    +0.155 HD
ATOM     12  H   UNL     1       3.757   4.481   1.360  0.00  0.00    +0.145 HD
ATOM     13  H   UNL     1       1.864   4.447   1.573  0.00  0.00    +0.145 HD
BRANCH   9  14
ATOM     14  C   UNL     1       6.449   0.615   1.425  0.00  0.00    +0.034 A 
ATOM     15  C   UNL     1       6.415   1.648   0.497  0.00  0.00    +0.023 A 
ATOM     16  C   UNL     1       7.573   2.335   0.188  0.00  0.00    +0.002 A 
ATOM     17  C   UNL     1       8.767   1.988   0.793  0.00  0.00    +0.000 A 
ATOM     18  C   UNL     1       8.805   0.957   1.713  0.00  0.00    +0.002 A 
ATOM     19  C   UNL     1       7.650   0.269   2.030  0.00  0.00    +0.023 A 
ENDBRANCH   9  14
ENDBRANCH   2   3
BRANCH   2  20
ATOM     20  N   UNL     1      -0.501   0.208   1.311  0.00  0.00    +0.390 N 
ATOM     21  C   UNL     1      -1.782  -0.468   1.555  0.00  0.00    -0.095 C 
ATOM     22  H   UNL     1      -0.660   1.289   1.437  0.00  0.00    -0.081 HD
BRANCH  20  23
ATOM     23  C   UNL     1      -0.037  -0.023  -0.064  0.00  0.00    +0.019 C 
BRANCH  23  24
ATOM     24  C   UNL     1      -0.983   0.640  -1.031  0.00  0.00    +0.201 C 
ATOM     25  O   UNL     1      -1.948   1.246  -0.617  0.00  0.00    -0.278 OA
ATOM     26  N   UNL     1      -0.756   0.560  -2.357  0.00  0.00    -0.286 N 
ATOM     27  H   UNL     1       0.065  -0.065  -2.738  0.00  0.00    +0.155 HD
BRANCH  26  28
ATOM     28  C   UNL     1      -1.565   1.273  -3.250  0.00  0.00    +0.047 A 
ATOM     29  C   UNL     1      -2.180   2.450  -2.844  0.00  0.00    +0.024 A 
ATOM     30  C   UNL     1      -2.975   3.153  -3.728  0.00  0.00    +0.002 A 
ATOM     31  C   UNL     1      -3.165   2.682  -5.014  0.00  0.00    +0.001 A 
ATOM     32  C   UNL     1      -2.557   1.509  -5.421  0.00  0.00    +0.017 A 
ATOM     33  C   UNL     1      -1.758   0.802  -4.543  0.00  0.00    +0.039 A 
ATOM     34 BR   UNL     1      -0.928  -0.803  -5.099  0.00  0.00    -0.048 Br
ENDBRANCH  26  28
ENDBRANCH  23  24
ENDBRANCH  20  23
ENDBRANCH   2  20
TORSDOF 6
