REMARK  Name = ZINC03011403
REMARK  8 active torsions:
REMARK  status: ('A' for Active; 'I' for Inactive)
REMARK    1  A    between atoms: C_1  and  O_2
REMARK    2  A    between atoms: O_2  and  C_3
REMARK    3  A    between atoms: C_6  and  O_34
REMARK    4  A    between atoms: C_7  and  N_9
REMARK    5  A    between atoms: C_10  and  C_12
REMARK    6  A    between atoms: C_17  and  C_30
REMARK    7  A    between atoms: C_20  and  C_23
REMARK    8  A    between atoms: O_34  and  C_35
REMARK                            x       y       z     vdW  Elec       q    Type
REMARK                         _______ _______ _______ _____ _____    ______ ____
ROOT
ATOM      1  C   UNL     1      -1.473  -6.259  -0.208  0.00  0.00    +0.149 A 
ATOM      2  C   UNL     1      -0.369  -7.134  -0.324  0.00  0.00    +0.078 A 
ATOM      3  C   UNL     1      -0.851  -8.390  -0.403  0.00  0.00    +0.119 A 
ATOM      4  N   UNL     1      -2.214  -8.327  -0.338  0.00  0.00    -0.238 N 
ATOM      5  N   UNL     1      -2.576  -6.987  -0.212  0.00  0.00    -0.164 NA
ATOM      6  C   UNL     1      -3.085  -9.505  -0.388  0.00  0.00    +0.215 C 
ATOM      7  C   UNL     1      -2.260 -10.748  -0.037  0.00  0.00    +0.063 C 
ATOM      8  C   UNL     1      -0.979 -10.778  -0.878  0.00  0.00    +0.104 C 
ATOM      9  N   UNL     1      -0.162  -9.599  -0.530  0.00  0.00    -0.322 N 
ATOM     10  H   UNL     1       0.798  -9.660  -0.398  0.00  0.00    +0.148 HD
ENDROOT
BRANCH   8  11
ATOM     11  C   UNL     1      -0.208 -12.039  -0.581  0.00  0.00    -0.027 A 
ATOM     12  C   UNL     1       0.573 -12.119   0.557  0.00  0.00    +0.007 A 
ATOM     13  C   UNL     1       1.280 -13.275   0.830  0.00  0.00    +0.020 A 
ATOM     14  C   UNL     1       1.206 -14.352  -0.035  0.00  0.00    +0.041 A 
ATOM     15  C   UNL     1       0.423 -14.271  -1.174  0.00  0.00    +0.020 A 
ATOM     16  C   UNL     1      -0.287 -13.117  -1.443  0.00  0.00    +0.007 A 
ATOM     17 CL   UNL     1       2.094 -15.803   0.307  0.00  0.00    -0.084 Cl
ENDBRANCH   8  11
BRANCH   1  19
ATOM     18  N   UNL     1      -2.539  -4.068   0.015  0.00  0.00    -0.277 N 
ATOM     19  C   UNL     1      -1.405  -4.788  -0.096  0.00  0.00    +0.268 C 
ATOM     20  O   UNL     1      -0.326  -4.227  -0.103  0.00  0.00    -0.268 OA
ATOM     21  H   UNL     1      -3.393  -4.519   0.102  0.00  0.00    +0.155 HD
BRANCH  18  26
ATOM     22  C   UNL     1      -1.367  -0.635  -0.613  0.00  0.00    +0.122 A 
ATOM     23  C   UNL     1      -2.376   0.102  -0.011  0.00  0.00    +0.049 A 
ATOM     24  C   UNL     1      -3.438  -0.542   0.597  0.00  0.00    +0.051 A 
ATOM     25  C   UNL     1      -3.495  -1.926   0.608  0.00  0.00    +0.141 A 
ATOM     26  C   UNL     1      -2.483  -2.669   0.005  0.00  0.00    +0.079 A 
ATOM     27  C   UNL     1      -1.422  -2.020  -0.609  0.00  0.00    +0.072 A 
BRANCH  22  29
ATOM     28  C   UNL     1      -0.331   1.431  -1.176  0.00  0.00    +0.277 C 
ATOM     29  O   UNL     1      -0.324   0.002  -1.210  0.00  0.00    -0.495 OA
ENDBRANCH  22  29
BRANCH  25  30
ATOM     30  O   UNL     1      -4.540  -2.559   1.207  0.00  0.00    -0.493 OA
ATOM     31  C   UNL     1      -5.542  -1.734   1.806  0.00  0.00    +0.277 C 
ENDBRANCH  25  30
ENDBRANCH  18  26
ENDBRANCH   1  19
BRANCH   6  32
ATOM     32  C   UNL     1      -4.225  -9.342   0.619  0.00  0.00    +0.412 C 
ATOM     33  F   UNL     1      -4.968  -8.200   0.303  0.00  0.00    -0.168 F 
ATOM     34  F   UNL     1      -5.056 -10.467   0.569  0.00  0.00    -0.168 F 
ATOM     35  F   UNL     1      -3.695  -9.211   1.907  0.00  0.00    -0.168 F 
ENDBRANCH   6  32
TORSDOF 6
