REMARK  Name = ZINC35093661
REMARK  14 active torsions:
REMARK  status: ('A' for Active; 'I' for Inactive)
REMARK    1  A    between atoms: C_1  and  C_2
REMARK    2  A    between atoms: C_2  and  O_3
REMARK    3  A    between atoms: O_3  and  C_4
REMARK    4  A    between atoms: C_9  and  N_10
REMARK    5  A    between atoms: C_20  and  C_21
REMARK    6  A    between atoms: C_21  and  C_23
REMARK    7  A    between atoms: C_21  and  N_24
REMARK    8  A    between atoms: N_24  and  C_25
REMARK    9  A    between atoms: C_25  and  C_26
REMARK   10  A    between atoms: C_26  and  N_27
REMARK   11  A    between atoms: N_27  and  C_28
REMARK   12  A    between atoms: N_27  and  C_29
REMARK   13  A    between atoms: C_30  and  C_32
REMARK   14  A    between atoms: C_35  and  N_38
REMARK                            x       y       z     vdW  Elec       q    Type
REMARK                         _______ _______ _______ _____ _____    ______ ____
ROOT
ATOM      1  N   UNL     1      -6.564  -3.087   3.011  0.00  0.00    -0.259 N 
ATOM      2  C   UNL     1      -7.705  -2.848   2.325  0.00  0.00    +0.266 A 
ATOM      3  O   UNL     1      -8.610  -3.662   2.299  0.00  0.00    -0.267 OA
ATOM      4  C   UNL     1      -7.812  -1.565   1.614  0.00  0.00    +0.065 A 
ATOM      5  C   UNL     1      -8.945  -1.222   0.879  0.00  0.00    +0.015 A 
ATOM      6  C   UNL     1      -8.992  -0.007   0.232  0.00  0.00    +0.001 A 
ATOM      7  C   UNL     1      -7.922   0.875   0.307  0.00  0.00    +0.002 A 
ATOM      8  C   UNL     1      -6.793   0.555   1.027  0.00  0.00    +0.028 A 
ATOM      9  C   UNL     1      -6.721  -0.671   1.692  0.00  0.00    +0.078 A 
ATOM     10  N   UNL     1      -5.629  -1.026   2.413  0.00  0.00    -0.231 NA
ATOM     11  C   UNL     1      -5.565  -2.164   3.036  0.00  0.00    +0.138 A 
ENDROOT
BRANCH   1  17
ATOM     12  C   UNL     1      -5.879  -5.409   3.064  0.00  0.00    +0.144 A 
ATOM     13  C   UNL     1      -5.726  -6.598   3.759  0.00  0.00    +0.048 A 
ATOM     14  C   UNL     1      -6.106  -6.678   5.085  0.00  0.00    +0.004 A 
ATOM     15  C   UNL     1      -6.639  -5.573   5.723  0.00  0.00    +0.002 A 
ATOM     16  C   UNL     1      -6.795  -4.383   5.038  0.00  0.00    +0.030 A 
ATOM     17  C   UNL     1      -6.411  -4.294   3.708  0.00  0.00    +0.093 A 
BRANCH  12  18
ATOM     18  O   UNL     1      -5.506  -5.329   1.759  0.00  0.00    -0.490 OA
BRANCH  18  20
ATOM     19  C   UNL     1      -4.609  -6.231  -0.296  0.00  0.00    +0.048 C 
ATOM     20  C   UNL     1      -4.969  -6.512   1.165  0.00  0.00    +0.226 C 
ENDBRANCH  18  20
ENDBRANCH  12  18
ENDBRANCH   1  17
BRANCH  11  21
ATOM     21  C   UNL     1      -4.318  -2.480   3.821  0.00  0.00    +0.140 C 
ATOM     22  C   UNL     1      -3.203  -2.898   2.860  0.00  0.00    +0.036 C 
BRANCH  21  23
ATOM     23  N   UNL     1      -3.898  -1.294   4.570  0.00  0.00    -0.290 N 
ATOM     24  C   UNL     1      -4.159  -1.202   5.889  0.00  0.00    +0.247 C 
ATOM     25  O   UNL     1      -4.704  -2.123   6.466  0.00  0.00    -0.270 OA
BRANCH  24  26
ATOM     26  C   UNL     1      -3.784   0.019   6.634  0.00  0.00    +0.037 A 
ATOM     27  C   UNL     1      -4.140   1.276   6.143  0.00  0.00    +0.015 A 
ATOM     28  C   UNL     1      -3.787   2.412   6.843  0.00  0.00    +0.033 A 
ATOM     29  C   UNL     1      -3.083   2.306   8.029  0.00  0.00    +0.126 A 
ATOM     30  C   UNL     1      -2.727   1.063   8.521  0.00  0.00    +0.033 A 
ATOM     31  C   UNL     1      -3.079  -0.081   7.834  0.00  0.00    +0.015 A 
BRANCH  29  32
ATOM     32  N   UNL     1      -2.707   3.528   8.774  0.00  0.00    +0.056 N 
ATOM     33  O   UNL     1      -3.017   4.616   8.347  0.00  0.00    -0.126 OA
ATOM     34  O   UNL     1      -2.092   3.439   9.811  0.00  0.00    -0.126 OA
ENDBRANCH  29  32
ENDBRANCH  24  26
BRANCH  23  35
ATOM     35  C   UNL     1      -3.193  -0.207   3.886  0.00  0.00    +0.090 C 
BRANCH  35  36
ATOM     36  C   UNL     1      -4.204   0.665   3.138  0.00  0.00    -0.060 C 
BRANCH  36  37
ATOM     37  N   UNL     1      -3.759   2.064   3.165  0.00  0.00    +0.377 N 
ATOM     38  C   UNL     1      -2.503   2.194   2.413  0.00  0.00    -0.097 C 
ATOM     39  C   UNL     1      -4.786   2.917   2.552  0.00  0.00    -0.097 C 
ATOM     40  H   UNL     1      -3.609   2.351   4.121  0.00  0.00    -0.083 HD
ENDBRANCH  36  37
ENDBRANCH  35  36
ENDBRANCH  23  35
ENDBRANCH  21  23
ENDBRANCH  11  21
TORSDOF 10
