REMARK  Name = ZINC40561656
REMARK  11 active torsions:
REMARK  status: ('A' for Active; 'I' for Inactive)
REMARK    1  A    between atoms: C_1  and  C_2
REMARK    2  A    between atoms: C_2  and  C_3
REMARK    3  A    between atoms: N_16  and  C_26
REMARK    4  A    between atoms: C_17  and  C_19
REMARK    5  A    between atoms: C_26  and  C_27
REMARK    6  A    between atoms: C_27  and  C_28
REMARK    7  A    between atoms: C_28  and  N_29
REMARK    8  A    between atoms: N_29  and  C_30
REMARK    9  A    between atoms: N_29  and  C_32
REMARK   10  A    between atoms: C_30  and  C_31
REMARK   11  A    between atoms: C_32  and  C_33
REMARK                            x       y       z     vdW  Elec       q    Type
REMARK                         _______ _______ _______ _____ _____    ______ ____
ROOT
ATOM      1  C   UNL     1       1.009  -0.194  -0.889  0.00  0.00    -0.047 A 
ATOM      2  C   UNL     1       0.215  -0.269  -2.025  0.00  0.00    +0.007 A 
ATOM      3  C   UNL     1       0.741  -0.692  -3.225  0.00  0.00    +0.047 A 
ATOM      4  C   UNL     1       2.086  -1.050  -3.312  0.00  0.00    +0.139 A 
ATOM      5  C   UNL     1       2.881  -0.964  -2.157  0.00  0.00    +0.065 A 
ATOM      6  C   UNL     1       2.332  -0.532  -0.949  0.00  0.00    +0.019 A 
ATOM      7  C   UNL     1       4.317  -1.328  -2.242  0.00  0.00    +0.199 A 
ATOM      8  O   UNL     1       5.036  -1.445  -1.265  0.00  0.00    -0.287 OA
ATOM      9  C   UNL     1       4.789  -1.536  -3.616  0.00  0.00    +0.072 A 
ATOM     10  C   UNL     1       3.912  -1.591  -4.661  0.00  0.00    +0.199 A 
ATOM     11  O   UNL     1       2.580  -1.470  -4.499  0.00  0.00    -0.450 OA
ATOM     12  C   UNL     1       4.682  -1.797  -5.900  0.00  0.00    +0.283 C 
ATOM     13  O   UNL     1       4.200  -1.887  -7.012  0.00  0.00    -0.267 OA
ATOM     14  N   UNL     1       5.999  -1.871  -5.621  0.00  0.00    -0.284 N 
ATOM     15  C   UNL     1       6.166  -1.714  -4.167  0.00  0.00    +0.145 C 
ENDROOT
BRANCH  15  16
ATOM     16  C   UNL     1       6.804  -2.947  -3.581  0.00  0.00    -0.021 A 
ATOM     17  C   UNL     1       6.469  -4.197  -4.068  0.00  0.00    +0.006 A 
ATOM     18  C   UNL     1       7.054  -5.329  -3.531  0.00  0.00    +0.001 A 
ATOM     19  C   UNL     1       7.975  -5.211  -2.506  0.00  0.00    +0.015 A 
ATOM     20  C   UNL     1       8.310  -3.961  -2.019  0.00  0.00    +0.018 A 
ATOM     21  C   UNL     1       7.729  -2.829  -2.560  0.00  0.00    +0.021 A 
ATOM     22 BR   UNL     1       9.569  -3.800  -0.617  0.00  0.00    -0.050 Br
ENDBRANCH  15  16
BRANCH   1  24
ATOM     23  C   UNL     1       0.543   1.790   0.525  0.00  0.00    +0.009 C 
ATOM     24  C   UNL     1       0.411   0.269   0.415  0.00  0.00    +0.032 C 
ENDBRANCH   1  24
BRANCH  14  25
ATOM     25  C   UNL     1       7.076  -2.072  -6.594  0.00  0.00    +0.107 C 
BRANCH  25  26
ATOM     26  C   UNL     1       7.566  -0.714  -7.100  0.00  0.00    +0.000 C 
BRANCH  26  27
ATOM     27  C   UNL     1       8.691  -0.924  -8.116  0.00  0.00    -0.077 C 
BRANCH  27  28
ATOM     28  N   UNL     1       9.072   0.369  -8.698  0.00  0.00    +0.379 N 
ATOM     29  H   UNL     1       8.254   0.822  -9.077  0.00  0.00    -0.082 HD
BRANCH  28  30
ATOM     30  C   UNL     1       9.665   1.219  -7.658  0.00  0.00    -0.082 C 
ATOM     31  C   UNL     1       9.948   2.608  -8.233  0.00  0.00    -0.017 C 
ENDBRANCH  28  30
BRANCH  28  32
ATOM     32  C   UNL     1      10.052   0.153  -9.772  0.00  0.00    -0.082 C 
ATOM     33  C   UNL     1       9.390  -0.611 -10.920  0.00  0.00    -0.017 C 
ENDBRANCH  28  32
ENDBRANCH  27  28
ENDBRANCH  26  27
ENDBRANCH  25  26
ENDBRANCH  14  25
TORSDOF 8
