REMARK  Name = ZINC56159652
REMARK  10 active torsions:
REMARK  status: ('A' for Active; 'I' for Inactive)
REMARK    1  A    between atoms: C_1  and  C_2
REMARK    2  A    between atoms: C_5  and  N_9
REMARK    3  A    between atoms: C_10  and  C_12
REMARK    4  A    between atoms: C_12  and  C_14
REMARK    5  A    between atoms: C_12  and  N_15
REMARK    6  A    between atoms: N_15  and  C_16
REMARK    7  A    between atoms: C_16  and  C_18
REMARK    8  A    between atoms: C_16  and  C_19
REMARK    9  A    between atoms: C_22  and  N_25
REMARK   10  A    between atoms: N_28  and  C_29
REMARK                            x       y       z     vdW  Elec       q    Type
REMARK                         _______ _______ _______ _____ _____    ______ ____
ROOT
ATOM      1  N   UNL     1       0.056  -6.871   2.757  0.00  0.00    +0.391 N 
ATOM      2  H   UNL     1      -0.771  -6.657   3.295  0.00  0.00    -0.084 HD
ATOM      3  H   UNL     1      -0.052  -6.515   1.819  0.00  0.00    -0.084 HD
ENDROOT
BRANCH   1   4
ATOM      4  C   UNL     1       1.225  -6.244   3.387  0.00  0.00    +0.014 C 
ATOM      5  C   UNL     1       2.447  -6.420   2.484  0.00  0.00    -0.004 C 
BRANCH   4   7
ATOM      6  N   UNL     1       1.898  -3.992   4.158  0.00  0.00    -0.287 N 
ATOM      7  C   UNL     1       0.958  -4.775   3.591  0.00  0.00    +0.203 C 
ATOM      8  O   UNL     1      -0.102  -4.297   3.246  0.00  0.00    -0.277 OA
ATOM      9  H   UNL     1       2.772  -4.356   4.366  0.00  0.00    +0.155 HD
BRANCH   6  14
ATOM     10  C   UNL     1       0.733   1.438   5.327  0.00  0.00    +0.047 C 
ATOM     11  C   UNL     1       1.043  -0.004   5.016  0.00  0.00    -0.015 A 
ATOM     12  C   UNL     1       0.042  -0.955   5.082  0.00  0.00    +0.008 A 
ATOM     13  C   UNL     1       0.322  -2.277   4.798  0.00  0.00    +0.024 A 
ATOM     14  C   UNL     1       1.612  -2.653   4.445  0.00  0.00    +0.036 A 
ATOM     15  C   UNL     1       2.617  -1.697   4.379  0.00  0.00    +0.062 A 
ATOM     16  C   UNL     1       2.329  -0.373   4.659  0.00  0.00    +0.128 A 
ATOM     17  F   UNL     1       3.305   0.559   4.589  0.00  0.00    -0.205 F 
ENDBRANCH   6  14
ENDBRANCH   4   7
ENDBRANCH   1   4
BRANCH   1  18
ATOM     18  C   UNL     1       0.246  -8.327   2.710  0.00  0.00    -0.043 C 
ATOM     19  C   UNL     1      -0.902  -8.967   1.927  0.00  0.00    -0.009 C 
BRANCH  18  20
ATOM     20  C   UNL     1       0.266  -8.876   4.113  0.00  0.00    -0.062 A 
ATOM     21  C   UNL     1      -0.615  -8.384   5.059  0.00  0.00    +0.004 A 
ATOM     22  C   UNL     1      -0.601  -8.886   6.346  0.00  0.00    +0.023 A 
ATOM     23  C   UNL     1       0.300  -9.886   6.689  0.00  0.00    +0.035 A 
ATOM     24  C   UNL     1       1.184 -10.377   5.737  0.00  0.00    +0.023 A 
ATOM     25  C   UNL     1       1.160  -9.876   4.451  0.00  0.00    +0.004 A 
BRANCH  23  26
ATOM     26  N   UNL     1       0.318 -10.396   7.992  0.00  0.00    -0.269 N 
ATOM     27  C   UNL     1      -0.826 -10.481   8.698  0.00  0.00    +0.304 C 
ATOM     28  O   UNL     1      -1.887 -10.206   8.172  0.00  0.00    -0.253 OA
ATOM     29  N   UNL     1      -0.795 -10.870   9.988  0.00  0.00    -0.296 N 
ATOM     30  H   UNL     1       1.155 -10.688   8.387  0.00  0.00    +0.156 HD
ATOM     31  H   UNL     1       0.051 -11.090  10.408  0.00  0.00    +0.151 HD
BRANCH  29  32
ATOM     32  C   UNL     1      -2.039 -10.963  10.756  0.00  0.00    +0.075 C 
ATOM     33  C   UNL     1      -2.033 -10.408  12.182  0.00  0.00    +0.024 C 
ATOM     34  C   UNL     1      -2.064 -11.920  11.950  0.00  0.00    +0.024 C 
ENDBRANCH  29  32
ENDBRANCH  23  26
ENDBRANCH  18  20
ENDBRANCH   1  18
TORSDOF 7
