REMARK  Name = ZINC20687458
REMARK  11 active torsions:
REMARK  status: ('A' for Active; 'I' for Inactive)
REMARK    1  A    between atoms: C_1  and  C_2
REMARK    2  A    between atoms: N_5  and  S_8
REMARK    3  A    between atoms: S_8  and  C_11
REMARK    4  A    between atoms: N_17  and  C_22
REMARK    5  A    between atoms: C_22  and  C_23
REMARK    6  A    between atoms: N_25  and  C_26
REMARK    7  A    between atoms: C_26  and  C_27
REMARK    8  A    between atoms: C_27  and  N_28
REMARK    9  A    between atoms: N_28  and  C_29
REMARK   10  A    between atoms: N_28  and  C_30
REMARK   11  A    between atoms: C_30  and  C_31
REMARK                            x       y       z     vdW  Elec       q    Type
REMARK                         _______ _______ _______ _____ _____    ______ ____
ROOT
ATOM      1  C   UNL     1       1.885   4.264  -3.436  0.00  0.00    +0.107 A 
ATOM      2  C   UNL     1       3.225   3.932  -3.357  0.00  0.00    +0.030 A 
ATOM      3  C   UNL     1       3.823   3.232  -4.388  0.00  0.00    +0.018 A 
ATOM      4  C   UNL     1       3.081   2.875  -5.502  0.00  0.00    +0.030 A 
ATOM      5  C   UNL     1       1.730   3.214  -5.592  0.00  0.00    +0.052 A 
ATOM      6  C   UNL     1       1.140   3.913  -4.545  0.00  0.00    +0.053 A 
ATOM      7  N   UNL     1       0.966   2.873  -6.704  0.00  0.00    -0.261 N 
ATOM      8  C   UNL     1       1.233   1.904  -7.576  0.00  0.00    +0.230 C 
ATOM      9  O   UNL     1       0.457   1.728  -8.492  0.00  0.00    -0.274 OA
ATOM     10  C   UNL     1       2.443   1.016  -7.489  0.00  0.00    +0.170 C 
ATOM     11  S   UNL     1       3.833   1.983  -6.826  0.00  0.00    -0.114 S 
ENDROOT
BRANCH   1  12
ATOM     12  S   UNL     1       1.123   5.148  -2.115  0.00  0.00    +0.061 S 
ATOM     13  O   UNL     1       0.002   5.821  -2.670  0.00  0.00    -0.153 OA
ATOM     14  O   UNL     1       2.164   5.836  -1.434  0.00  0.00    -0.153 OA
BRANCH  12  19
ATOM     15  C   UNL     1      -0.032  -0.067  -0.030  0.00  0.00    +0.007 C 
ATOM     16  C   UNL     1      -0.056   1.463  -0.008  0.00  0.00    -0.012 C 
ATOM     17  C   UNL     1      -0.791   1.980  -1.247  0.00  0.00    +0.020 C 
ATOM     18  C   UNL     1      -0.843   3.510  -1.204  0.00  0.00    +0.110 C 
ATOM     19  N   UNL     1       0.525   4.026  -1.055  0.00  0.00    -0.177 NA
ATOM     20  C   UNL     1       1.352   3.526   0.052  0.00  0.00    +0.110 C 
ATOM     21  C   UNL     1       1.379   1.995  -0.006  0.00  0.00    +0.020 C 
ENDBRANCH  12  19
ENDBRANCH   1  12
BRANCH   7  22
ATOM     22  C   UNL     1      -0.251   3.655  -6.937  0.00  0.00    +0.209 C 
BRANCH  22  23
ATOM     23  C   UNL     1      -1.428   2.950  -6.316  0.00  0.00    +0.231 C 
ATOM     24  O   UNL     1      -1.268   1.897  -5.736  0.00  0.00    -0.274 OA
ATOM     25  N   UNL     1      -2.660   3.489  -6.404  0.00  0.00    -0.316 N 
ATOM     26  H   UNL     1      -2.806   4.444  -6.930  0.00  0.00    +0.149 HD
BRANCH  25  27
ATOM     27  C   UNL     1      -3.805   2.803  -5.801  0.00  0.00    +0.086 C 
BRANCH  27  28
ATOM     28  C   UNL     1      -5.076   3.620  -6.043  0.00  0.00    -0.060 C 
BRANCH  28  29
ATOM     29  N   UNL     1      -6.224   2.933  -5.438  0.00  0.00    +0.382 N 
ATOM     30  C   UNL     1      -6.105   2.898  -3.974  0.00  0.00    -0.096 C 
ATOM     31  H   UNL     1      -6.226   1.894  -5.802  0.00  0.00    -0.082 HD
BRANCH  29  32
ATOM     32  C   UNL     1      -7.488   3.557  -5.849  0.00  0.00    -0.043 C 
BRANCH  32  33
ATOM     33  C   UNL     1      -8.642   2.689  -5.416  0.00  0.00    -0.064 A 
ATOM     34  C   UNL     1      -9.125   1.709  -6.262  0.00  0.00    +0.002 A 
ATOM     35  C   UNL     1     -10.180   0.909  -5.863  0.00  0.00    +0.000 A 
ATOM     36  C   UNL     1     -10.758   1.097  -4.622  0.00  0.00    +0.000 A 
ATOM     37  C   UNL     1     -10.278   2.081  -3.777  0.00  0.00    +0.000 A 
ATOM     38  C   UNL     1      -9.220   2.877  -4.174  0.00  0.00    +0.002 A 
ENDBRANCH  32  33
ENDBRANCH  29  32
ENDBRANCH  28  29
ENDBRANCH  27  28
ENDBRANCH  25  27
ENDBRANCH  22  23
ENDBRANCH   7  22
TORSDOF 9
