REMARK  Name = ZINC30691119
REMARK  8 active torsions:
REMARK  status: ('A' for Active; 'I' for Inactive)
REMARK    1  A    between atoms: C_1  and  N_2
REMARK    2  A    between atoms: N_2  and  C_3
REMARK    3  A    between atoms: N_2  and  C_4
REMARK    4  A    between atoms: C_13  and  N_34
REMARK    5  A    between atoms: C_16  and  O_33
REMARK    6  A    between atoms: C_21  and  O_32
REMARK    7  A    between atoms: C_22  and  O_31
REMARK    8  A    between atoms: C_25  and  C_28
REMARK                            x       y       z     vdW  Elec       q    Type
REMARK                         _______ _______ _______ _____ _____    ______ ____
ROOT
ATOM      1  C   UNL     1      -0.306   0.602   0.207  0.00  0.00    +0.010 C 
ATOM      2  C   UNL     1      -1.284   0.638  -0.952  0.00  0.00    +0.030 C 
ATOM      3  C   UNL     1      -2.710   0.326  -0.506  0.00  0.00    +0.014 C 
ATOM      4  C   UNL     1      -3.659   0.719  -1.641  0.00  0.00    +0.031 C 
ATOM      5  C   UNL     1      -5.070   0.231  -1.322  0.00  0.00    +0.046 C 
ATOM      6  C   UNL     1      -5.992   0.509  -2.479  0.00  0.00    -0.002 A 
ATOM      7  C   UNL     1      -7.306   0.857  -2.249  0.00  0.00    +0.130 A 
ATOM      8  C   UNL     1      -8.160   1.101  -3.312  0.00  0.00    +0.036 A 
ATOM      9  C   UNL     1      -7.708   0.995  -4.612  0.00  0.00    +0.048 A 
ATOM     10  C   UNL     1      -6.388   0.651  -4.862  0.00  0.00    +0.128 A 
ATOM     11  C   UNL     1      -5.521   0.411  -3.789  0.00  0.00    +0.069 A 
ATOM     12  C   UNL     1      -4.103   0.077  -4.034  0.00  0.00    +0.197 C 
ATOM     13  O   UNL     1      -3.725  -0.241  -5.147  0.00  0.00    -0.287 OA
ATOM     14  C   UNL     1      -3.192   0.121  -2.941  0.00  0.00    +0.044 C 
ATOM     15  C   UNL     1      -1.959  -0.360  -3.122  0.00  0.00    +0.140 C 
ATOM     16  C   UNL     1      -0.890  -0.343  -2.056  0.00  0.00    +0.187 C 
ATOM     17  C   UNL     1      -0.832  -1.733  -1.451  0.00  0.00    +0.210 C 
ATOM     18  O   UNL     1      -1.241  -2.693  -2.070  0.00  0.00    -0.288 OA
ATOM     19  C   UNL     1      -0.274  -1.894  -0.109  0.00  0.00    +0.123 C 
ATOM     20  C   UNL     1      -0.039  -0.796   0.678  0.00  0.00    +0.159 C 
ATOM     21  O   UNL     1       0.447  -0.981   1.914  0.00  0.00    -0.294 OA
ENDROOT
BRANCH  19  22
ATOM     22  C   UNL     1       0.036  -3.240   0.398  0.00  0.00    +0.248 C 
ATOM     23  O   UNL     1       0.386  -3.389   1.554  0.00  0.00    -0.270 OA
ATOM     24  N   UNL     1      -0.068  -4.308  -0.417  0.00  0.00    -0.325 N 
ATOM     25  H   UNL     1      -0.267  -4.182  -1.358  0.00  0.00    +0.145 HD
ATOM     26  H   UNL     1       0.055  -5.202  -0.063  0.00  0.00    +0.145 HD
ENDBRANCH  19  22
BRANCH   1  28
ATOM     27  C   UNL     1       0.721   2.599  -0.635  0.00  0.00    -0.096 C 
ATOM     28  N   UNL     1       0.961   1.211  -0.220  0.00  0.00    +0.383 N 
ATOM     29  C   UNL     1       1.914   1.191   0.897  0.00  0.00    -0.096 C 
ATOM     30  H   UNL     1       1.340   0.689  -0.995  0.00  0.00    -0.082 HD
ENDBRANCH   1  28
BRANCH   7  31
ATOM     31  N   UNL     1      -7.806   0.971  -0.860  0.00  0.00    +0.057 N 
ATOM     32  O   UNL     1      -7.429   0.192  -0.016  0.00  0.00    -0.126 OA
ATOM     33  O   UNL     1      -8.591   1.844  -0.570  0.00  0.00    -0.126 OA
ENDBRANCH   7  31
BRANCH  16  34
ATOM     34  O   UNL     1       0.372   0.021  -2.621  0.00  0.00    -0.373 OA
ATOM     35  H   UNL     1       0.671  -0.568  -3.327  0.00  0.00    +0.211 HD
ENDBRANCH  16  34
BRANCH  15  36
ATOM     36  O   UNL     1      -1.655  -0.885  -4.325  0.00  0.00    -0.507 OA
ATOM     37  H   UNL     1      -0.979  -0.393  -4.810  0.00  0.00    +0.292 HD
ENDBRANCH  15  36
BRANCH  10  38
ATOM     38  O   UNL     1      -5.939   0.545  -6.139  0.00  0.00    -0.506 OA
ATOM     39  H   UNL     1      -5.585   1.369  -6.500  0.00  0.00    +0.292 HD
ENDBRANCH  10  38
TORSDOF 6
