REMARK  Name = ZINC40392127
REMARK  13 active torsions:
REMARK  status: ('A' for Active; 'I' for Inactive)
REMARK    1  A    between atoms: C_1  and  C_2
REMARK    2  A    between atoms: C_2  and  O_3
REMARK    3  A    between atoms: O_3  and  C_4
REMARK    4  A    between atoms: C_4  and  C_6
REMARK    5  A    between atoms: C_7  and  C_24
REMARK    6  A    between atoms: N_8  and  C_23
REMARK    7  A    between atoms: C_12  and  C_14
REMARK    8  A    between atoms: C_17  and  C_20
REMARK    9  A    between atoms: C_20  and  C_21
REMARK   10  A    between atoms: C_20  and  C_22
REMARK   11  A    between atoms: C_24  and  N_25
REMARK   12  A    between atoms: C_32  and  C_34
REMARK   13  A    between atoms: C_37  and  C_40
REMARK                            x       y       z     vdW  Elec       q    Type
REMARK                         _______ _______ _______ _____ _____    ______ ____
ROOT
ATOM      1  C   UNL     1       0.889  -2.673  -2.341  0.00  0.00    +0.076 C 
ATOM      2  C   UNL     1       1.560  -3.806  -2.639  0.00  0.00    +0.010 C 
ATOM      3  N   UNL     1       2.393  -3.869  -3.719  0.00  0.00    -0.264 N 
ATOM      4  C   UNL     1       2.610  -2.842  -4.550  0.00  0.00    +0.307 C 
ATOM      5  O   UNL     1       3.370  -2.994  -5.486  0.00  0.00    -0.252 OA
ATOM      6  N   UNL     1       2.012  -1.646  -4.383  0.00  0.00    -0.288 N 
ATOM      7  C   UNL     1       1.088  -1.476  -3.249  0.00  0.00    +0.143 C 
ATOM      8  C   UNL     1       3.089  -5.131  -3.982  0.00  0.00    +0.139 C 
ATOM      9  H   UNL     1       2.184  -0.915  -4.997  0.00  0.00    +0.151 HD
ENDROOT
BRANCH   7  10
ATOM     10  C   UNL     1       1.597  -0.334  -2.408  0.00  0.00    -0.022 A 
ATOM     11  C   UNL     1       2.935  -0.271  -2.066  0.00  0.00    +0.006 A 
ATOM     12  C   UNL     1       3.402   0.777  -1.294  0.00  0.00    +0.004 A 
ATOM     13  C   UNL     1       2.532   1.761  -0.865  0.00  0.00    -0.045 A 
ATOM     14  C   UNL     1       1.194   1.698  -1.208  0.00  0.00    +0.004 A 
ATOM     15  C   UNL     1       0.728   0.653  -1.983  0.00  0.00    +0.006 A 
BRANCH  13  16
ATOM     16  C   UNL     1       3.041   2.903  -0.023  0.00  0.00    +0.013 C 
ATOM     17  C   UNL     1       2.783   4.225  -0.748  0.00  0.00    +0.012 C 
ATOM     18  C   UNL     1       2.313   2.908   1.323  0.00  0.00    +0.012 C 
ENDBRANCH  13  16
ENDBRANCH   7  10
BRANCH   1  19
ATOM     19  C   UNL     1       0.025  -2.606  -1.223  0.00  0.00    +0.339 C 
ATOM     20  O   UNL     1      -0.213  -3.610  -0.577  0.00  0.00    -0.245 OA
BRANCH  19  21
ATOM     21  O   UNL     1      -0.535  -1.430  -0.872  0.00  0.00    -0.462 OA
BRANCH  21  23
ATOM     22  C   UNL     1      -1.933  -0.024   0.510  0.00  0.00    +0.048 C 
ATOM     23  C   UNL     1      -1.397  -1.436   0.268  0.00  0.00    +0.229 C 
ENDBRANCH  21  23
ENDBRANCH  19  21
ENDBRANCH   1  19
BRANCH   2  24
ATOM     24  C   UNL     1       1.386  -5.021  -1.764  0.00  0.00    -0.026 C 
BRANCH  24  25
ATOM     25  N   UNL     1       0.194  -5.766  -2.191  0.00  0.00    +0.384 N 
ATOM     26  C   UNL     1      -0.114  -6.767  -1.172  0.00  0.00    -0.077 C 
ATOM     27  C   UNL     1      -1.604  -7.028  -1.163  0.00  0.00    +0.000 C 
ATOM     28  C   UNL     1      -1.919  -8.227  -2.075  0.00  0.00    +0.106 C 
ATOM     29  N   UNL     1      -1.099  -8.191  -3.303  0.00  0.00    -0.299 N 
ATOM     30  C   UNL     1      -0.845  -6.964  -4.030  0.00  0.00    +0.089 C 
ATOM     31  C   UNL     1       0.432  -6.285  -3.483  0.00  0.00    -0.059 C 
ATOM     32  C   UNL     1      -0.567  -9.341  -3.763  0.00  0.00    +0.247 C 
ATOM     33  O   UNL     1       0.206  -9.320  -4.701  0.00  0.00    -0.270 OA
ATOM     34  H   UNL     1      -0.580  -5.121  -2.245  0.00  0.00    -0.081 HD
BRANCH  32  35
ATOM     35  C   UNL     1      -0.925 -10.627  -3.128  0.00  0.00    +0.037 A 
ATOM     36  C   UNL     1      -2.229 -10.850  -2.682  0.00  0.00    +0.013 A 
ATOM     37  C   UNL     1      -2.556 -12.052  -2.090  0.00  0.00    +0.004 A 
ATOM     38  C   UNL     1      -1.596 -13.037  -1.940  0.00  0.00    -0.050 A 
ATOM     39  C   UNL     1      -0.302 -12.822  -2.380  0.00  0.00    +0.004 A 
ATOM     40  C   UNL     1       0.037 -11.627  -2.978  0.00  0.00    +0.013 A 
ATOM     41  C   UNL     1      -1.961 -14.348  -1.292  0.00  0.00    +0.044 C 
ENDBRANCH  32  35
ENDBRANCH  24  25
ENDBRANCH   2  24
TORSDOF 8
