REMARK  Name = ZINC21579684
REMARK  11 active torsions:
REMARK  status: ('A' for Active; 'I' for Inactive)
REMARK    1  A    between atoms: C_1  and  C_2
REMARK    2  A    between atoms: C_2  and  C_3
REMARK    3  A    between atoms: C_3  and  C_28
REMARK    4  A    between atoms: N_6  and  N_10
REMARK    5  A    between atoms: C_11  and  C_13
REMARK    6  A    between atoms: C_13  and  N_14
REMARK    7  A    between atoms: N_14  and  C_15
REMARK    8  A    between atoms: N_14  and  C_16
REMARK    9  A    between atoms: C_16  and  C_17
REMARK   10  A    between atoms: N_19  and  C_20
REMARK   11  A    between atoms: C_25  and  C_26
REMARK                            x       y       z     vdW  Elec       q    Type
REMARK                         _______ _______ _______ _____ _____    ______ ____
ROOT
ATOM      1  C   UNL     1      -3.414   5.519  -1.074  0.00  0.00    +0.020 C 
ENDROOT
BRANCH   1   3
ATOM      2  N   UNL     1      -1.703   4.112   0.027  0.00  0.00    -0.225 N 
ATOM      3  C   UNL     1      -2.398   4.406  -1.089  0.00  0.00    +0.213 C 
ATOM      4  O   UNL     1      -2.206   3.775  -2.107  0.00  0.00    -0.276 OA
ATOM      5  H   UNL     1      -1.877   4.685   0.950  0.00  0.00    +0.173 HD
BRANCH   2   9
ATOM      6  C   UNL     1       1.189   1.885  -0.018  0.00  0.00    +0.111 C 
ATOM      7  C   UNL     1       0.575   3.270  -0.008  0.00  0.00    +0.263 C 
ATOM      8  O   UNL     1       1.162   4.331  -0.017  0.00  0.00    -0.271 OA
ATOM      9  N   UNL     1      -0.759   3.078   0.013  0.00  0.00    -0.137 N 
ATOM     10  C   UNL     1      -1.069   1.776   0.012  0.00  0.00    +0.326 C 
ATOM     11  O   UNL     1      -2.209   1.354   0.025  0.00  0.00    -0.251 OA
ATOM     12  N   UNL     1       0.020   0.988  -0.000  0.00  0.00    -0.284 N 
ATOM     13  C   UNL     1       2.013   1.670  -1.290  0.00  0.00    +0.041 C 
ATOM     14  H   UNL     1       0.164  -0.103   0.001  0.00  0.00    +0.151 HD
BRANCH   6  16
ATOM     15  C   UNL     1       2.572   0.227   1.239  0.00  0.00    +0.006 C 
ATOM     16  C   UNL     1       2.054   1.666   1.224  0.00  0.00    +0.032 C 
ENDBRANCH   6  16
ENDBRANCH   2   9
ENDBRANCH   1   3
BRANCH   1  17
ATOM     17  N   UNL     1      -4.030   5.639  -2.402  0.00  0.00    +0.389 N 
ATOM     18  C   UNL     1      -4.824   4.445  -2.724  0.00  0.00    -0.095 C 
ATOM     19  H   UNL     1      -3.221   5.716  -3.144  0.00  0.00    -0.081 HD
BRANCH  17  20
ATOM     20  C   UNL     1      -4.847   6.856  -2.496  0.00  0.00    +0.019 C 
BRANCH  20  21
ATOM     21  C   UNL     1      -5.260   7.075  -3.929  0.00  0.00    +0.201 C 
ATOM     22  O   UNL     1      -4.907   6.294  -4.787  0.00  0.00    -0.278 OA
ATOM     23  N   UNL     1      -6.020   8.138  -4.256  0.00  0.00    -0.287 N 
ATOM     24  H   UNL     1      -6.415   8.796  -3.467  0.00  0.00    +0.155 HD
BRANCH  23  25
ATOM     25  C   UNL     1      -6.306   8.407  -5.599  0.00  0.00    +0.036 A 
ATOM     26  C   UNL     1      -5.453   7.953  -6.597  0.00  0.00    +0.024 A 
ATOM     27  C   UNL     1      -5.738   8.220  -7.921  0.00  0.00    +0.017 A 
ATOM     28  C   UNL     1      -6.873   8.937  -8.255  0.00  0.00    +0.018 A 
ATOM     29  C   UNL     1      -7.725   9.390  -7.264  0.00  0.00    +0.020 A 
ATOM     30  C   UNL     1      -7.448   9.122  -5.938  0.00  0.00    -0.028 A 
ATOM     31  C   UNL     1      -8.380   9.609  -4.858  0.00  0.00    +0.046 C 
ATOM     32 BR   UNL     1      -7.260   9.300 -10.070  0.00  0.00    -0.050 Br
ENDBRANCH  23  25
ENDBRANCH  20  21
ENDBRANCH  17  20
ENDBRANCH   1  17
TORSDOF 7
