REMARK  Name = ZINC67350772
REMARK  3 active torsions:
REMARK  status: ('A' for Active; 'I' for Inactive)
REMARK    1  A    between atoms: C_3  and  O_23
REMARK    2  A    between atoms: C_8  and  C_12
REMARK    3  A    between atoms: N_14  and  C_15
REMARK                            x       y       z     vdW  Elec       q    Type
REMARK                         _______ _______ _______ _____ _____    ______ ____
ROOT
ATOM      1  C   UNL     1      -0.062   1.506   0.026  0.00  0.00    +0.015 A 
ATOM      2  C   UNL     1       1.086   2.210   0.244  0.00  0.00    +0.046 A 
ATOM      3  C   UNL     1       2.235   1.566   0.699  0.00  0.00    +0.120 A 
ATOM      4  C   UNL     1       2.231   0.197   0.924  0.00  0.00    +0.092 A 
ATOM      5  C   UNL     1       1.076  -0.534   0.702  0.00  0.00    +0.141 A 
ATOM      6  C   UNL     1      -0.092   0.125   0.271  0.00  0.00    +0.018 A 
ATOM      7  C   UNL     1      -1.290  -0.611   0.082  0.00  0.00    +0.030 A 
ATOM      8  C   UNL     1      -1.330  -1.923   0.528  0.00  0.00    +0.097 A 
ATOM      9  C   UNL     1      -0.121  -2.449   1.200  0.00  0.00    +0.205 A 
ATOM     10  N   UNL     1      -0.198  -3.428   2.062  0.00  0.00    -0.369 N 
ATOM     11  O   UNL     1       1.071  -1.877   0.889  0.00  0.00    -0.439 OA
ATOM     12  H   UNL     1      -1.051  -3.856   2.234  0.00  0.00    +0.159 HD
ATOM     13  H   UNL     1       0.598  -3.726   2.529  0.00  0.00    +0.159 HD
ENDROOT
BRANCH   8  14
ATOM     14  C   UNL     1      -2.525  -2.759   0.340  0.00  0.00    +0.253 C 
ATOM     15  O   UNL     1      -2.491  -3.942   0.622  0.00  0.00    -0.270 OA
ATOM     16  N   UNL     1      -3.659  -2.214  -0.144  0.00  0.00    -0.281 N 
ATOM     17  H   UNL     1      -3.653  -1.307  -0.488  0.00  0.00    +0.155 HD
BRANCH  16  18
ATOM     18  C   UNL     1      -4.845  -2.956  -0.150  0.00  0.00    +0.035 A 
ATOM     19  C   UNL     1      -4.797  -4.344  -0.114  0.00  0.00    +0.025 A 
ATOM     20  C   UNL     1      -5.968  -5.075  -0.120  0.00  0.00    +0.023 A 
ATOM     21  C   UNL     1      -7.190  -4.427  -0.162  0.00  0.00    +0.059 A 
ATOM     22  C   UNL     1      -7.241  -3.043  -0.198  0.00  0.00    +0.061 A 
ATOM     23  C   UNL     1      -6.071  -2.307  -0.186  0.00  0.00    +0.044 A 
ATOM     24 CL   UNL     1      -8.776  -2.233  -0.251  0.00  0.00    -0.082 Cl
ATOM     25 CL   UNL     1      -8.661  -5.349  -0.171  0.00  0.00    -0.082 Cl
ENDBRANCH  16  18
ENDBRANCH   8  14
BRANCH   3  26
ATOM     26  O   UNL     1       3.365   2.282   0.923  0.00  0.00    -0.507 OA
ATOM     27  H   UNL     1       3.440   2.628   1.823  0.00  0.00    +0.292 HD
ENDBRANCH   3  26
TORSDOF 3
