REMARK  Name = ZINC01901431
REMARK  13 active torsions:
REMARK  status: ('A' for Active; 'I' for Inactive)
REMARK    1  A    between atoms: C_1  and  C_2
REMARK    2  A    between atoms: C_2  and  O_3
REMARK    3  A    between atoms: O_3  and  C_4
REMARK    4  A    between atoms: C_7  and  N_10
REMARK    5  A    between atoms: C_11  and  C_13
REMARK    6  A    between atoms: C_13  and  S_14
REMARK    7  A    between atoms: S_14  and  C_15
REMARK    8  A    between atoms: C_24  and  C_26
REMARK    9  A    between atoms: C_24  and  C_27
REMARK   10  A    between atoms: N_30  and  C_31
REMARK   11  A    between atoms: C_34  and  O_37
REMARK   12  A    between atoms: O_37  and  C_38
REMARK   13  A    between atoms: C_38  and  C_39
REMARK                            x       y       z     vdW  Elec       q    Type
REMARK                         _______ _______ _______ _____ _____    ______ ____
ROOT
ATOM      1  C   UNL     1      -5.193 -10.198   0.797  0.00  0.00    +0.178 A 
ATOM      2  N   UNL     1      -4.061 -10.872   0.791  0.00  0.00    -0.215 NA
ATOM      3  C   UNL     1      -4.046 -12.176   0.544  0.00  0.00    +0.117 A 
ATOM      4  C   UNL     1      -5.222 -12.900   0.278  0.00  0.00    +0.076 A 
ATOM      5  C   UNL     1      -5.045 -14.329   0.024  0.00  0.00    -0.018 A 
ATOM      6  C   UNL     1      -3.783 -14.810   0.069  0.00  0.00    +0.021 A 
ATOM      7  S   UNL     1      -2.771 -13.408   0.447  0.00  0.00    -0.071 S 
ATOM      8  C   UNL     1      -3.369 -16.231  -0.156  0.00  0.00    +0.203 C 
ATOM      9  O   UNL     1      -4.549 -17.047  -0.114  0.00  0.00    -0.368 OA
ATOM     10  C   UNL     1      -5.620 -16.544  -0.916  0.00  0.00    +0.068 C 
ATOM     11  C   UNL     1      -6.202 -15.276  -0.284  0.00  0.00    +0.071 C 
ATOM     12  C   UNL     1      -5.096 -16.219  -2.316  0.00  0.00    +0.041 C 
ATOM     13  C   UNL     1      -6.717 -17.606  -1.023  0.00  0.00    +0.041 C 
ATOM     14  C   UNL     1      -6.436 -12.143   0.290  0.00  0.00    +0.268 A 
ATOM     15  O   UNL     1      -7.505 -12.687   0.071  0.00  0.00    -0.267 OA
ATOM     16  N   UNL     1      -6.383 -10.825   0.553  0.00  0.00    -0.255 N 
ENDROOT
BRANCH  16  17
ATOM     17  C   UNL     1      -7.570 -10.079   0.573  0.00  0.00    +0.052 A 
ATOM     18  C   UNL     1      -8.362 -10.063   1.713  0.00  0.00    +0.030 A 
ATOM     19  C   UNL     1      -9.530  -9.328   1.732  0.00  0.00    +0.047 A 
ATOM     20  C   UNL     1      -9.914  -8.606   0.611  0.00  0.00    +0.121 A 
ATOM     21  C   UNL     1      -9.123  -8.621  -0.529  0.00  0.00    +0.047 A 
ATOM     22  C   UNL     1      -7.951  -9.351  -0.546  0.00  0.00    +0.030 A 
BRANCH  20  23
ATOM     23  O   UNL     1     -11.065  -7.883   0.630  0.00  0.00    -0.492 OA
BRANCH  23  24
ATOM     24  C   UNL     1     -11.399  -7.163  -0.559  0.00  0.00    +0.225 C 
ATOM     25  C   UNL     1     -12.717  -6.415  -0.349  0.00  0.00    +0.048 C 
ENDBRANCH  23  24
ENDBRANCH  20  23
ENDBRANCH  16  17
BRANCH   1  26
ATOM     26  S   UNL     1      -5.173  -8.468   1.129  0.00  0.00    -0.078 S 
BRANCH  26  27
ATOM     27  C   UNL     1      -3.417  -8.090   1.384  0.00  0.00    +0.173 C 
BRANCH  27  29
ATOM     28  N   UNL     1      -2.032  -6.109   1.906  0.00  0.00    -0.285 N 
ATOM     29  C   UNL     1      -3.258  -6.621   1.681  0.00  0.00    +0.227 C 
ATOM     30  O   UNL     1      -4.233  -5.900   1.718  0.00  0.00    -0.275 OA
ATOM     31  H   UNL     1      -1.246  -6.667   1.800  0.00  0.00    +0.155 HD
BRANCH  28  35
ATOM     32  C   UNL     1      -1.618  -2.124   3.064  0.00  0.00    +0.121 A 
ATOM     33  C   UNL     1      -2.767  -2.827   3.396  0.00  0.00    +0.047 A 
ATOM     34  C   UNL     1      -2.905  -4.146   3.013  0.00  0.00    +0.027 A 
ATOM     35  C   UNL     1      -1.893  -4.769   2.295  0.00  0.00    +0.034 A 
ATOM     36  C   UNL     1      -0.743  -4.066   1.963  0.00  0.00    +0.027 A 
ATOM     37  C   UNL     1      -0.609  -2.744   2.341  0.00  0.00    +0.047 A 
BRANCH  32  38
ATOM     38  O   UNL     1      -1.483  -0.825   3.441  0.00  0.00    -0.492 OA
BRANCH  38  40
ATOM     39  C   UNL     1      -2.230   1.207   4.515  0.00  0.00    +0.048 C 
ATOM     40  C   UNL     1      -2.561  -0.249   4.183  0.00  0.00    +0.225 C 
ENDBRANCH  38  40
ENDBRANCH  32  38
ENDBRANCH  28  35
ENDBRANCH  27  29
ENDBRANCH  26  27
ENDBRANCH   1  26
TORSDOF 9
