REMARK  Name = ZINC50463263
REMARK  5 active torsions:
REMARK  status: ('A' for Active; 'I' for Inactive)
REMARK    1  A    between atoms: C_1  and  N_2
REMARK    2  A    between atoms: C_3  and  C_5
REMARK    3  A    between atoms: C_5  and  N_6
REMARK    4  A    between atoms: C_12  and  C_14
REMARK    5  A    between atoms: C_17  and  N_19
REMARK                            x       y       z     vdW  Elec       q    Type
REMARK                         _______ _______ _______ _____ _____    ______ ____
ROOT
ATOM      1  N   UNL     1       1.335  -2.669   2.185  0.00  0.00    -0.291 NA
ATOM      2  C   UNL     1       2.755  -2.293   2.142  0.00  0.00    +0.104 C 
ATOM      3  C   UNL     1       3.417  -2.657   3.474  0.00  0.00    +0.123 C 
ATOM      4  N   UNL     1       3.159  -4.078   3.752  0.00  0.00    -0.299 N 
ATOM      5  C   UNL     1       1.771  -4.560   3.679  0.00  0.00    +0.123 C 
ATOM      6  C   UNL     1       1.173  -4.121   2.338  0.00  0.00    +0.104 C 
ATOM      7  C   UNL     1       4.167  -4.916   4.065  0.00  0.00    +0.217 C 
ATOM      8  O   UNL     1       5.305  -4.501   4.121  0.00  0.00    -0.275 OA
ENDROOT
BRANCH   7   9
ATOM      9  C   UNL     1       3.879  -6.368   4.346  0.00  0.00    +0.059 C 
ATOM     10  C   UNL     1       4.066  -6.861   5.782  0.00  0.00    -0.005 C 
ATOM     11  C   UNL     1       5.066  -7.268   4.698  0.00  0.00    -0.063 C 
BRANCH  11  12
ATOM     12  N   UNL     1       6.398  -6.650   4.736  0.00  0.00    +0.380 N 
ATOM     13  H   UNL     1       6.407  -5.914   5.426  0.00  0.00    -0.090 HD
ATOM     14  H   UNL     1       7.085  -7.348   4.979  0.00  0.00    -0.090 HD
ATOM     15  H   UNL     1       6.616  -6.264   3.830  0.00  0.00    -0.090 HD
ENDBRANCH  11  12
ENDBRANCH   7   9
BRANCH   1  16
ATOM     16  C   UNL     1       0.625  -2.182   0.995  0.00  0.00    +0.180 C 
BRANCH  16  19
ATOM     17  C   UNL     1      -0.018   1.461   0.010  0.00  0.00    +0.128 C 
ATOM     18  N   UNL     1       0.002  -0.004   0.002  0.00  0.00    -0.317 N 
ATOM     19  C   UNL     1       0.604  -0.675   1.004  0.00  0.00    +0.227 C 
ATOM     20  O   UNL     1       1.130  -0.067   1.911  0.00  0.00    -0.274 OA
ATOM     21  H   UNL     1      -0.418  -0.491  -0.724  0.00  0.00    +0.148 HD
ENDBRANCH  16  19
ENDBRANCH   1  16
TORSDOF 4
