REMARK  Name = ZINC38965658
REMARK  6 active torsions:
REMARK  status: ('A' for Active; 'I' for Inactive)
REMARK    1  A    between atoms: C_1  and  C_2
REMARK    2  A    between atoms: C_2  and  C_3
REMARK    3  A    between atoms: C_7  and  N_9
REMARK    4  A    between atoms: N_9  and  C_10
REMARK    5  A    between atoms: N_13  and  S_14
REMARK    6  A    between atoms: S_14  and  C_17
REMARK                            x       y       z     vdW  Elec       q    Type
REMARK                         _______ _______ _______ _____ _____    ______ ____
ROOT
ATOM      1  C   UNL     1      -5.370  -2.095  -2.361  0.00  0.00    +0.237 C 
ATOM      2  C   UNL     1      -5.328  -3.312  -3.258  0.00  0.00    +0.192 C 
ATOM      3  N   UNL     1      -4.484  -4.274  -3.026  0.00  0.00    -0.110 NA
ATOM      4  N   UNL     1      -6.175  -3.385  -4.297  0.00  0.00    -0.226 NA
ATOM      5  C   UNL     1      -7.039  -2.425  -4.552  0.00  0.00    +0.089 A 
ATOM      6  C   UNL     1      -7.919  -2.535  -5.658  0.00  0.00    +0.030 A 
ATOM      7  C   UNL     1      -8.807  -1.553  -5.925  0.00  0.00    +0.002 A 
ATOM      8  C   UNL     1      -8.912  -0.391  -5.144  0.00  0.00    +0.002 A 
ATOM      9  C   UNL     1      -8.122  -0.184  -4.067  0.00  0.00    +0.027 A 
ATOM     10  C   UNL     1      -7.128  -1.207  -3.709  0.00  0.00    +0.063 A 
ATOM     11  N   UNL     1      -6.349  -1.043  -2.677  0.00  0.00    -0.359 N 
ATOM     12  H   UNL     1      -6.413  -0.244  -2.130  0.00  0.00    +0.162 HD
ENDROOT
BRANCH   3  13
ATOM     13  S   UNL     1      -4.448  -5.600  -4.016  0.00  0.00    +0.103 S 
ATOM     14  O   UNL     1      -5.686  -6.274  -3.838  0.00  0.00    -0.146 OA
ATOM     15  O   UNL     1      -4.004  -5.146  -5.287  0.00  0.00    -0.146 OA
BRANCH  13  16
ATOM     16  C   UNL     1      -3.196  -6.676  -3.400  0.00  0.00    +0.141 A 
ATOM     17  C   UNL     1      -3.531  -7.894  -2.914  0.00  0.00    +0.031 A 
ATOM     18  C   UNL     1      -2.567  -8.772  -2.419  0.00  0.00    +0.004 A 
ATOM     19  C   UNL     1      -1.254  -8.444  -2.402  0.00  0.00    +0.031 A 
ATOM     20  C   UNL     1      -0.828  -7.181  -2.896  0.00  0.00    +0.102 A 
ATOM     21  C   UNL     1      -1.835  -6.266  -3.420  0.00  0.00    +0.127 A 
ATOM     22  N   UNL     1      -1.322  -5.117  -3.860  0.00  0.00    -0.189 NA
ATOM     23  S   UNL     1       0.266  -5.232  -3.623  0.00  0.00    +0.117 S 
ATOM     24  N   UNL     1       0.410  -6.690  -2.959  0.00  0.00    -0.191 NA
ENDBRANCH  13  16
ENDBRANCH   3  13
BRANCH   1  25
ATOM     25  N   UNL     1      -4.038  -1.486  -2.371  0.00  0.00    -0.318 N 
ATOM     26  H   UNL     1      -3.605  -1.283  -3.215  0.00  0.00    +0.148 HD
BRANCH  25  31
ATOM     27  C   UNL     1      -3.433  -1.042   1.226  0.00  0.00    -0.046 A 
ATOM     28  C   UNL     1      -2.115  -0.624   1.220  0.00  0.00    +0.004 A 
ATOM     29  C   UNL     1      -1.435  -0.491   0.024  0.00  0.00    +0.002 A 
ATOM     30  C   UNL     1      -2.070  -0.776  -1.169  0.00  0.00    +0.023 A 
ATOM     31  C   UNL     1      -3.393  -1.197  -1.166  0.00  0.00    +0.029 A 
ATOM     32  C   UNL     1      -4.073  -1.334   0.038  0.00  0.00    +0.026 A 
BRANCH  27  34
ATOM     33  C   UNL     1      -3.980  -2.603   3.074  0.00  0.00    +0.009 C 
ATOM     34  C   UNL     1      -4.171  -1.185   2.533  0.00  0.00    +0.032 C 
ENDBRANCH  27  34
ENDBRANCH  25  31
ENDBRANCH   1  25
TORSDOF 5
