REMARK  Name = ZINC64886232
REMARK  8 active torsions:
REMARK  status: ('A' for Active; 'I' for Inactive)
REMARK    1  A    between atoms: C_1  and  C_2
REMARK    2  A    between atoms: C_3  and  C_12
REMARK    3  A    between atoms: C_5  and  C_7
REMARK    4  A    between atoms: N_14  and  N_15
REMARK    5  A    between atoms: N_18  and  C_19
REMARK    6  A    between atoms: C_19  and  C_20
REMARK    7  A    between atoms: C_20  and  C_21
REMARK    8  A    between atoms: C_21  and  N_22
REMARK                            x       y       z     vdW  Elec       q    Type
REMARK                         _______ _______ _______ _____ _____    ______ ____
ROOT
ATOM      1  C   UNL     1      -2.438  -0.371   0.011  0.00  0.00    +0.279 C 
ATOM      2  O   UNL     1      -2.648   0.827   0.019  0.00  0.00    -0.267 OA
ATOM      3  N   UNL     1      -3.471  -1.236   0.011  0.00  0.00    -0.228 N 
ATOM      4  H   UNL     1      -3.304  -2.192   0.005  0.00  0.00    +0.173 HD
ENDROOT
BRANCH   1   7
ATOM      5  C   UNL     1      -0.018   1.503   0.010  0.00  0.00    +0.054 C 
ATOM      6  C   UNL     1       0.002  -0.004   0.002  0.00  0.00    +0.019 A 
ATOM      7  C   UNL     1      -1.054  -0.875   0.002  0.00  0.00    +0.138 A 
ATOM      8  N   UNL     1      -0.815  -2.180  -0.006  0.00  0.00    -0.231 NA
ATOM      9  C   UNL     1       0.444  -2.588  -0.014  0.00  0.00    +0.144 A 
ATOM     10  S   UNL     1       1.329  -1.039  -0.017  0.00  0.00    -0.069 S 
BRANCH   9  11
ATOM     11  C   UNL     1       0.974  -3.961  -0.023  0.00  0.00    +0.160 A 
ATOM     12  C   UNL     1       0.234  -5.104  -0.031  0.00  0.00    +0.052 A 
ATOM     13  C   UNL     1       1.146  -6.177  -0.038  0.00  0.00    +0.042 A 
ATOM     14  C   UNL     1       2.384  -5.644  -0.034  0.00  0.00    +0.196 A 
ATOM     15  O   UNL     1       2.277  -4.305  -0.030  0.00  0.00    -0.461 OA
ENDBRANCH   9  11
ENDBRANCH   1   7
BRANCH   3  16
ATOM     16  N   UNL     1      -4.787  -0.756   0.020  0.00  0.00    -0.218 N 
ATOM     17  C   UNL     1      -5.821  -1.622   0.019  0.00  0.00    +0.316 C 
ATOM     18  O   UNL     1      -6.963  -1.205   0.027  0.00  0.00    -0.251 OA
ATOM     19  N   UNL     1      -5.588  -2.949   0.011  0.00  0.00    -0.298 N 
ATOM     20  H   UNL     1      -4.955   0.199   0.026  0.00  0.00    +0.174 HD
ATOM     21  H   UNL     1      -4.676  -3.281   0.005  0.00  0.00    +0.150 HD
BRANCH  19  22
ATOM     22  C   UNL     1      -6.710  -3.890   0.010  0.00  0.00    +0.107 C 
BRANCH  22  23
ATOM     23  C   UNL     1      -6.175  -5.323  -0.000  0.00  0.00    +0.040 C 
BRANCH  23  24
ATOM     24  C   UNL     1      -7.348  -6.306  -0.001  0.00  0.00    +0.124 C 
BRANCH  24  25
ATOM     25  N   UNL     1      -6.835  -7.678  -0.011  0.00  0.00    -0.338 N 
ATOM     26  C   UNL     1      -6.550  -8.430  -1.118  0.00  0.00    +0.104 A 
ATOM     27  C   UNL     1      -6.106  -9.622  -0.676  0.00  0.00    +0.101 A 
ATOM     28  N   UNL     1      -6.119  -9.598   0.665  0.00  0.00    -0.352 N 
ATOM     29  C   UNL     1      -6.550  -8.435   1.071  0.00  0.00    +0.173 A 
ATOM     30  H   UNL     1      -5.847 -10.329   1.243  0.00  0.00    +0.166 HD
ENDBRANCH  24  25
ENDBRANCH  23  24
ENDBRANCH  22  23
ENDBRANCH  19  22
ENDBRANCH   3  16
TORSDOF 7
