REMARK  Name = ZINC37767367
REMARK  5 active torsions:
REMARK  status: ('A' for Active; 'I' for Inactive)
REMARK    1  A    between atoms: C_2  and  N_13
REMARK    2  A    between atoms: C_5  and  O_8
REMARK    3  A    between atoms: O_8  and  C_9
REMARK    4  A    between atoms: C_14  and  C_16
REMARK    5  A    between atoms: C_19  and  O_23
REMARK                            x       y       z     vdW  Elec       q    Type
REMARK                         _______ _______ _______ _____ _____    ______ ____
ROOT
ATOM      1  N   UNL     1       1.157   3.489   0.009  0.00  0.00    -0.287 N 
ATOM      2  C   UNL     1       2.312   4.178   0.104  0.00  0.00    +0.203 C 
ATOM      3  O   UNL     1       3.372   3.589   0.091  0.00  0.00    -0.277 OA
ATOM      4  H   UNL     1       0.314   3.963  -0.058  0.00  0.00    +0.155 HD
ENDROOT
BRANCH   1   6
ATOM      5  C   UNL     1       0.236   1.382  -0.732  0.00  0.00    +0.047 A 
ATOM      6  C   UNL     1       1.176   2.088   0.008  0.00  0.00    +0.036 A 
ATOM      7  C   UNL     1       2.133   1.405   0.746  0.00  0.00    +0.047 A 
ATOM      8  C   UNL     1       2.151   0.024   0.744  0.00  0.00    +0.086 A 
ATOM      9  C   UNL     1       1.212  -0.682   0.004  0.00  0.00    +0.163 A 
ATOM     10  C   UNL     1       0.255   0.000  -0.733  0.00  0.00    +0.086 A 
ATOM     11 CL   UNL     1      -0.920  -0.882  -1.658  0.00  0.00    -0.080 Cl
ATOM     12 CL   UNL     1       3.349  -0.830   1.666  0.00  0.00    -0.080 Cl
BRANCH   9  13
ATOM     13  O   UNL     1       1.230  -2.042   0.003  0.00  0.00    -0.431 OA
BRANCH  13  14
ATOM     14  C   UNL     1       0.457  -2.702   1.006  0.00  0.00    +0.541 C 
ATOM     15  F   UNL     1       0.913  -2.322   2.273  0.00  0.00    -0.166 F 
ATOM     16  F   UNL     1      -0.889  -2.344   0.869  0.00  0.00    -0.166 F 
ENDBRANCH  13  14
ENDBRANCH   9  13
ENDBRANCH   1   6
BRANCH   2  17
ATOM     17  C   UNL     1       2.286   5.680   0.225  0.00  0.00    +0.019 C 
ATOM     18  C   UNL     1       2.130   6.338  -1.169  0.00  0.00    +0.023 C 
ATOM     19  C   UNL     1       2.735   7.745  -0.956  0.00  0.00    +0.097 C 
ATOM     20  C   UNL     1       3.658   7.605   0.268  0.00  0.00    -0.050 C 
ATOM     21  N   UNL     1       3.597   6.190   0.702  0.00  0.00    +0.388 N 
ATOM     22  H   UNL     1       3.649   6.129   1.707  0.00  0.00    -0.085 HD
ATOM     23  H   UNL     1       4.348   5.666   0.280  0.00  0.00    -0.085 HD
BRANCH  19  24
ATOM     24  O   UNL     1       1.700   8.695  -0.693  0.00  0.00    -0.394 OA
ATOM     25  H   UNL     1       2.021   9.597  -0.551  0.00  0.00    +0.210 HD
ENDBRANCH  19  24
ENDBRANCH   2  17
TORSDOF 5
