REMARK  Name = ZINC49155728
REMARK  7 active torsions:
REMARK  status: ('A' for Active; 'I' for Inactive)
REMARK    1  A    between atoms: C_1  and  C_2
REMARK    2  A    between atoms: C_2  and  C_4
REMARK    3  A    between atoms: C_2  and  N_10
REMARK    4  A    between atoms: C_4  and  C_5
REMARK    5  A    between atoms: N_10  and  C_11
REMARK    6  A    between atoms: C_11  and  C_13
REMARK    7  A    between atoms: C_11  and  C_14
REMARK                            x       y       z     vdW  Elec       q    Type
REMARK                         _______ _______ _______ _____ _____    ______ ____
ROOT
ATOM      1  C   UNL     1      -2.056  -0.254   1.405  0.00  0.00    -0.044 C 
ATOM      2  C   UNL     1      -2.393   1.235   1.507  0.00  0.00    -0.009 C 
ENDROOT
BRANCH   1   3
ATOM      3  C   UNL     1      -3.313  -1.067   1.575  0.00  0.00    -0.060 A 
ATOM      4  C   UNL     1      -4.178  -1.229   0.506  0.00  0.00    +0.004 A 
ATOM      5  C   UNL     1      -5.333  -1.972   0.652  0.00  0.00    +0.028 A 
ATOM      6  C   UNL     1      -5.627  -2.558   1.874  0.00  0.00    +0.067 A 
ATOM      7  C   UNL     1      -4.755  -2.394   2.952  0.00  0.00    +0.067 A 
ATOM      8  C   UNL     1      -3.595  -1.651   2.794  0.00  0.00    +0.029 A 
ATOM      9  N   UNL     1      -5.308  -3.087   4.026  0.00  0.00    -0.306 N 
ATOM     10  H   UNL     1      -4.926  -3.155   4.915  0.00  0.00    +0.170 HD
ATOM     11  C   UNL     1      -6.463  -3.647   3.620  0.00  0.00    +0.325 A 
ATOM     12  O   UNL     1      -7.197  -4.322   4.317  0.00  0.00    -0.247 OA
ATOM     13  N   UNL     1      -6.683  -3.346   2.327  0.00  0.00    -0.306 N 
ATOM     14  H   UNL     1      -7.447  -3.629   1.800  0.00  0.00    +0.170 HD
ENDBRANCH   1   3
BRANCH   1  15
ATOM     15  N   UNL     1      -1.466  -0.533   0.089  0.00  0.00    +0.385 N 
ATOM     16  H   UNL     1      -0.682   0.083  -0.065  0.00  0.00    -0.085 HD
ATOM     17  H   UNL     1      -2.159  -0.383  -0.628  0.00  0.00    -0.085 HD
BRANCH  15  19
ATOM     18  C   UNL     1       0.136  -2.123   1.041  0.00  0.00    -0.013 C 
ATOM     19  C   UNL     1      -1.009  -1.928   0.044  0.00  0.00    -0.070 C 
BRANCH  19  20
ATOM     20  C   UNL     1      -0.517  -2.258  -1.367  0.00  0.00    +0.020 C 
BRANCH  20  21
ATOM     21  C   UNL     1      -1.673  -2.186  -2.331  0.00  0.00    -0.042 A 
ATOM     22  C   UNL     1      -2.445  -3.304  -2.587  0.00  0.00    +0.011 A 
ATOM     23  C   UNL     1      -3.477  -3.205  -3.459  0.00  0.00    +0.045 A 
ATOM     24  S   UNL     1      -3.381  -1.491  -3.951  0.00  0.00    -0.105 S 
ATOM     25  C   UNL     1      -1.975  -1.022  -2.957  0.00  0.00    +0.048 A 
ENDBRANCH  20  21
ENDBRANCH  19  20
ENDBRANCH  15  19
ENDBRANCH   1  15
TORSDOF 5
