REMARK  Name = ZINC54615263
REMARK  14 active torsions:
REMARK  status: ('A' for Active; 'I' for Inactive)
REMARK    1  A    between atoms: C_1  and  C_2
REMARK    2  A    between atoms: C_2  and  O_3
REMARK    3  A    between atoms: O_3  and  C_4
REMARK    4  A    between atoms: C_9  and  N_10
REMARK    5  A    between atoms: C_11  and  C_13
REMARK    6  A    between atoms: C_14  and  C_36
REMARK    7  A    between atoms: C_18  and  S_33
REMARK    8  A    between atoms: C_21  and  C_23
REMARK    9  A    between atoms: C_26  and  O_29
REMARK   10  A    between atoms: O_29  and  C_30
REMARK   11  A    between atoms: C_30  and  C_31
REMARK   12  A    between atoms: C_30  and  C_32
REMARK   13  A    between atoms: S_33  and  C_34
REMARK   14  A    between atoms: C_34  and  C_35
REMARK                            x       y       z     vdW  Elec       q    Type
REMARK                         _______ _______ _______ _____ _____    ______ ____
ROOT
ATOM      1  C   UNL     1       2.618   0.268  -6.152  0.00  0.00    +0.060 C 
ATOM      2  C   UNL     1       3.098   0.168  -7.400  0.00  0.00    +0.018 C 
ATOM      3  N   UNL     1       3.637   1.241  -8.066  0.00  0.00    -0.287 N 
ATOM      4  C   UNL     1       3.437   2.500  -7.516  0.00  0.00    +0.219 A 
ATOM      5  N   UNL     1       3.637   3.683  -8.030  0.00  0.00    -0.187 NA
ATOM      6  C   UNL     1       3.299   4.623  -7.135  0.00  0.00    +0.210 A 
ATOM      7  N   UNL     1       2.880   4.036  -6.034  0.00  0.00    -0.141 NA
ATOM      8  N   UNL     1       2.964   2.663  -6.255  0.00  0.00    -0.220 N 
ATOM      9  C   UNL     1       2.630   1.553  -5.368  0.00  0.00    +0.177 C 
ATOM     10  C   UNL     1       3.045  -1.168  -8.096  0.00  0.00    +0.061 C 
ATOM     11  H   UNL     1       4.138   1.125  -8.888  0.00  0.00    +0.155 HD
ENDROOT
BRANCH   9  12
ATOM     12  C   UNL     1       3.661   1.464  -4.273  0.00  0.00    -0.018 A 
ATOM     13  C   UNL     1       4.991   1.260  -4.592  0.00  0.00    +0.009 A 
ATOM     14  C   UNL     1       5.938   1.177  -3.590  0.00  0.00    +0.046 A 
ATOM     15  C   UNL     1       5.554   1.300  -2.262  0.00  0.00    +0.121 A 
ATOM     16  C   UNL     1       4.219   1.505  -1.945  0.00  0.00    +0.046 A 
ATOM     17  C   UNL     1       3.276   1.592  -2.951  0.00  0.00    +0.009 A 
BRANCH  15  18
ATOM     18  O   UNL     1       6.484   1.218  -1.275  0.00  0.00    -0.489 OA
BRANCH  18  19
ATOM     19  C   UNL     1       7.835   0.980  -1.674  0.00  0.00    +0.167 C 
ATOM     20  C   UNL     1       8.490   2.303  -2.074  0.00  0.00    +0.051 C 
ATOM     21  C   UNL     1       8.609   0.359  -0.509  0.00  0.00    +0.051 C 
ENDBRANCH  18  19
ENDBRANCH  15  18
ENDBRANCH   9  12
BRANCH   1  23
ATOM     22  N   UNL     1       0.840  -1.313  -5.897  0.00  0.00    -0.279 N 
ATOM     23  C   UNL     1       2.069  -0.887  -5.546  0.00  0.00    +0.248 C 
ATOM     24  O   UNL     1       2.708  -1.496  -4.707  0.00  0.00    -0.270 OA
ATOM     25  H   UNL     1       0.366  -0.880  -6.624  0.00  0.00    +0.155 HD
BRANCH  22  31
ATOM     26  C   UNL     1      -0.782  -3.107  -5.808  0.00  0.00    +0.142 A 
ATOM     27  C   UNL     1      -1.361  -4.167  -5.128  0.00  0.00    +0.047 A 
ATOM     28  C   UNL     1      -0.922  -4.497  -3.860  0.00  0.00    +0.004 A 
ATOM     29  C   UNL     1       0.095  -3.773  -3.266  0.00  0.00    +0.002 A 
ATOM     30  C   UNL     1       0.678  -2.715  -3.937  0.00  0.00    +0.027 A 
ATOM     31  C   UNL     1       0.247  -2.381  -5.213  0.00  0.00    +0.076 A 
BRANCH  26  32
ATOM     32  O   UNL     1      -1.213  -2.781  -7.056  0.00  0.00    -0.490 OA
BRANCH  32  34
ATOM     33  C   UNL     1      -2.618  -3.057  -9.003  0.00  0.00    +0.048 C 
ATOM     34  C   UNL     1      -2.272  -3.569  -7.604  0.00  0.00    +0.226 C 
ENDBRANCH  32  34
ENDBRANCH  26  32
ENDBRANCH  22  31
ENDBRANCH   1  23
BRANCH   6  35
ATOM     35  S   UNL     1       3.400   6.363  -7.392  0.00  0.00    -0.085 S 
BRANCH  35  36
ATOM     36  C   UNL     1       4.041   6.521  -9.082  0.00  0.00    +0.074 C 
ATOM     37  C   UNL     1       4.180   8.002  -9.438  0.00  0.00    +0.016 C 
ENDBRANCH  35  36
ENDBRANCH   6  35
TORSDOF 9
