REMARK  Name = ZINC30873241
REMARK  9 active torsions:
REMARK  status: ('A' for Active; 'I' for Inactive)
REMARK    1  A    between atoms: C_1  and  C_2
REMARK    2  A    between atoms: C_5  and  N_19
REMARK    3  A    between atoms: C_7  and  S_8
REMARK    4  A    between atoms: S_8  and  N_11
REMARK    5  A    between atoms: N_11  and  C_12
REMARK    6  A    between atoms: C_20  and  C_22
REMARK    7  A    between atoms: C_23  and  C_34
REMARK    8  A    between atoms: C_25  and  N_29
REMARK    9  A    between atoms: C_26  and  C_27
REMARK                            x       y       z     vdW  Elec       q    Type
REMARK                         _______ _______ _______ _____ _____    ______ ____
ROOT
ATOM      1  C   UNL     1      -1.185  -1.494  -0.379  0.00  0.00    +0.046 C 
ATOM      2  C   UNL     1       0.050  -0.634  -0.304  0.00  0.00    -0.024 A 
ATOM      3  C   UNL     1      -0.071   0.742  -0.230  0.00  0.00    +0.007 A 
ATOM      4  C   UNL     1       1.058   1.533  -0.161  0.00  0.00    +0.024 A 
ATOM      5  C   UNL     1       2.317   0.946  -0.167  0.00  0.00    +0.036 A 
ATOM      6  C   UNL     1       2.435  -0.436  -0.242  0.00  0.00    +0.052 A 
ATOM      7  C   UNL     1       1.301  -1.221  -0.310  0.00  0.00    +0.113 A 
ENDROOT
BRANCH   5   8
ATOM      8  N   UNL     1       3.463   1.744  -0.097  0.00  0.00    -0.281 N 
ATOM      9  C   UNL     1       4.597   1.351  -0.711  0.00  0.00    +0.253 C 
ATOM     10  O   UNL     1       4.598   0.352  -1.405  0.00  0.00    -0.270 OA
ATOM     11  H   UNL     1       3.439   2.693   0.458  0.00  0.00    +0.155 HD
BRANCH   9  12
ATOM     12  C   UNL     1       5.834   2.130  -0.541  0.00  0.00    +0.097 A 
ATOM     13  C   UNL     1       6.265   3.166  -1.310  0.00  0.00    +0.118 A 
ATOM     14  O   UNL     1       7.434   3.612  -0.835  0.00  0.00    -0.442 OA
ATOM     15  C   UNL     1       7.821   2.914   0.242  0.00  0.00    +0.223 A 
ATOM     16  C   UNL     1       6.865   1.954   0.507  0.00  0.00    +0.127 A 
ATOM     17  C   UNL     1       5.541   3.723  -2.509  0.00  0.00    +0.087 C 
BRANCH  15  18
ATOM     18  N   UNL     1       8.985   3.123   0.970  0.00  0.00    -0.293 N 
ATOM     19  C   UNL     1       9.376   2.413   2.071  0.00  0.00    +0.094 A 
ATOM     20  C   UNL     1      10.556   2.908   2.494  0.00  0.00    +0.020 A 
ATOM     21  C   UNL     1      10.905   3.968   1.631  0.00  0.00    +0.020 A 
ATOM     22  C   UNL     1       9.928   4.078   0.709  0.00  0.00    +0.094 A 
ENDBRANCH  15  18
BRANCH  16  23
ATOM     23  C   UNL     1       6.871   0.992   1.567  0.00  0.00    +0.105 C 
ATOM     24  N   UNL     1       6.875   0.228   2.408  0.00  0.00    -0.191 NA
ENDBRANCH  16  23
ENDBRANCH   9  12
ENDBRANCH   5   8
BRANCH   7  25
ATOM     25  S   UNL     1       1.450  -2.974  -0.406  0.00  0.00    +0.073 S 
ATOM     26  O   UNL     1       0.636  -3.392  -1.494  0.00  0.00    -0.150 OA
ATOM     27  O   UNL     1       2.838  -3.269  -0.337  0.00  0.00    -0.150 OA
BRANCH  25  28
ATOM     28  N   UNL     1       0.764  -3.600   0.965  0.00  0.00    -0.215 N 
ATOM     29  H   UNL     1      -0.170  -4.176   0.900  0.00  0.00    +0.174 HD
BRANCH  28  30
ATOM     30  C   UNL     1       1.373  -3.394   2.207  0.00  0.00    +0.066 A 
ATOM     31  C   UNL     1       2.027  -2.198   2.472  0.00  0.00    +0.026 A 
ATOM     32  C   UNL     1       2.623  -1.997   3.701  0.00  0.00    +0.002 A 
ATOM     33  C   UNL     1       2.579  -2.988   4.665  0.00  0.00    +0.002 A 
ATOM     34  C   UNL     1       1.933  -4.182   4.403  0.00  0.00    +0.022 A 
ATOM     35  C   UNL     1       1.330  -4.389   3.176  0.00  0.00    +0.063 A 
ATOM     36 CL   UNL     1       0.520  -5.889   2.848  0.00  0.00    -0.082 Cl
ENDBRANCH  28  30
ENDBRANCH  25  28
ENDBRANCH   7  25
TORSDOF 7
