REMARK  Name = ZINC23257754
REMARK  7 active torsions:
REMARK  status: ('A' for Active; 'I' for Inactive)
REMARK    1  A    between atoms: C_4  and  C_7
REMARK    2  A    between atoms: C_7  and  N_8
REMARK    3  A    between atoms: N_11  and  C_14
REMARK    4  A    between atoms: C_14  and  C_15
REMARK    5  A    between atoms: C_15  and  N_16
REMARK    6  A    between atoms: C_24  and  C_26
REMARK    7  A    between atoms: C_26  and  N_27
REMARK                            x       y       z     vdW  Elec       q    Type
REMARK                         _______ _______ _______ _____ _____    ______ ____
ROOT
ATOM      1  N   UNL     1      -0.704   1.998   1.216  0.00  0.00    -0.330 N 
ATOM      2  C   UNL     1      -0.847   3.355   1.443  0.00  0.00    +0.131 A 
ATOM      3  C   UNL     1      -1.516   3.826   2.607  0.00  0.00    +0.051 A 
ATOM      4  C   UNL     1      -2.119   3.040   3.696  0.00  0.00    -0.025 A 
ATOM      5  C   UNL     1      -2.688   3.729   4.698  0.00  0.00    -0.004 A 
ATOM      6  S   UNL     1      -2.461   5.441   4.270  0.00  0.00    -0.073 S 
ATOM      7  C   UNL     1      -1.597   5.224   2.739  0.00  0.00    +0.114 A 
ATOM      8  N   UNL     1      -1.091   6.032   1.827  0.00  0.00    -0.223 NA
ATOM      9  C   UNL     1      -0.486   5.538   0.764  0.00  0.00    +0.146 A 
ATOM     10  N   UNL     1      -0.368   4.236   0.579  0.00  0.00    -0.216 NA
ATOM     11  C   UNL     1      -3.271   2.825   5.751  0.00  0.00    +0.043 C 
ATOM     12  C   UNL     1      -2.610   1.453   5.492  0.00  0.00    +0.010 C 
ATOM     13  C   UNL     1      -2.275   1.545   3.990  0.00  0.00    +0.037 C 
ATOM     14  H   UNL     1      -1.106   1.274   1.940  0.00  0.00    +0.147 HD
ENDROOT
BRANCH   1  15
ATOM     15  C   UNL     1      -0.019   1.526   0.010  0.00  0.00    +0.084 C 
BRANCH  15  16
ATOM     16  C   UNL     1       0.002  -0.004   0.002  0.00  0.00    -0.060 C 
BRANCH  16  20
ATOM     17  N   UNL     1       0.963  -2.021  -3.584  0.00  0.00    -0.302 NA
ATOM     18  C   UNL     1       1.725  -2.363  -2.375  0.00  0.00    +0.066 C 
ATOM     19  C   UNL     1       0.939  -1.924  -1.138  0.00  0.00    -0.063 C 
ATOM     20  N   UNL     1       0.690  -0.478  -1.207  0.00  0.00    +0.382 N 
ATOM     21  C   UNL     1      -0.073  -0.135  -2.415  0.00  0.00    -0.063 C 
ATOM     22  C   UNL     1       0.713  -0.574  -3.653  0.00  0.00    +0.066 C 
ATOM     23  H   UNL     1       1.662   0.033  -1.263  0.00  0.00    -0.082 HD
BRANCH  17  24
ATOM     24  C   UNL     1       1.650  -2.494  -4.792  0.00  0.00    +0.119 C 
BRANCH  24  28
ATOM     25  C   UNL     1      -0.259  -0.864  -8.249  0.00  0.00    +0.000 A 
ATOM     26  C   UNL     1       0.781  -0.180  -7.646  0.00  0.00    +0.000 A 
ATOM     27  C   UNL     1       1.398  -0.707  -6.527  0.00  0.00    +0.005 A 
ATOM     28  C   UNL     1       0.977  -1.919  -6.012  0.00  0.00    -0.033 A 
ATOM     29  C   UNL     1      -0.059  -2.605  -6.618  0.00  0.00    +0.005 A 
ATOM     30  C   UNL     1      -0.679  -2.075  -7.734  0.00  0.00    +0.000 A 
ENDBRANCH  24  28
ENDBRANCH  17  24
ENDBRANCH  16  20
ENDBRANCH  15  16
ENDBRANCH   1  15
BRANCH   9  31
ATOM     31  C   UNL     1       0.084   6.482  -0.263  0.00  0.00    +0.160 C 
BRANCH  31  32
ATOM     32  N   UNL     1      -0.936   6.777  -1.278  0.00  0.00    -0.291 NA
ATOM     33  C   UNL     1      -1.264   5.575  -2.060  0.00  0.00    +0.113 C 
ATOM     34  C   UNL     1      -2.371   5.912  -3.062  0.00  0.00    +0.175 C 
ATOM     35  O   UNL     1      -1.944   6.997  -3.890  0.00  0.00    -0.377 OA
ATOM     36  C   UNL     1      -1.617   8.183  -3.161  0.00  0.00    +0.175 C 
ATOM     37  C   UNL     1      -0.503   7.870  -2.160  0.00  0.00    +0.113 C 
ENDBRANCH  31  32
ENDBRANCH   9  31
TORSDOF 7
