REMARK  Name = ZINC08985926
REMARK  17 active torsions:
REMARK  status: ('A' for Active; 'I' for Inactive)
REMARK    1  A    between atoms: C_1  and  C_2
REMARK    2  A    between atoms: C_2  and  N_73
REMARK    3  A    between atoms: C_3  and  C_4
REMARK    4  A    between atoms: C_3  and  N_73
REMARK    5  A    between atoms: C_5  and  C_6
REMARK    6  A    between atoms: C_5  and  N_73
REMARK    7  A    between atoms: C_6  and  C_7
REMARK    8  A    between atoms: C_7  and  N_8
REMARK    9  A    between atoms: C_9  and  C_28
REMARK   10  A    between atoms: C_12  and  C_13
REMARK   11  A    between atoms: C_12  and  O_23
REMARK   12  A    between atoms: C_16  and  O_20
REMARK   13  A    between atoms: O_20  and  C_21
REMARK   14  A    between atoms: C_21  and  C_22
REMARK   15  A    between atoms: C_31  and  C_34
REMARK   16  A    between atoms: C_34  and  C_35
REMARK   17  A    between atoms: C_34  and  C_36
REMARK                            x       y       z     vdW  Elec       q    Type
REMARK                         _______ _______ _______ _____ _____    ______ ____
ROOT
ATOM      1  N   UNL     1      -0.085   0.452  -0.403  0.00  0.00    -0.284 N 
ATOM      2  C   UNL     1       0.972   0.049   0.529  0.00  0.00    +0.144 C 
ATOM      3  C   UNL     1       0.429   0.271   1.922  0.00  0.00    +0.071 C 
ATOM      4  C   UNL     1       1.081   0.026   3.115  0.00  0.00    +0.133 C 
ATOM      5  C   UNL     1      -0.871   0.773   1.758  0.00  0.00    +0.249 C 
ATOM      6  O   UNL     1      -1.637   1.077   2.654  0.00  0.00    -0.282 OA
ATOM      7  C   UNL     1      -1.151   0.871   0.300  0.00  0.00    +0.288 C 
ATOM      8  O   UNL     1      -2.190   1.271  -0.184  0.00  0.00    -0.266 OA
ENDROOT
BRANCH   4   9
ATOM      9  C   UNL     1       0.463   0.430   4.387  0.00  0.00    +0.019 A 
ATOM     10  C   UNL     1      -0.002   1.740   4.558  0.00  0.00    +0.015 A 
ATOM     11  C   UNL     1      -0.585   2.111   5.748  0.00  0.00    +0.048 A 
ATOM     12  C   UNL     1      -0.702   1.192   6.785  0.00  0.00    +0.139 A 
ATOM     13  C   UNL     1      -0.237  -0.109   6.623  0.00  0.00    +0.083 A 
ATOM     14  C   UNL     1       0.343  -0.492   5.434  0.00  0.00    +0.035 A 
ATOM     15 CL   UNL     1      -0.387  -1.251   7.921  0.00  0.00    -0.080 Cl
BRANCH  12  16
ATOM     16  O   UNL     1      -1.272   1.566   7.958  0.00  0.00    -0.491 OA
BRANCH  16  17
ATOM     17  C   UNL     1      -1.728   2.916   8.057  0.00  0.00    +0.226 C 
ATOM     18  C   UNL     1      -2.337   3.149   9.442  0.00  0.00    +0.048 C 
ENDBRANCH  16  17
ENDBRANCH  12  16
ENDBRANCH   4   9
BRANCH   2  19
ATOM     19  C   UNL     1       2.200   0.894   0.313  0.00  0.00    -0.022 A 
ATOM     20  C   UNL     1       2.072   2.244   0.041  0.00  0.00    +0.006 A 
ATOM     21  C   UNL     1       3.199   3.020  -0.152  0.00  0.00    +0.004 A 
ATOM     22  C   UNL     1       4.455   2.445  -0.084  0.00  0.00    -0.045 A 
ATOM     23  C   UNL     1       4.583   1.095   0.183  0.00  0.00    +0.004 A 
ATOM     24  C   UNL     1       3.456   0.320   0.381  0.00  0.00    +0.006 A 
BRANCH  22  25
ATOM     25  C   UNL     1       5.683   3.291  -0.301  0.00  0.00    +0.013 C 
ATOM     26  C   UNL     1       5.636   3.910  -1.699  0.00  0.00    +0.012 C 
ATOM     27  C   UNL     1       5.729   4.403   0.749  0.00  0.00    +0.012 C 
ENDBRANCH  22  25
ENDBRANCH   2  19
BRANCH   4  28
ATOM     28  O   UNL     1       2.286  -0.583   3.114  0.00  0.00    -0.506 OA
ATOM     29  H   UNL     1       2.612  -0.680   4.054  0.00  0.00    +0.292 HD
ENDBRANCH   4  28
BRANCH   1  30
ATOM     30  C   UNL     1       0.006   0.406  -1.865  0.00  0.00    +0.107 C 
BRANCH  30  31
ATOM     31  C   UNL     1      -0.484  -0.954  -2.364  0.00  0.00    +0.000 C 
BRANCH  31  32
ATOM     32  C   UNL     1      -0.389  -1.002  -3.890  0.00  0.00    -0.077 C 
BRANCH  32  33
ATOM     33  N   UNL     1      -0.845  -2.329  -4.355  0.00  0.00    +0.379 N 
ATOM     34  H   UNL     1      -0.338  -3.056  -3.837  0.00  0.00    -0.082 HD
BRANCH  33  36
ATOM     35  C   UNL     1      -3.086  -1.420  -4.867  0.00  0.00    -0.017 C 
ATOM     36  C   UNL     1      -2.294  -2.482  -4.103  0.00  0.00    -0.082 C 
ENDBRANCH  33  36
BRANCH  33  37
ATOM     37  C   UNL     1      -0.565  -2.483  -5.798  0.00  0.00    -0.082 C 
ATOM     38  C   UNL     1      -0.743  -3.954  -6.180  0.00  0.00    -0.017 C 
ENDBRANCH  33  37
ENDBRANCH  32  33
ENDBRANCH  31  32
ENDBRANCH  30  31
ENDBRANCH   1  30
TORSDOF 12
