REMARK  Name = ZINC64540128
REMARK  7 active torsions:
REMARK  status: ('A' for Active; 'I' for Inactive)
REMARK    1  A    between atoms: C_1  and  C_2
REMARK    2  A    between atoms: C_8  and  C_11
REMARK    3  A    between atoms: C_11  and  C_12
REMARK    4  A    between atoms: C_12  and  N_13
REMARK    5  A    between atoms: C_14  and  C_16
REMARK    6  A    between atoms: C_21  and  N_22
REMARK    7  A    between atoms: C_23  and  C_25
REMARK                            x       y       z     vdW  Elec       q    Type
REMARK                         _______ _______ _______ _____ _____    ______ ____
ROOT
ATOM      1  C   UNL     1      -2.534  -2.348   7.759  0.00  0.00    +0.058 A 
ATOM      2  C   UNL     1      -1.328  -2.209   8.449  0.00  0.00    +0.015 A 
ATOM      3  C   UNL     1      -1.335  -1.974   9.806  0.00  0.00    +0.001 A 
ATOM      4  C   UNL     1      -2.535  -1.875  10.493  0.00  0.00    +0.002 A 
ATOM      5  C   UNL     1      -3.735  -2.011   9.825  0.00  0.00    +0.024 A 
ATOM      6  C   UNL     1      -3.747  -2.242   8.456  0.00  0.00    +0.046 A 
ENDROOT
BRANCH   1   8
ATOM      7  N   UNL     1      -1.371  -2.601   5.622  0.00  0.00    -0.311 N 
ATOM      8  C   UNL     1      -2.533  -2.599   6.305  0.00  0.00    +0.246 C 
ATOM      9  O   UNL     1      -3.581  -2.804   5.723  0.00  0.00    -0.270 OA
ATOM     10  H   UNL     1      -0.536  -2.437   6.087  0.00  0.00    +0.149 HD
BRANCH   7  11
ATOM     11  C   UNL     1      -1.370  -2.850   4.179  0.00  0.00    +0.109 C 
BRANCH  11  12
ATOM     12  C   UNL     1       0.066  -2.797   3.653  0.00  0.00    +0.052 C 
BRANCH  12  20
ATOM     13  C   UNL     1       0.011   1.516   0.035  0.00  0.00    +0.044 C 
ATOM     14  C   UNL     1       0.029   0.009   0.023  0.00  0.00    -0.050 A 
ATOM     15  C   UNL     1       0.034  -0.663  -1.207  0.00  0.00    +0.005 A 
ATOM     16  C   UNL     1       0.049  -2.010  -1.302  0.00  0.00    +0.026 A 
ATOM     17  C   UNL     1       0.060  -2.813  -0.129  0.00  0.00    +0.043 A 
ATOM     18  N   UNL     1       0.074  -4.113   0.039  0.00  0.00    -0.380 N 
ATOM     19  C   UNL     1       0.080  -4.399   1.478  0.00  0.00    +0.144 C 
ATOM     20  C   UNL     1       0.067  -3.054   2.168  0.00  0.00    -0.040 C 
ATOM     21  C   UNL     1       0.055  -2.127   1.183  0.00  0.00    -0.001 A 
ATOM     22  C   UNL     1       0.044  -0.659   1.198  0.00  0.00    +0.013 A 
ATOM     23  H   UNL     1       0.080  -4.775  -0.670  0.00  0.00    +0.160 HD
ENDBRANCH  12  20
ENDBRANCH  11  12
ENDBRANCH   7  11
ENDBRANCH   1   8
BRANCH   6  24
ATOM     24  N   UNL     1      -4.957  -2.373   7.778  0.00  0.00    -0.283 N 
ATOM     25  C   UNL     1      -6.026  -1.645   8.160  0.00  0.00    +0.240 C 
ATOM     26  O   UNL     1      -5.909  -0.808   9.030  0.00  0.00    -0.273 OA
ATOM     27  H   UNL     1      -5.031  -2.988   7.032  0.00  0.00    +0.155 HD
BRANCH  25  28
ATOM     28  C   UNL     1      -7.364  -1.873   7.507  0.00  0.00    +0.182 C 
ATOM     29  C   UNL     1      -7.982  -3.120   8.085  0.00  0.00    -0.006 A 
ATOM     30  C   UNL     1      -7.342  -4.308   8.437  0.00  0.00    +0.007 A 
ATOM     31  C   UNL     1      -8.055  -5.373   8.942  0.00  0.00    +0.000 A 
ATOM     32  C   UNL     1      -9.425  -5.292   9.114  0.00  0.00    +0.001 A 
ATOM     33  C   UNL     1     -10.080  -4.121   8.779  0.00  0.00    +0.016 A 
ATOM     34  C   UNL     1      -9.361  -3.054   8.280  0.00  0.00    +0.028 A 
ATOM     35  S   UNL     1      -9.831  -1.413   7.784  0.00  0.00    -0.043 S 
ATOM     36  N   UNL     1      -8.206  -0.670   7.710  0.00  0.00    -0.243 NA
ATOM     37  H   UNL     1      -7.977  -0.212   8.580  0.00  0.00    +0.137 HD
ENDBRANCH  25  28
ENDBRANCH   6  24
TORSDOF 6
