REMARK  Name = ZINC21234064
REMARK  12 active torsions:
REMARK  status: ('A' for Active; 'I' for Inactive)
REMARK    1  A    between atoms: C_1  and  C_2
REMARK    2  A    between atoms: C_2  and  O_3
REMARK    3  A    between atoms: O_3  and  C_4
REMARK    4  A    between atoms: C_6  and  C_14
REMARK    5  A    between atoms: C_9  and  O_10
REMARK    6  A    between atoms: O_10  and  C_11
REMARK    7  A    between atoms: C_11  and  C_13
REMARK    8  A    between atoms: C_19  and  C_24
REMARK    9  A    between atoms: C_27  and  O_32
REMARK   10  A    between atoms: C_28  and  O_30
REMARK   11  A    between atoms: O_30  and  C_31
REMARK   12  A    between atoms: O_32  and  C_33
REMARK                            x       y       z     vdW  Elec       q    Type
REMARK                         _______ _______ _______ _____ _____    ______ ____
ROOT
ATOM      1  C   UNL     1       1.192   2.256   0.010  0.00  0.00    +0.136 C 
ATOM      2  C   UNL     1      -0.055   1.404   0.041  0.00  0.00    +0.036 C 
ATOM      3  C   UNL     1      -0.091   0.061   0.034  0.00  0.00    +0.017 C 
ATOM      4  C   UNL     1      -1.424  -0.670   0.030  0.00  0.00    +0.059 C 
ATOM      5  C   UNL     1      -2.455   0.127   0.829  0.00  0.00    +0.032 C 
ATOM      6  C   UNL     1      -2.604   1.498   0.160  0.00  0.00    +0.088 C 
ATOM      7  C   UNL     1      -1.256   2.149   0.092  0.00  0.00    +0.163 C 
ATOM      8  O   UNL     1      -1.192   3.363   0.080  0.00  0.00    -0.292 OA
ATOM      9  N   UNL     1       0.999  -0.747   0.018  0.00  0.00    -0.316 N 
ATOM     10  C   UNL     1       2.091  -0.586  -0.827  0.00  0.00    +0.052 A 
ATOM     11  C   UNL     1       2.421  -1.518  -1.795  0.00  0.00    +0.025 A 
ATOM     12  C   UNL     1       3.548  -1.318  -2.574  0.00  0.00    +0.002 A 
ATOM     13  C   UNL     1       4.338  -0.199  -2.384  0.00  0.00    +0.002 A 
ATOM     14  C   UNL     1       3.999   0.743  -1.428  0.00  0.00    +0.025 A 
ATOM     15  C   UNL     1       2.860   0.556  -0.661  0.00  0.00    +0.049 A 
ATOM     16  N   UNL     1       2.421   1.527   0.237  0.00  0.00    -0.331 N 
ATOM     17  H   UNL     1       1.060  -1.602   0.707  0.00  0.00    +0.152 HD
ATOM     18  H   UNL     1       3.026   1.736   1.132  0.00  0.00    +0.147 HD
ENDROOT
BRANCH   1  21
ATOM     19  C   UNL     1       1.295   4.929  -2.659  0.00  0.00    +0.163 A 
ATOM     20  C   UNL     1       1.217   4.308  -1.422  0.00  0.00    +0.055 A 
ATOM     21  C   UNL     1       1.277   2.930  -1.336  0.00  0.00    -0.019 A 
ATOM     22  C   UNL     1       1.420   2.168  -2.481  0.00  0.00    +0.009 A 
ATOM     23  C   UNL     1       1.493   2.780  -3.718  0.00  0.00    +0.050 A 
ATOM     24  C   UNL     1       1.433   4.161  -3.812  0.00  0.00    +0.173 A 
BRANCH  19  25
ATOM     25  O   UNL     1       1.237   6.284  -2.745  0.00  0.00    -0.489 OA
BRANCH  25  27
ATOM     26  C   UNL     1       1.047   8.508  -1.817  0.00  0.00    +0.048 C 
ATOM     27  C   UNL     1       1.094   7.007  -1.521  0.00  0.00    +0.226 C 
ENDBRANCH  25  27
ENDBRANCH  19  25
BRANCH  24  28
ATOM     28  O   UNL     1       1.511   4.766  -5.027  0.00  0.00    -0.422 OA
BRANCH  28  29
ATOM     29  C   UNL     1       2.724   5.178  -5.427  0.00  0.00    +0.309 C 
ATOM     30  O   UNL     1       3.699   4.922  -4.760  0.00  0.00    -0.251 OA
ATOM     31  C   UNL     1       2.871   5.959  -6.707  0.00  0.00    +0.136 C 
ENDBRANCH  28  29
ENDBRANCH  24  28
ENDBRANCH   1  21
BRANCH   5  32
ATOM     32  C   UNL     1      -3.777  -0.595   0.819  0.00  0.00    -0.040 A 
ATOM     33  C   UNL     1      -4.415  -0.850  -0.381  0.00  0.00    +0.008 A 
ATOM     34  C   UNL     1      -5.629  -1.512  -0.396  0.00  0.00    +0.049 A 
ATOM     35  C   UNL     1      -6.208  -1.922   0.794  0.00  0.00    +0.161 A 
ATOM     36  C   UNL     1      -5.567  -1.665   2.002  0.00  0.00    +0.162 A 
ATOM     37  C   UNL     1      -4.348  -1.006   2.009  0.00  0.00    +0.053 A 
BRANCH  36  38
ATOM     38  O   UNL     1      -6.132  -2.065   3.172  0.00  0.00    -0.491 OA
ATOM     39  C   UNL     1      -5.416  -1.768   4.373  0.00  0.00    +0.277 C 
ENDBRANCH  36  38
BRANCH  35  40
ATOM     40  O   UNL     1      -7.402  -2.574   0.782  0.00  0.00    -0.491 OA
ATOM     41  C   UNL     1      -8.002  -2.804  -0.494  0.00  0.00    +0.277 C 
ENDBRANCH  35  40
ENDBRANCH   5  32
TORSDOF 8
