REMARK  Name = ZINC37538953
REMARK  12 active torsions:
REMARK  status: ('A' for Active; 'I' for Inactive)
REMARK    1  A    between atoms: C_1  and  C_2
REMARK    2  A    between atoms: C_6  and  C_32
REMARK    3  A    between atoms: C_9  and  C_10
REMARK    4  A    between atoms: C_9  and  C_11
REMARK    5  A    between atoms: C_11  and  C_12
REMARK    6  A    between atoms: C_12  and  C_13
REMARK    7  A    between atoms: C_15  and  O_20
REMARK    8  A    between atoms: C_22  and  O_31
REMARK    9  A    between atoms: C_24  and  O_30
REMARK   10  A    between atoms: C_26  and  C_27
REMARK   11  A    between atoms: C_26  and  O_29
REMARK   12  A    between atoms: C_27  and  O_28
REMARK                            x       y       z     vdW  Elec       q    Type
REMARK                         _______ _______ _______ _____ _____    ______ ____
ROOT
ATOM      1  C   UNL     1       0.793   1.368  -0.322  0.00  0.00    +0.008 C 
ATOM      2  C   UNL     1       0.387  -0.105  -0.199  0.00  0.00    -0.008 C 
ATOM      3  C   UNL     1      -1.133  -0.209  -0.167  0.00  0.00    +0.004 C 
ATOM      4  C   UNL     1      -1.549  -1.675  -0.017  0.00  0.00    +0.010 C 
ATOM      5  C   UNL     1      -1.003  -2.243   1.289  0.00  0.00    +0.005 C 
ATOM      6  C   UNL     1       0.517  -2.114   1.325  0.00  0.00    +0.007 C 
ATOM      7  C   UNL     1       1.015  -0.696   1.061  0.00  0.00    -0.026 C 
ATOM      8  C   UNL     1       0.787   0.240   2.251  0.00  0.00    +0.012 C 
ATOM      9  C   UNL     1       1.133  -3.051   0.279  0.00  0.00    +0.038 C 
ATOM     10  C   UNL     1       0.733  -4.504   0.524  0.00  0.00    +0.146 C 
ATOM     11  C   UNL     1      -0.784  -4.648   0.482  0.00  0.00    +0.177 C 
ATOM     12  C   UNL     1      -1.432  -3.702   1.478  0.00  0.00    +0.123 C 
ATOM     13  C   UNL     1      -1.656  -1.492   2.465  0.00  0.00    +0.014 C 
ENDROOT
BRANCH  12  14
ATOM     14  O   UNL     1      -1.065  -4.102   2.811  0.00  0.00    -0.383 OA
ATOM     15  H   UNL     1      -1.298  -5.016   3.026  0.00  0.00    +0.210 HD
ENDBRANCH  12  14
BRANCH  11  16
ATOM     16  O   UNL     1      -1.271  -4.418  -0.839  0.00  0.00    -0.386 OA
ATOM     17  H   UNL     1      -0.917  -5.029  -1.500  0.00  0.00    +0.210 HD
ENDBRANCH  11  16
BRANCH  10  18
ATOM     18  O   UNL     1       1.240  -4.942   1.784  0.00  0.00    -0.389 OA
ATOM     19  H   UNL     1       1.020  -5.859   2.000  0.00  0.00    +0.210 HD
ENDBRANCH  10  18
BRANCH   7  20
ATOM     20  C   UNL     1       2.545  -0.716   0.840  0.00  0.00    +0.012 C 
BRANCH  20  21
ATOM     21  C   UNL     1       3.225  -1.365   2.047  0.00  0.00    +0.043 C 
BRANCH  21  22
ATOM     22  C   UNL     1       4.721  -1.291   1.880  0.00  0.00    +0.039 C 
ATOM     23  C   UNL     1       5.510  -0.347   2.389  0.00  0.00    +0.057 C 
ATOM     24  C   UNL     1       6.921  -0.681   1.966  0.00  0.00    +0.334 C 
ATOM     25  O   UNL     1       6.836  -1.880   1.188  0.00  0.00    -0.428 OA
ATOM     26  C   UNL     1       5.543  -2.251   1.137  0.00  0.00    +0.337 C 
ATOM     27  O   UNL     1       5.120  -3.232   0.558  0.00  0.00    -0.245 OA
BRANCH  24  28
ATOM     28  O   UNL     1       7.461   0.380   1.175  0.00  0.00    -0.354 OA
ATOM     29  H   UNL     1       8.366   0.224   0.873  0.00  0.00    +0.214 HD
ENDBRANCH  24  28
ENDBRANCH  21  22
ENDBRANCH  20  21
ENDBRANCH   7  20
BRANCH  12  30
ATOM     30  C   UNL     1      -2.958  -3.813   1.369  0.00  0.00    +0.193 C 
BRANCH  30  31
ATOM     31  O   UNL     1      -3.350  -5.175   1.547  0.00  0.00    -0.392 OA
ATOM     32  H   UNL     1      -4.305  -5.320   1.490  0.00  0.00    +0.210 HD
ENDBRANCH  30  31
ENDBRANCH  12  30
TORSDOF 9
