REMARK  Name = ZINC30828883
REMARK  6 active torsions:
REMARK  status: ('A' for Active; 'I' for Inactive)
REMARK    1  A    between atoms: C_1  and  N_2
REMARK    2  A    between atoms: N_5  and  C_8
REMARK    3  A    between atoms: C_9  and  N_15
REMARK    4  A    between atoms: C_16  and  C_18
REMARK    5  A    between atoms: C_19  and  C_20
REMARK    6  A    between atoms: C_23  and  C_25
REMARK                            x       y       z     vdW  Elec       q    Type
REMARK                         _______ _______ _______ _____ _____    ______ ____
ROOT
ATOM      1  N   UNL     1       3.621  -0.665  -0.037  0.00  0.00    -0.280 N 
ATOM      2  C   UNL     1       3.746  -1.832   0.625  0.00  0.00    +0.241 C 
ATOM      3  O   UNL     1       2.775  -2.336   1.160  0.00  0.00    -0.270 OA
ATOM      4  H   UNL     1       4.480  -0.247  -0.582  0.00  0.00    +0.155 HD
ENDROOT
BRANCH   1   6
ATOM      5  C   UNL     1       2.373   1.411  -0.028  0.00  0.00    +0.070 A 
ATOM      6  C   UNL     1       2.397   0.016  -0.030  0.00  0.00    +0.056 A 
ATOM      7  C   UNL     1       1.206  -0.694  -0.026  0.00  0.00    +0.025 A 
ATOM      8  C   UNL     1      -0.001  -0.021  -0.020  0.00  0.00    +0.003 A 
ATOM      9  C   UNL     1      -0.026   1.362  -0.018  0.00  0.00    +0.022 A 
ATOM     10  C   UNL     1       1.157   2.079  -0.022  0.00  0.00    +0.064 A 
ATOM     11 CL   UNL     1       1.120   3.815  -0.020  0.00  0.00    -0.082 Cl
BRANCH   5  16
ATOM     12  C   UNL     1       6.419   5.254  -0.000  0.00  0.00    -0.096 C 
ATOM     13  N   UNL     1       5.162   4.495   0.004  0.00  0.00    +0.380 N 
ATOM     14  C   UNL     1       5.019   3.706  -1.227  0.00  0.00    -0.060 C 
ATOM     15  C   UNL     1       3.663   2.995  -1.220  0.00  0.00    +0.086 C 
ATOM     16  N   UNL     1       3.572   2.134  -0.032  0.00  0.00    -0.331 N 
ATOM     17  C   UNL     1       3.715   2.923   1.199  0.00  0.00    +0.086 C 
ATOM     18  C   UNL     1       5.070   3.634   1.192  0.00  0.00    -0.060 C 
ATOM     19  H   UNL     1       4.333   5.217   0.043  0.00  0.00    -0.082 HD
ENDBRANCH   5  16
ENDBRANCH   1   6
BRANCH   2  20
ATOM     20  C   UNL     1       5.005  -2.473   0.698  0.00  0.00    +0.071 C 
ATOM     21  C   UNL     1       5.131  -3.649   1.364  0.00  0.00    +0.051 C 
BRANCH  21  22
ATOM     22  C   UNL     1       6.390  -4.289   1.437  0.00  0.00    +0.129 A 
ATOM     23  C   UNL     1       6.658  -5.483   2.080  0.00  0.00    +0.050 A 
ATOM     24  C   UNL     1       8.020  -5.740   1.901  0.00  0.00    +0.050 A 
ATOM     25  C   UNL     1       8.531  -4.708   1.165  0.00  0.00    +0.136 A 
ATOM     26  O   UNL     1       7.539  -3.844   0.886  0.00  0.00    -0.455 OA
BRANCH  25  27
ATOM     27  C   UNL     1       9.938  -4.569   0.740  0.00  0.00    +0.020 A 
ATOM     28  C   UNL     1      10.877  -5.540   1.095  0.00  0.00    +0.031 A 
ATOM     29  C   UNL     1      12.190  -5.406   0.691  0.00  0.00    +0.043 A 
ATOM     30  C   UNL     1      12.579  -4.306  -0.057  0.00  0.00    +0.040 A 
ATOM     31  C   UNL     1      11.654  -3.337  -0.407  0.00  0.00    +0.043 A 
ATOM     32  C   UNL     1      10.336  -3.462  -0.013  0.00  0.00    +0.031 A 
ATOM     33 CL   UNL     1      12.152  -1.963  -1.343  0.00  0.00    -0.083 Cl
ATOM     34 CL   UNL     1      13.358  -6.614   1.125  0.00  0.00    -0.083 Cl
ENDBRANCH  25  27
ENDBRANCH  21  22
ENDBRANCH   2  20
TORSDOF 5
