REMARK  Name = ZINC36037284
REMARK  10 active torsions:
REMARK  status: ('A' for Active; 'I' for Inactive)
REMARK    1  A    between atoms: C_1  and  O_2
REMARK    2  A    between atoms: O_2  and  C_3
REMARK    3  A    between atoms: C_3  and  C_5
REMARK    4  A    between atoms: C_7  and  C_37
REMARK    5  A    between atoms: C_14  and  C_30
REMARK    6  A    between atoms: C_16  and  C_26
REMARK    7  A    between atoms: C_17  and  N_25
REMARK    8  A    between atoms: N_18  and  C_19
REMARK    9  A    between atoms: C_26  and  O_28
REMARK   10  A    between atoms: O_28  and  C_29
REMARK                            x       y       z     vdW  Elec       q    Type
REMARK                         _______ _______ _______ _____ _____    ______ ____
ROOT
ATOM      1  C   UNL     1      -0.229  -1.288  -1.765  0.00  0.00    +0.176 C 
ATOM      2  C   UNL     1       0.378  -1.643  -3.127  0.00  0.00    +0.046 C 
ATOM      3  C   UNL     1       0.878  -3.088  -3.072  0.00  0.00    +0.061 C 
ATOM      4  C   UNL     1      -0.266  -4.008  -2.725  0.00  0.00    +0.025 C 
ATOM      5  C   UNL     1      -1.283  -3.588  -1.944  0.00  0.00    +0.025 C 
ATOM      6  C   UNL     1      -1.316  -2.275  -1.438  0.00  0.00    +0.176 C 
ATOM      7  O   UNL     1      -2.239  -1.931  -0.727  0.00  0.00    -0.291 OA
ATOM      8  C   UNL     1      -2.416  -4.515  -1.582  0.00  0.00    +0.094 C 
ATOM      9  C   UNL     1      -2.474  -5.689  -2.514  0.00  0.00    +0.084 C 
ATOM     10  C   UNL     1      -1.405  -6.027  -3.286  0.00  0.00    +0.103 C 
ATOM     11  N   UNL     1      -0.250  -5.285  -3.226  0.00  0.00    -0.261 N 
ENDROOT
BRANCH   8  12
ATOM     12  C   UNL     1      -2.217  -5.012  -0.173  0.00  0.00    -0.035 A 
ATOM     13  C   UNL     1      -1.076  -5.720   0.154  0.00  0.00    +0.007 A 
ATOM     14  C   UNL     1      -0.892  -6.176   1.446  0.00  0.00    +0.038 A 
ATOM     15  C   UNL     1      -1.851  -5.924   2.412  0.00  0.00    +0.123 A 
ATOM     16  C   UNL     1      -2.994  -5.215   2.083  0.00  0.00    +0.038 A 
ATOM     17  C   UNL     1      -3.173  -4.755   0.791  0.00  0.00    +0.007 A 
ATOM     18  F   UNL     1      -1.673  -6.369   3.675  0.00  0.00    -0.205 F 
ENDBRANCH   8  12
BRANCH  11  19
ATOM     19  C   UNL     1       0.954  -5.836  -3.680  0.00  0.00    +0.040 A 
ATOM     20  C   UNL     1       1.775  -6.533  -2.804  0.00  0.00    +0.024 A 
ATOM     21  C   UNL     1       2.962  -7.076  -3.256  0.00  0.00    +0.002 A 
ATOM     22  C   UNL     1       3.333  -6.926  -4.579  0.00  0.00    +0.000 A 
ATOM     23  C   UNL     1       2.517  -6.233  -5.455  0.00  0.00    +0.002 A 
ATOM     24  C   UNL     1       1.326  -5.692  -5.011  0.00  0.00    +0.024 A 
ENDBRANCH  11  19
BRANCH   2  25
ATOM     25  C   UNL     1       1.527  -0.716  -3.427  0.00  0.00    -0.043 A 
ATOM     26  C   UNL     1       2.620  -0.674  -2.583  0.00  0.00    +0.004 A 
ATOM     27  C   UNL     1       3.674   0.177  -2.858  0.00  0.00    +0.000 A 
ATOM     28  C   UNL     1       3.635   0.986  -3.978  0.00  0.00    +0.000 A 
ATOM     29  C   UNL     1       2.541   0.944  -4.823  0.00  0.00    +0.000 A 
ATOM     30  C   UNL     1       1.489   0.090  -4.550  0.00  0.00    +0.004 A 
ENDBRANCH   2  25
BRANCH  10  31
ATOM     31  N   UNL     1      -1.480  -7.108  -4.125  0.00  0.00    -0.346 N 
ATOM     32  H   UNL     1      -2.314  -7.315  -4.576  0.00  0.00    +0.143 HD
ATOM     33  H   UNL     1      -0.700  -7.667  -4.267  0.00  0.00    +0.143 HD
ENDBRANCH  10  31
BRANCH   1  34
ATOM     34  C   UNL     1      -0.809   0.102  -1.819  0.00  0.00    +0.318 C 
ATOM     35  O   UNL     1      -0.743   0.746  -2.839  0.00  0.00    -0.250 OA
BRANCH  34  37
ATOM     36  C   UNL     1      -1.929   1.947  -0.855  0.00  0.00    +0.280 C 
ATOM     37  O   UNL     1      -1.401   0.625  -0.733  0.00  0.00    -0.467 OA
ENDBRANCH  34  37
ENDBRANCH   1  34
BRANCH   9  38
ATOM     38  C   UNL     1      -3.648  -6.452  -2.590  0.00  0.00    +0.339 C 
ATOM     39  O   UNL     1      -3.667  -7.476  -3.249  0.00  0.00    -0.245 OA
BRANCH  38  40
ATOM     40  O   UNL     1      -4.758  -6.051  -1.933  0.00  0.00    -0.465 OA
ATOM     41  C   UNL     1      -5.919  -6.876  -2.056  0.00  0.00    +0.280 C 
ENDBRANCH  38  40
ENDBRANCH   9  38
TORSDOF 8
