REMARK  Name = ZINC12358938
REMARK  19 active torsions:
REMARK  status: ('A' for Active; 'I' for Inactive)
REMARK    1  A    between atoms: C_1  and  C_2
REMARK    2  A    between atoms: C_4  and  C_32
REMARK    3  A    between atoms: C_4  and  O_33
REMARK    4  A    between atoms: C_5  and  C_14
REMARK    5  A    between atoms: C_5  and  O_15
REMARK    6  A    between atoms: C_6  and  C_12
REMARK    7  A    between atoms: C_6  and  O_13
REMARK    8  A    between atoms: C_7  and  C_9
REMARK    9  A    between atoms: C_7  and  O_11
REMARK   10  A    between atoms: C_9  and  O_10
REMARK   11  A    between atoms: O_15  and  C_16
REMARK   12  A    between atoms: C_18  and  C_30
REMARK   13  A    between atoms: C_18  and  O_31
REMARK   14  A    between atoms: C_19  and  C_28
REMARK   15  A    between atoms: C_19  and  O_29
REMARK   16  A    between atoms: C_20  and  C_26
REMARK   17  A    between atoms: C_20  and  O_27
REMARK   18  A    between atoms: C_21  and  C_24
REMARK   19  A    between atoms: C_24  and  O_25
REMARK                            x       y       z     vdW  Elec       q    Type
REMARK                         _______ _______ _______ _____ _____    ______ ____
ROOT
ATOM      1  C   UNL     1      -0.399   3.086  -0.640  0.00  0.00    +0.041 C 
ATOM      2  C   UNL     1      -0.182   2.647   0.808  0.00  0.00    +0.153 C 
ATOM      3  C   UNL     1      -0.624   1.209   1.019  0.00  0.00    +0.121 C 
ATOM      4  C   UNL     1      -2.101   1.055   1.350  0.00  0.00    +0.134 C 
ATOM      5  C   UNL     1      -2.590   2.099   2.346  0.00  0.00    +0.150 C 
ATOM      6  C   UNL     1      -2.155   3.509   1.956  0.00  0.00    +0.223 C 
ATOM      7  O   UNL     1      -0.759   3.558   1.718  0.00  0.00    -0.339 OA
ATOM      8  C   UNL     1      -4.123   2.051   2.413  0.00  0.00    +0.050 C 
ATOM      9  C   UNL     1      -2.953   1.080   0.079  0.00  0.00    +0.048 C 
ATOM     10  C   UNL     1      -0.316   0.403  -0.255  0.00  0.00    +0.047 C 
ENDROOT
BRANCH   6  11
ATOM     11  O   UNL     1      -2.886   3.961   0.816  0.00  0.00    -0.361 OA
ATOM     12  H   UNL     1      -2.687   4.871   0.556  0.00  0.00    +0.213 HD
ENDBRANCH   6  11
BRANCH   5  13
ATOM     13  O   UNL     1      -2.071   1.792   3.648  0.00  0.00    -0.380 OA
ATOM     14  H   UNL     1      -2.374   2.391   4.343  0.00  0.00    +0.211 HD
ENDBRANCH   5  13
BRANCH   3  15
ATOM     15  O   UNL     1       0.151   0.641   2.091  0.00  0.00    -0.383 OA
ATOM     16  H   UNL     1       1.106   0.666   1.941  0.00  0.00    +0.210 HD
ENDBRANCH   3  15
BRANCH   6  17
ATOM     17  C   UNL     1      -2.480   4.454   3.130  0.00  0.00    +0.223 C 
BRANCH  17  18
ATOM     18  O   UNL     1      -2.088   5.786   2.793  0.00  0.00    -0.390 OA
ATOM     19  H   UNL     1      -2.264   6.435   3.487  0.00  0.00    +0.210 HD
ENDBRANCH  17  18
ENDBRANCH   6  17
BRANCH   4  20
ATOM     20  O   UNL     1      -2.281  -0.245   1.957  0.00  0.00    -0.336 OA
BRANCH  20  21
ATOM     21  C   UNL     1      -1.626  -1.307   1.261  0.00  0.00    +0.286 C 
ATOM     22  C   UNL     1      -1.830  -2.619   2.023  0.00  0.00    +0.145 C 
ATOM     23  C   UNL     1      -3.326  -2.947   2.068  0.00  0.00    +0.127 C 
ATOM     24  C   UNL     1      -3.866  -3.016   0.636  0.00  0.00    +0.123 C 
ATOM     25  C   UNL     1      -3.583  -1.688  -0.072  0.00  0.00    +0.181 C 
ATOM     26  O   UNL     1      -2.177  -1.429  -0.052  0.00  0.00    -0.340 OA
ATOM     27  C   UNL     1      -5.375  -3.265   0.670  0.00  0.00    +0.047 C 
ATOM     28  C   UNL     1      -4.066  -1.854   2.842  0.00  0.00    +0.047 C 
ATOM     29  C   UNL     1      -1.294  -2.472   3.448  0.00  0.00    +0.050 C 
BRANCH  24  30
ATOM     30  O   UNL     1      -3.221  -4.080  -0.067  0.00  0.00    -0.383 OA
ATOM     31  H   UNL     1      -3.515  -4.182  -0.982  0.00  0.00    +0.210 HD
ENDBRANCH  24  30
BRANCH  23  32
ATOM     32  O   UNL     1      -3.520  -4.207   2.713  0.00  0.00    -0.383 OA
ATOM     33  H   UNL     1      -3.194  -4.237   3.623  0.00  0.00    +0.210 HD
ENDBRANCH  23  32
BRANCH  22  34
ATOM     34  O   UNL     1      -1.131  -3.672   1.356  0.00  0.00    -0.381 OA
ATOM     35  H   UNL     1      -0.177  -3.528   1.287  0.00  0.00    +0.210 HD
ENDBRANCH  22  34
BRANCH  25  36
ATOM     36  C   UNL     1      -4.066  -1.770  -1.522  0.00  0.00    +0.190 C 
BRANCH  36  37
ATOM     37  O   UNL     1      -3.909  -0.495  -2.149  0.00  0.00    -0.392 OA
ATOM     38  H   UNL     1      -4.195  -0.473  -3.072  0.00  0.00    +0.210 HD
ENDBRANCH  36  37
ENDBRANCH  25  36
ENDBRANCH  20  21
ENDBRANCH   4  20
TORSDOF 12
