REMARK  Name = ZINC38732085
REMARK  4 active torsions:
REMARK  status: ('A' for Active; 'I' for Inactive)
REMARK    1  A    between atoms: C_13  and  C_15
REMARK    2  A    between atoms: C_21  and  C_23
REMARK    3  A    between atoms: N_25  and  N_26
REMARK    4  A    between atoms: N_26  and  C_27
REMARK                            x       y       z     vdW  Elec       q    Type
REMARK                         _______ _______ _______ _____ _____    ______ ____
ROOT
ATOM      1  C   UNL     1       0.176  -6.648   1.147  0.00  0.00    +0.087 C 
ATOM      2  C   UNL     1      -0.685  -6.214   2.335  0.00  0.00    +0.013 C 
ATOM      3  C   UNL     1       0.074  -6.476   3.637  0.00  0.00    +0.001 C 
ATOM      4  C   UNL     1       0.388  -7.970   3.753  0.00  0.00    +0.001 C 
ATOM      5  C   UNL     1       1.249  -8.403   2.565  0.00  0.00    +0.013 C 
ATOM      6  C   UNL     1       0.489  -8.141   1.262  0.00  0.00    +0.088 C 
ENDROOT
BRANCH   1  19
ATOM      7  C   UNL     1       2.550   1.134  -1.145  0.00  0.00    +0.005 A 
ATOM      8  C   UNL     1       1.321   1.731  -1.394  0.00  0.00    +0.018 A 
ATOM      9  C   UNL     1       0.181   0.954  -1.397  0.00  0.00    +0.084 A 
ATOM     10  N   UNL     1       0.245  -0.344  -1.166  0.00  0.00    -0.350 N 
ATOM     11  C   UNL     1       1.397  -0.949  -0.924  0.00  0.00    +0.099 A 
ATOM     12  C   UNL     1       2.587  -0.228  -0.906  0.00  0.00    +0.042 A 
ATOM     13  N   UNL     1       1.419  -2.319  -0.685  0.00  0.00    -0.314 N 
ATOM     14  C   UNL     1       2.695  -3.033  -0.544  0.00  0.00    +0.125 C 
ATOM     15  C   UNL     1       2.695  -3.777   0.798  0.00  0.00    +0.126 C 
ATOM     16  N   UNL     1       1.441  -4.535   0.914  0.00  0.00    -0.298 N 
ATOM     17  C   UNL     1       0.165  -3.821   0.772  0.00  0.00    +0.126 C 
ATOM     18  C   UNL     1       0.165  -3.076  -0.563  0.00  0.00    +0.125 C 
ATOM     19  C   UNL     1       1.462  -5.863   1.145  0.00  0.00    +0.219 C 
ATOM     20  O   UNL     1       2.516  -6.426   1.352  0.00  0.00    -0.275 OA
ATOM     21  H   UNL     1      -0.572  -0.867  -1.174  0.00  0.00    +0.166 HD
ENDBRANCH   1  19
BRANCH   6  22
ATOM     22  C   UNL     1       1.337  -8.568   0.092  0.00  0.00    +0.233 C 
ATOM     23  O   UNL     1       1.659  -7.758  -0.752  0.00  0.00    -0.274 OA
ATOM     24  N   UNL     1       1.738  -9.851  -0.018  0.00  0.00    -0.236 N 
ATOM     25  H   UNL     1       1.480 -10.498   0.657  0.00  0.00    +0.173 HD
BRANCH  24  26
ATOM     26  N   UNL     1       2.526 -10.248  -1.106  0.00  0.00    -0.264 N 
ATOM     27  H   UNL     1       2.783  -9.600  -1.780  0.00  0.00    +0.170 HD
BRANCH  26  28
ATOM     28  C   UNL     1       2.941 -11.576  -1.219  0.00  0.00    +0.045 A 
ATOM     29  C   UNL     1       2.568 -12.507  -0.257  0.00  0.00    +0.024 A 
ATOM     30  C   UNL     1       2.980 -13.820  -0.371  0.00  0.00    +0.003 A 
ATOM     31  C   UNL     1       3.763 -14.210  -1.443  0.00  0.00    +0.015 A 
ATOM     32  C   UNL     1       4.135 -13.286  -2.403  0.00  0.00    +0.020 A 
ATOM     33  C   UNL     1       3.722 -11.972  -2.297  0.00  0.00    +0.039 A 
ATOM     34 BR   UNL     1       5.206 -13.825  -3.866  0.00  0.00    -0.050 Br
ENDBRANCH  26  28
ENDBRANCH  24  26
ENDBRANCH   6  22
TORSDOF 4
