REMARK  Name = ZINC08739180
REMARK  4 active torsions:
REMARK  status: ('A' for Active; 'I' for Inactive)
REMARK    1  A    between atoms: C_9  and  C_11
REMARK    2  A    between atoms: C_12  and  O_25
REMARK    3  A    between atoms: C_14  and  O_24
REMARK    4  A    between atoms: N_15  and  C_18
REMARK                            x       y       z     vdW  Elec       q    Type
REMARK                         _______ _______ _______ _____ _____    ______ ____
ROOT
ATOM      1  C   UNL     1      -0.754   1.996  -1.209  0.00  0.00    +0.069 A 
ATOM      2  C   UNL     1      -1.946   2.687  -1.082  0.00  0.00    +0.224 A 
ATOM      3  N   UNL     1      -2.583   3.118  -2.176  0.00  0.00    -0.161 NA
ATOM      4  C   UNL     1      -2.099   2.898  -3.378  0.00  0.00    +0.302 A 
ATOM      5  N   UNL     1      -0.932   2.225  -3.558  0.00  0.00    -0.260 N 
ATOM      6  C   UNL     1      -0.241   1.770  -2.493  0.00  0.00    +0.262 A 
ATOM      7  O   UNL     1       0.811   1.169  -2.645  0.00  0.00    -0.267 OA
ENDROOT
BRANCH   1  16
ATOM      8  C   UNL     1      -0.051  -2.774  -0.033  0.00  0.00    +0.000 A 
ATOM      9  C   UNL     1      -1.183  -2.058  -0.376  0.00  0.00    +0.000 A 
ATOM     10  C   UNL     1      -1.156  -0.678  -0.358  0.00  0.00    +0.002 A 
ATOM     11  C   UNL     1       0.002  -0.004   0.002  0.00  0.00    -0.054 A 
ATOM     12  C   UNL     1       1.131  -0.718   0.341  0.00  0.00    -0.047 A 
ATOM     13  C   UNL     1       1.102  -2.104   0.325  0.00  0.00    +0.004 A 
ATOM     14  C   UNL     1       2.415  -0.030   0.729  0.00  0.00    +0.016 C 
ATOM     15  C   UNL     1       2.138   1.430   1.085  0.00  0.00    -0.077 C 
ATOM     16  C   UNL     1      -0.018   1.502   0.010  0.00  0.00    +0.001 C 
ATOM     17  N   UNL     1       1.350   2.038  -0.004  0.00  0.00    +0.387 N 
ATOM     18  H   UNL     1       1.791   1.821  -0.905  0.00  0.00    -0.085 HD
ATOM     19  H   UNL     1       1.318   3.056   0.126  0.00  0.00    -0.085 HD
ENDBRANCH   1  16
BRANCH   5  20
ATOM     20  C   UNL     1      -0.422   1.998  -4.913  0.00  0.00    +0.095 C 
ATOM     21  C   UNL     1      -0.183   3.344  -5.600  0.00  0.00    +0.025 C 
ATOM     22  C   UNL     1       0.350   3.107  -7.014  0.00  0.00    +0.002 C 
ATOM     23  C   UNL     1      -0.672   2.300  -7.816  0.00  0.00    +0.000 C 
ATOM     24  C   UNL     1      -0.910   0.953  -7.129  0.00  0.00    +0.002 C 
ATOM     25  C   UNL     1      -1.444   1.190  -5.715  0.00  0.00    +0.025 C 
ENDBRANCH   5  20
BRANCH   4  26
ATOM     26  O   UNL     1      -2.774   3.349  -4.454  0.00  0.00    -0.479 OA
ATOM     27  H   UNL     1      -3.600   3.824  -4.287  0.00  0.00    +0.295 HD
ENDBRANCH   4  26
BRANCH   2  28
ATOM     28  O   UNL     1      -2.465   2.926   0.145  0.00  0.00    -0.492 OA
ATOM     29  H   UNL     1      -3.299   3.415   0.130  0.00  0.00    +0.294 HD
ENDBRANCH   2  28
TORSDOF 4
