REMARK  Name = ZINC03427160
REMARK  14 active torsions:
REMARK  status: ('A' for Active; 'I' for Inactive)
REMARK    1  A    between atoms: C_1  and  C_2
REMARK    2  A    between atoms: C_3  and  C_23
REMARK    3  A    between atoms: C_4  and  N_10
REMARK    4  A    between atoms: C_6  and  C_7
REMARK    5  A    between atoms: C_11  and  C_13
REMARK    6  A    between atoms: C_13  and  N_53
REMARK    7  A    between atoms: C_14  and  C_16
REMARK    8  A    between atoms: C_14  and  C_17
REMARK    9  A    between atoms: C_14  and  N_53
REMARK   10  A    between atoms: C_23  and  O_25
REMARK   11  A    between atoms: O_25  and  C_26
REMARK   12  A    between atoms: C_26  and  C_27
REMARK   13  A    between atoms: C_27  and  O_28
REMARK   14  A    between atoms: O_28  and  C_29
REMARK                            x       y       z     vdW  Elec       q    Type
REMARK                         _______ _______ _______ _____ _____    ______ ____
ROOT
ATOM      1  C   UNL     1      -1.221   1.907  -7.334  0.00  0.00    +0.046 C 
ATOM      2  C   UNL     1      -1.481   2.087  -5.861  0.00  0.00    -0.015 A 
ATOM      3  C   UNL     1      -0.648   1.516  -4.910  0.00  0.00    +0.091 A 
ATOM      4  C   UNL     1      -0.957   1.730  -3.562  0.00  0.00    +0.087 A 
ATOM      5  S   UNL     1      -2.388   2.704  -3.642  0.00  0.00    -0.068 S 
ATOM      6  C   UNL     1      -2.547   2.819  -5.414  0.00  0.00    +0.079 A 
ENDROOT
BRANCH   6   7
ATOM      7  C   UNL     1      -3.568   3.518  -6.197  0.00  0.00    +0.248 C 
ATOM      8  O   UNL     1      -3.529   3.488  -7.413  0.00  0.00    -0.270 OA
ATOM      9  N   UNL     1      -4.552   4.193  -5.571  0.00  0.00    -0.325 N 
ATOM     10  H   UNL     1      -4.584   4.217  -4.602  0.00  0.00    +0.145 HD
ATOM     11  H   UNL     1      -5.229   4.656  -6.090  0.00  0.00    +0.145 HD
ENDBRANCH   6   7
BRANCH   4  12
ATOM     12  N   UNL     1      -0.288   1.272  -2.443  0.00  0.00    -0.281 N 
ATOM     13  C   UNL     1      -0.742   1.585  -1.213  0.00  0.00    +0.201 C 
ATOM     14  O   UNL     1      -1.736   2.268  -1.089  0.00  0.00    -0.278 OA
ATOM     15  H   UNL     1       0.507   0.726  -2.543  0.00  0.00    +0.155 HD
BRANCH  13  16
ATOM     16  C   UNL     1      -0.013   1.086   0.008  0.00  0.00    +0.016 C 
BRANCH  16  17
ATOM     17  N   UNL     1      -0.709   1.566   1.217  0.00  0.00    +0.389 N 
ATOM     18  H   UNL     1      -1.672   1.210   1.216  0.00  0.00    -0.084 HD
ATOM     19  H   UNL     1      -0.723   2.592   1.214  0.00  0.00    -0.084 HD
BRANCH  17  20
ATOM     20  C   UNL     1      -0.016   1.091   2.429  0.00  0.00    -0.043 C 
ATOM     21  C   UNL     1       1.120   2.054   2.778  0.00  0.00    -0.009 C 
BRANCH  20  22
ATOM     22  C   UNL     1      -0.998   1.038   3.571  0.00  0.00    -0.062 A 
ATOM     23  C   UNL     1      -1.935   2.043   3.724  0.00  0.00    +0.002 A 
ATOM     24  C   UNL     1      -2.839   1.992   4.769  0.00  0.00    +0.000 A 
ATOM     25  C   UNL     1      -2.799   0.942   5.667  0.00  0.00    +0.000 A 
ATOM     26  C   UNL     1      -1.859  -0.060   5.517  0.00  0.00    +0.000 A 
ATOM     27  C   UNL     1      -0.958  -0.012   4.470  0.00  0.00    +0.002 A 
ENDBRANCH  20  22
ENDBRANCH  17  20
ENDBRANCH  16  17
ENDBRANCH  13  16
ENDBRANCH   4  12
BRANCH   3  28
ATOM     28  C   UNL     1       0.518   0.717  -5.304  0.00  0.00    +0.342 C 
ATOM     29  O   UNL     1       0.405  -0.483  -5.466  0.00  0.00    -0.245 OA
BRANCH  28  30
ATOM     30  O   UNL     1       1.714   1.312  -5.486  0.00  0.00    -0.459 OA
BRANCH  30  31
ATOM     31  C   UNL     1       2.822   0.460  -5.875  0.00  0.00    +0.260 C 
BRANCH  31  32
ATOM     32  C   UNL     1       4.086   1.307  -6.033  0.00  0.00    +0.200 C 
BRANCH  32  33
ATOM     33  O   UNL     1       4.456   1.853  -4.765  0.00  0.00    -0.380 OA
ATOM     34  C   UNL     1       5.631   2.665  -4.802  0.00  0.00    +0.194 C 
ENDBRANCH  32  33
ENDBRANCH  31  32
ENDBRANCH  30  31
ENDBRANCH  28  30
ENDBRANCH   3  28
TORSDOF 11
