REMARK  Name = ZINC53125873
REMARK  8 active torsions:
REMARK  status: ('A' for Active; 'I' for Inactive)
REMARK    1  A    between atoms: C_1  and  C_2
REMARK    2  A    between atoms: C_7  and  C_9
REMARK    3  A    between atoms: C_7  and  N_11
REMARK    4  A    between atoms: C_9  and  O_10
REMARK    5  A    between atoms: N_11  and  C_12
REMARK    6  A    between atoms: C_12  and  C_13
REMARK    7  A    between atoms: C_13  and  C_15
REMARK    8  A    between atoms: C_13  and  O_22
REMARK                            x       y       z     vdW  Elec       q    Type
REMARK                         _______ _______ _______ _____ _____    ______ ____
ROOT
ATOM      1  N   UNL     1      -0.613  -2.512   1.165  0.00  0.00    +0.386 N 
ATOM      2  H   UNL     1      -1.032  -2.194   0.304  0.00  0.00    -0.085 HD
ATOM      3  H   UNL     1      -0.638  -3.520   1.199  0.00  0.00    -0.085 HD
ENDROOT
BRANCH   1   9
ATOM      4  C   UNL     1       0.184   1.563   0.052  0.00  0.00    +0.007 C 
ATOM      5  C   UNL     1       0.151   0.034   0.010  0.00  0.00    -0.015 C 
ATOM      6  C   UNL     1       0.907  -0.459  -1.225  0.00  0.00    +0.003 C 
ATOM      7  C   UNL     1       0.874  -1.988  -1.267  0.00  0.00    -0.001 C 
ATOM      8  C   UNL     1       1.537  -2.547  -0.007  0.00  0.00    -0.010 C 
ATOM      9  C   UNL     1       0.781  -2.054   1.229  0.00  0.00    -0.044 C 
ATOM     10  C   UNL     1       0.814  -0.525   1.271  0.00  0.00    -0.007 C 
BRANCH   9  11
ATOM     11  C   UNL     1       1.444  -2.613   2.489  0.00  0.00    +0.143 C 
BRANCH  11  12
ATOM     12  O   UNL     1       1.300  -4.035   2.513  0.00  0.00    -0.396 OA
ATOM     13  H   UNL     1       1.698  -4.458   3.286  0.00  0.00    +0.209 HD
ENDBRANCH  11  12
ENDBRANCH   9  11
ENDBRANCH   1   9
BRANCH   1  14
ATOM     14  C   UNL     1      -1.361  -1.965   2.305  0.00  0.00    -0.045 C 
BRANCH  14  15
ATOM     15  C   UNL     1      -2.775  -2.551   2.316  0.00  0.00    +0.128 C 
BRANCH  15  16
ATOM     16  C   UNL     1      -3.542  -1.990   3.485  0.00  0.00    -0.020 A 
ATOM     17  C   UNL     1      -4.194  -0.777   3.366  0.00  0.00    +0.006 A 
ATOM     18  C   UNL     1      -4.898  -0.262   4.438  0.00  0.00    +0.001 A 
ATOM     19  C   UNL     1      -4.950  -0.959   5.630  0.00  0.00    +0.015 A 
ATOM     20  C   UNL     1      -4.298  -2.173   5.750  0.00  0.00    +0.018 A 
ATOM     21  C   UNL     1      -3.598  -2.691   4.675  0.00  0.00    +0.021 A 
ATOM     22 BR   UNL     1      -4.368  -3.128   7.381  0.00  0.00    -0.050 Br
ENDBRANCH  15  16
BRANCH  15  23
ATOM     23  O   UNL     1      -3.442  -2.208   1.099  0.00  0.00    -0.389 OA
ATOM     24  H   UNL     1      -3.528  -1.256   0.954  0.00  0.00    +0.210 HD
ENDBRANCH  15  23
ENDBRANCH  14  15
ENDBRANCH   1  14
TORSDOF 7
