REMARK  Name = ZINC43898656
REMARK  7 active torsions:
REMARK  status: ('A' for Active; 'I' for Inactive)
REMARK    1  A    between atoms: C_1  and  C_2
REMARK    2  A    between atoms: C_3  and  C_24
REMARK    3  A    between atoms: C_5  and  N_14
REMARK    4  A    between atoms: C_6  and  C_7
REMARK    5  A    between atoms: C_10  and  O_12
REMARK    6  A    between atoms: O_12  and  C_13
REMARK    7  A    between atoms: C_15  and  C_17
REMARK                            x       y       z     vdW  Elec       q    Type
REMARK                         _______ _______ _______ _____ _____    ______ ____
ROOT
ATOM      1  C   UNL     1      -0.018   1.503   0.010  0.00  0.00    +0.045 C 
ATOM      2  C   UNL     1       0.002  -0.004   0.002  0.00  0.00    -0.027 A 
ATOM      3  C   UNL     1       0.006  -0.712  -1.142  0.00  0.00    -0.008 A 
ATOM      4  S   UNL     1       0.032  -2.400  -0.580  0.00  0.00    -0.078 S 
ATOM      5  C   UNL     1       0.036  -2.159   1.081  0.00  0.00    +0.085 A 
ATOM      6  C   UNL     1       0.024  -0.778   1.222  0.00  0.00    +0.069 A 
ATOM      7  C   UNL     1      -0.007  -0.199  -2.559  0.00  0.00    +0.052 C 
ENDROOT
BRANCH   6   8
ATOM      8  C   UNL     1       0.029  -0.139   2.540  0.00  0.00    +0.255 C 
ATOM      9  O   UNL     1      -1.023   0.113   3.098  0.00  0.00    -0.270 OA
ATOM     10  N   UNL     1       1.198   0.171   3.135  0.00  0.00    -0.217 N 
ATOM     11  C   UNL     1       1.202   0.759   4.348  0.00  0.00    +0.407 C 
ATOM     12  O   UNL     1       0.151   1.010   4.905  0.00  0.00    -0.226 OA
ATOM     13  H   UNL     1       2.036  -0.030   2.691  0.00  0.00    +0.161 HD
BRANCH  11  14
ATOM     14  O   UNL     1       2.369   1.068   4.942  0.00  0.00    -0.453 OA
ATOM     15  C   UNL     1       2.298   1.690   6.227  0.00  0.00    +0.282 C 
ENDBRANCH  11  14
ENDBRANCH   6   8
BRANCH   5  16
ATOM     16  N   UNL     1       0.054  -3.118   2.080  0.00  0.00    -0.275 N 
ATOM     17  C   UNL     1       0.070  -4.426   1.758  0.00  0.00    +0.250 C 
ATOM     18  O   UNL     1       0.070  -4.766   0.591  0.00  0.00    -0.270 OA
ATOM     19  H   UNL     1       0.054  -2.847   3.012  0.00  0.00    +0.156 HD
BRANCH  17  20
ATOM     20  C   UNL     1       0.089  -5.449   2.825  0.00  0.00    +0.050 A 
ATOM     21  C   UNL     1       0.084  -5.063   4.167  0.00  0.00    +0.014 A 
ATOM     22  C   UNL     1       0.101  -6.023   5.157  0.00  0.00    +0.001 A 
ATOM     23  C   UNL     1       0.124  -7.366   4.824  0.00  0.00    +0.001 A 
ATOM     24  C   UNL     1       0.130  -7.756   3.497  0.00  0.00    +0.015 A 
ATOM     25  C   UNL     1       0.106  -6.806   2.495  0.00  0.00    +0.025 A 
ATOM     26  I   UNL     1       0.106  -7.399   0.486  0.00  0.00    -0.043 I 
ENDBRANCH  17  20
ENDBRANCH   5  16
TORSDOF 4
