REMARK  Name = ZINC39780852
REMARK  5 active torsions:
REMARK  status: ('A' for Active; 'I' for Inactive)
REMARK    1  A    between atoms: C_1  and  C_2
REMARK    2  A    between atoms: C_5  and  C_8
REMARK    3  A    between atoms: C_15  and  C_17
REMARK    4  A    between atoms: C_20  and  C_23
REMARK    5  A    between atoms: C_26  and  C_29
REMARK                            x       y       z     vdW  Elec       q    Type
REMARK                         _______ _______ _______ _____ _____    ______ ____
ROOT
ATOM      1  C   UNL     1       0.061  -4.256  -0.021  0.00  0.00    +0.183 A 
ATOM      2  N   UNL     1       0.071  -5.042   1.065  0.00  0.00    -0.193 NA
ATOM      3  C   UNL     1       0.088  -6.303   0.698  0.00  0.00    +0.218 A 
ATOM      4  N   UNL     1       0.089  -6.347  -0.652  0.00  0.00    -0.246 N 
ATOM      5  H   UNL     1       0.099  -7.143  -1.207  0.00  0.00    +0.192 HD
ATOM      6  N   UNL     1       0.065  -5.015  -1.094  0.00  0.00    -0.151 NA
ATOM      7  N   UNL     1       0.104  -7.398   1.548  0.00  0.00    -0.251 N 
ATOM      8  C   UNL     1       0.121  -8.646   1.040  0.00  0.00    +0.250 C 
ATOM      9  O   UNL     1       0.123  -8.812  -0.165  0.00  0.00    -0.270 OA
ATOM     10  H   UNL     1       0.103  -7.266   2.509  0.00  0.00    +0.158 HD
ENDROOT
BRANCH   1  15
ATOM     11  C   UNL     1      -0.018   1.503   0.010  0.00  0.00    +0.044 C 
ATOM     12  C   UNL     1       0.002  -0.004   0.002  0.00  0.00    -0.050 A 
ATOM     13  C   UNL     1       0.006  -0.686  -1.201  0.00  0.00    +0.004 A 
ATOM     14  C   UNL     1       0.025  -2.067  -1.215  0.00  0.00    +0.012 A 
ATOM     15  C   UNL     1       0.041  -2.772  -0.013  0.00  0.00    +0.021 A 
ATOM     16  C   UNL     1       0.037  -2.080   1.196  0.00  0.00    +0.012 A 
ATOM     17  C   UNL     1       0.023  -0.700   1.198  0.00  0.00    +0.004 A 
ENDBRANCH   1  15
BRANCH   8  18
ATOM     18  C   UNL     1       0.138  -9.814   1.946  0.00  0.00    +0.037 A 
ATOM     19  C   UNL     1       0.130  -9.627   3.329  0.00  0.00    +0.013 A 
ATOM     20  C   UNL     1       0.145 -10.721   4.170  0.00  0.00    +0.009 A 
ATOM     21  C   UNL     1       0.169 -12.001   3.644  0.00  0.00    +0.004 A 
ATOM     22  C   UNL     1       0.177 -12.193   2.274  0.00  0.00    +0.009 A 
ATOM     23  C   UNL     1       0.156 -11.107   1.422  0.00  0.00    +0.013 A 
BRANCH  21  24
ATOM     24  C   UNL     1       0.186 -13.191   4.568  0.00  0.00    +0.274 C 
ATOM     25  N   UNL     1       0.868 -14.323   3.928  0.00  0.00    -0.343 N 
ATOM     26  C   UNL     1       0.037 -15.300   3.821  0.00  0.00    +0.100 C 
ATOM     27  N   UNL     1      -1.189 -14.980   4.327  0.00  0.00    -0.252 N 
ATOM     28  O   UNL     1      -1.152 -13.647   4.819  0.00  0.00    -0.243 OA
ATOM     29  C   UNL     1       0.377 -16.636   3.212  0.00  0.00    +0.085 C 
ATOM     30  H   UNL     1      -1.961 -15.567   4.349  0.00  0.00    +0.195 HD
ATOM     31  H   UNL     1       1.792 -14.332   3.634  0.00  0.00    +0.164 HD
ENDBRANCH  21  24
ENDBRANCH   8  18
TORSDOF 3
