REMARK  Name = ZINC36813016
REMARK  4 active torsions:
REMARK  status: ('A' for Active; 'I' for Inactive)
REMARK    1  A    between atoms: C_8  and  N_13
REMARK    2  A    between atoms: C_9  and  N_12
REMARK    3  A    between atoms: N_13  and  C_14
REMARK    4  A    between atoms: C_14  and  C_15
REMARK                            x       y       z     vdW  Elec       q    Type
REMARK                         _______ _______ _______ _____ _____    ______ ____
ROOT
ATOM      1  C   UNL     1      -0.234   0.909   1.756  0.00  0.00    +0.017 A 
ATOM      2  C   UNL     1       0.742   1.852   1.641  0.00  0.00    +0.027 A 
ATOM      3  C   UNL     1       2.076   1.455   1.445  0.00  0.00    +0.048 A 
ATOM      4  C   UNL     1       2.379   0.073   1.371  0.00  0.00    +0.022 A 
ATOM      5  C   UNL     1       1.349  -0.871   1.494  0.00  0.00    +0.027 A 
ATOM      6  C   UNL     1       0.067  -0.449   1.683  0.00  0.00    +0.019 A 
ATOM      7 BR   UNL     1      -1.320  -1.724   1.848  0.00  0.00    -0.050 Br
ATOM      8  C   UNL     1       3.720  -0.324   1.174  0.00  0.00    +0.059 A 
ATOM      9  C   UNL     1       4.684   0.672   1.061  0.00  0.00    +0.062 A 
ATOM     10  C   UNL     1       4.303   2.010   1.145  0.00  0.00    +0.107 A 
ATOM     11  N   UNL     1       3.052   2.362   1.329  0.00  0.00    -0.359 N 
ATOM     12  H   UNL     1       2.830   3.305   1.381  0.00  0.00    +0.165 HD
ENDROOT
BRANCH   9  13
ATOM     13  N   UNL     1       6.030   0.332   0.865  0.00  0.00    -0.355 N 
ATOM     14  H   UNL     1       6.262  -0.454   0.347  0.00  0.00    +0.142 HD
ATOM     15  H   UNL     1       6.731   0.883   1.249  0.00  0.00    +0.142 HD
ENDBRANCH   9  13
BRANCH   8  16
ATOM     16  N   UNL     1       4.066  -1.670   1.095  0.00  0.00    -0.339 N 
ATOM     17  H   UNL     1       3.381  -2.338   0.939  0.00  0.00    +0.146 HD
BRANCH  16  18
ATOM     18  C   UNL     1       5.465  -2.077   1.248  0.00  0.00    +0.133 C 
BRANCH  18  19
ATOM     19  C   UNL     1       5.524  -3.518   1.758  0.00  0.00    +0.135 C 
ATOM     20  C   UNL     1       6.996  -3.957   1.960  0.00  0.00    +0.035 C 
ATOM     21  C   UNL     1       6.827  -5.076   3.024  0.00  0.00    +0.031 C 
ATOM     22  C   UNL     1       5.642  -4.552   3.864  0.00  0.00    +0.160 C 
ATOM     23  O   UNL     1       4.920  -3.612   3.058  0.00  0.00    -0.375 OA
ENDBRANCH  18  19
ENDBRANCH  16  18
ENDBRANCH   8  16
TORSDOF 4
