REMARK  Name = ZINC54260435
REMARK  10 active torsions:
REMARK  status: ('A' for Active; 'I' for Inactive)
REMARK    1  A    between atoms: C_1  and  C_2
REMARK    2  A    between atoms: C_5  and  C_27
REMARK    3  A    between atoms: N_8  and  C_10
REMARK    4  A    between atoms: C_10  and  C_11
REMARK    5  A    between atoms: C_10  and  C_12
REMARK    6  A    between atoms: C_10  and  C_13
REMARK    7  A    between atoms: C_13  and  N_14
REMARK    8  A    between atoms: C_15  and  C_17
REMARK    9  A    between atoms: C_20  and  N_26
REMARK   10  A    between atoms: C_21  and  N_23
REMARK                            x       y       z     vdW  Elec       q    Type
REMARK                         _______ _______ _______ _____ _____    ______ ____
ROOT
ATOM      1  N   UNL     1       3.400  -2.357   0.839  0.00  0.00    -0.313 N 
ATOM      2  C   UNL     1       4.685  -2.106   0.520  0.00  0.00    +0.244 C 
ATOM      3  O   UNL     1       5.410  -1.542   1.317  0.00  0.00    -0.270 OA
ATOM      4  H   UNL     1       2.821  -2.807   0.204  0.00  0.00    +0.149 HD
ENDROOT
BRANCH   2   5
ATOM      5  C   UNL     1       5.212  -2.517  -0.795  0.00  0.00    +0.039 A 
ATOM      6  C   UNL     1       4.378  -3.160  -1.714  0.00  0.00    +0.015 A 
ATOM      7  C   UNL     1       4.873  -3.542  -2.940  0.00  0.00    +0.026 A 
ATOM      8  C   UNL     1       6.203  -3.287  -3.265  0.00  0.00    +0.055 A 
ATOM      9  C   UNL     1       7.036  -2.647  -2.352  0.00  0.00    +0.147 A 
ATOM     10  C   UNL     1       6.545  -2.258  -1.127  0.00  0.00    +0.047 A 
BRANCH   9  11
ATOM     11  N   UNL     1       8.449  -2.380  -2.702  0.00  0.00    +0.058 N 
ATOM     12  O   UNL     1       9.310  -2.480  -1.859  0.00  0.00    -0.126 OA
ATOM     13  O   UNL     1       8.743  -2.061  -3.830  0.00  0.00    -0.126 OA
ENDBRANCH   9  11
BRANCH   8  14
ATOM     14  N   UNL     1       6.700  -3.674  -4.505  0.00  0.00    -0.356 N 
ATOM     15  H   UNL     1       6.131  -4.152  -5.128  0.00  0.00    +0.142 HD
ATOM     16  H   UNL     1       7.616  -3.467  -4.746  0.00  0.00    +0.142 HD
ENDBRANCH   8  14
ENDBRANCH   2   5
BRANCH   1  17
ATOM     17  C   UNL     1       2.876  -1.949   2.145  0.00  0.00    +0.092 C 
BRANCH  17  18
ATOM     18  C   UNL     1       1.435  -2.441   2.293  0.00  0.00    -0.055 C 
ATOM     19  C   UNL     1       0.869  -1.968   3.633  0.00  0.00    -0.008 C 
ATOM     20  C   UNL     1       1.410  -3.970   2.240  0.00  0.00    -0.008 C 
BRANCH  18  26
ATOM     21  C   UNL     1      -0.032   1.662   0.060  0.00  0.00    +0.005 C 
ATOM     22  C   UNL     1      -0.100   0.134   0.034  0.00  0.00    -0.031 C 
ATOM     23  C   UNL     1      -1.560  -0.315   0.132  0.00  0.00    +0.003 C 
ATOM     24  C   UNL     1      -1.612  -1.845   0.184  0.00  0.00    -0.031 C 
ATOM     25  C   UNL     1      -0.773  -2.338   1.364  0.00  0.00    -0.075 C 
ATOM     26  N   UNL     1       0.618  -1.899   1.198  0.00  0.00    +0.384 N 
ATOM     27  C   UNL     1       0.684  -0.433   1.219  0.00  0.00    -0.075 C 
ATOM     28  C   UNL     1      -1.051  -2.419  -1.119  0.00  0.00    +0.005 C 
ATOM     29  H   UNL     1       0.973  -2.238   0.317  0.00  0.00    -0.081 HD
ENDBRANCH  18  26
ENDBRANCH  17  18
ENDBRANCH   1  17
TORSDOF 6
