REMARK  Name = ZINC11849297
REMARK  5 active torsions:
REMARK  status: ('A' for Active; 'I' for Inactive)
REMARK    1  A    between atoms: C_5  and  N_7
REMARK    2  A    between atoms: N_7  and  S_8
REMARK    3  A    between atoms: S_8  and  C_11
REMARK    4  A    between atoms: C_14  and  C_17
REMARK    5  A    between atoms: C_17  and  N_32
REMARK                            x       y       z     vdW  Elec       q    Type
REMARK                         _______ _______ _______ _____ _____    ______ ____
ROOT
ATOM      1  S   UNL     1      -1.265  -2.216   0.719  0.00  0.00    +0.072 S 
ATOM      2  O   UNL     1      -2.573  -2.718   0.485  0.00  0.00    -0.150 OA
ATOM      3  O   UNL     1      -0.097  -2.913   0.309  0.00  0.00    -0.150 OA
ENDROOT
BRANCH   1   4
ATOM      4  C   UNL     1      -1.122  -1.973   2.458  0.00  0.00    +0.109 A 
ATOM      5  C   UNL     1       0.124  -1.978   3.057  0.00  0.00    +0.029 A 
ATOM      6  C   UNL     1       0.237  -1.783   4.421  0.00  0.00    +0.003 A 
ATOM      7  C   UNL     1      -0.898  -1.593   5.188  0.00  0.00    -0.065 A 
ATOM      8  C   UNL     1      -2.144  -1.594   4.590  0.00  0.00    +0.003 A 
ATOM      9  C   UNL     1      -2.256  -1.784   3.225  0.00  0.00    +0.029 A 
BRANCH   7  10
ATOM     10  C   UNL     1      -0.775  -1.385   6.675  0.00  0.00    -0.051 C 
BRANCH  10  13
ATOM     11  H   UNL     1      -0.119  -3.308   7.006  0.00  0.00    -0.090 HD
ATOM     12  H   UNL     1      -0.750  -2.572   8.357  0.00  0.00    -0.090 HD
ATOM     13  N   UNL     1      -0.853  -2.692   7.351  0.00  0.00    +0.381 N 
ATOM     14  H   UNL     1      -1.767  -3.119   7.156  0.00  0.00    -0.090 HD
ENDBRANCH  10  13
ENDBRANCH   7  10
ENDBRANCH   1   4
BRANCH   1  15
ATOM     15  N   UNL     1      -1.198  -0.721   0.009  0.00  0.00    -0.215 N 
ATOM     16  H   UNL     1      -1.945  -0.401  -0.520  0.00  0.00    +0.174 HD
BRANCH  15  21
ATOM     17  C   UNL     1       2.315   0.292   0.393  0.00  0.00    +0.002 A 
ATOM     18  C   UNL     1       2.182   1.665   0.495  0.00  0.00    +0.002 A 
ATOM     19  C   UNL     1       0.929   2.248   0.436  0.00  0.00    +0.022 A 
ATOM     20  C   UNL     1      -0.195   1.460   0.275  0.00  0.00    +0.063 A 
ATOM     21  C   UNL     1      -0.064   0.080   0.172  0.00  0.00    +0.066 A 
ATOM     22  C   UNL     1       1.196  -0.501   0.232  0.00  0.00    +0.026 A 
ATOM     23 CL   UNL     1      -1.766   2.192   0.194  0.00  0.00    -0.082 Cl
ENDBRANCH  15  21
ENDBRANCH   1  15
TORSDOF 5
