REMARK  Name = ZINC63152764
REMARK  4 active torsions:
REMARK  status: ('A' for Active; 'I' for Inactive)
REMARK    1  A    between atoms: C_5  and  N_14
REMARK    2  A    between atoms: C_6  and  N_7
REMARK    3  A    between atoms: N_7  and  C_8
REMARK    4  A    between atoms: C_8  and  C_9
REMARK                            x       y       z     vdW  Elec       q    Type
REMARK                         _______ _______ _______ _____ _____    ______ ____
ROOT
ATOM      1  C   UNL     1      -0.017   1.388   0.010  0.00  0.00    +0.042 A 
ATOM      2  C   UNL     1       1.180   2.076   0.002  0.00  0.00    +0.084 A 
ATOM      3  N   UNL     1       2.333   1.435  -0.013  0.00  0.00    -0.365 N 
ATOM      4  C   UNL     1       2.398   0.116  -0.021  0.00  0.00    +0.107 A 
ATOM      5  C   UNL     1       1.245  -0.650  -0.014  0.00  0.00    +0.062 A 
ATOM      6  C   UNL     1       0.002  -0.004   0.002  0.00  0.00    +0.051 A 
ATOM      7  H   UNL     1       3.156   1.947  -0.019  0.00  0.00    +0.165 HD
ENDROOT
BRANCH   5   8
ATOM      8  N   UNL     1       1.319  -2.048  -0.022  0.00  0.00    -0.355 N 
ATOM      9  H   UNL     1       2.184  -2.488  -0.033  0.00  0.00    +0.142 HD
ATOM     10  H   UNL     1       0.506  -2.578  -0.018  0.00  0.00    +0.142 HD
ENDBRANCH   5   8
BRANCH   6  11
ATOM     11  N   UNL     1      -1.185  -0.736   0.010  0.00  0.00    -0.338 N 
ATOM     12  H   UNL     1      -1.157  -1.706   0.004  0.00  0.00    +0.146 HD
BRANCH  11  13
ATOM     13  C   UNL     1      -2.475  -0.041   0.026  0.00  0.00    +0.137 C 
BRANCH  13  14
ATOM     14  C   UNL     1      -3.591  -1.053   0.032  0.00  0.00    -0.023 A 
ATOM     15  C   UNL     1      -4.119  -1.522  -1.156  0.00  0.00    +0.013 A 
ATOM     16  C   UNL     1      -5.123  -2.432  -1.116  0.00  0.00    +0.045 A 
ATOM     17  S   UNL     1      -5.351  -2.653   0.641  0.00  0.00    -0.105 S 
ATOM     18  C   UNL     1      -4.089  -1.522   1.202  0.00  0.00    +0.050 A 
ENDBRANCH  13  14
ENDBRANCH  11  13
ENDBRANCH   6  11
TORSDOF 4
