REMARK  Name = ZINC34786283
REMARK  9 active torsions:
REMARK  status: ('A' for Active; 'I' for Inactive)
REMARK    1  A    between atoms: C_1  and  C_2
REMARK    2  A    between atoms: C_2  and  C_3
REMARK    3  A    between atoms: C_4  and  C_29
REMARK    4  A    between atoms: C_6  and  N_11
REMARK    5  A    between atoms: C_7  and  C_8
REMARK    6  A    between atoms: N_17  and  C_20
REMARK    7  A    between atoms: C_20  and  C_21
REMARK    8  A    between atoms: C_21  and  C_22
REMARK    9  A    between atoms: C_22  and  C_23
REMARK                            x       y       z     vdW  Elec       q    Type
REMARK                         _______ _______ _______ _____ _____    ______ ____
ROOT
ATOM      1  N   UNL     1       3.985  -1.476  -2.757  0.00  0.00    -0.263 N 
ATOM      2  C   UNL     1       4.325  -1.904  -3.989  0.00  0.00    +0.307 C 
ATOM      3  O   UNL     1       3.462  -2.112  -4.821  0.00  0.00    -0.252 OA
ATOM      4  N   UNL     1       5.621  -2.102  -4.300  0.00  0.00    -0.289 N 
ATOM      5  C   UNL     1       6.672  -1.974  -3.278  0.00  0.00    +0.091 C 
ATOM      6  C   UNL     1       7.553  -3.226  -3.328  0.00  0.00    -0.059 C 
ATOM      7  N   UNL     1       8.057  -3.415  -4.694  0.00  0.00    +0.382 N 
ATOM      8  C   UNL     1       6.938  -3.683  -5.607  0.00  0.00    -0.059 C 
ATOM      9  C   UNL     1       6.026  -2.458  -5.668  0.00  0.00    +0.091 C 
ATOM     10  H   UNL     1       4.664  -1.381  -2.072  0.00  0.00    +0.157 HD
ATOM     11  H   UNL     1       8.540  -2.580  -4.992  0.00  0.00    -0.082 HD
ENDROOT
BRANCH   1  15
ATOM     12  C   UNL     1       0.708  -0.481  -1.242  0.00  0.00    -0.024 A 
ATOM     13  C   UNL     1       0.050  -0.721  -2.391  0.00  0.00    -0.008 A 
ATOM     14  S   UNL     1       1.337  -1.265  -3.493  0.00  0.00    -0.078 S 
ATOM     15  C   UNL     1       2.663  -1.172  -2.470  0.00  0.00    +0.086 A 
ATOM     16  C   UNL     1       2.134  -0.717  -1.271  0.00  0.00    +0.068 A 
ATOM     17  C   UNL     1      -1.421  -0.566  -2.675  0.00  0.00    +0.052 C 
BRANCH  16  18
ATOM     18  C   UNL     1       2.976  -0.493  -0.092  0.00  0.00    +0.244 C 
ATOM     19  O   UNL     1       3.167  -1.396   0.701  0.00  0.00    -0.270 OA
ATOM     20  N   UNL     1       3.539   0.714   0.113  0.00  0.00    -0.325 N 
ATOM     21  H   UNL     1       3.387   1.435  -0.519  0.00  0.00    +0.145 HD
ATOM     22  H   UNL     1       4.097   0.863   0.893  0.00  0.00    +0.145 HD
ENDBRANCH  16  18
BRANCH  12  24
ATOM     23  C   UNL     1      -0.018   1.539  -0.000  0.00  0.00    +0.009 C 
ATOM     24  C   UNL     1       0.003   0.009  -0.003  0.00  0.00    +0.033 C 
ENDBRANCH  12  24
ENDBRANCH   1  15
BRANCH   7  25
ATOM     25  C   UNL     1       8.989  -4.550  -4.718  0.00  0.00    -0.078 C 
BRANCH  25  26
ATOM     26  C   UNL     1       9.609  -4.671  -6.112  0.00  0.00    -0.014 C 
BRANCH  26  27
ATOM     27  C   UNL     1      10.580  -5.854  -6.137  0.00  0.00    +0.033 C 
BRANCH  27  28
ATOM     28  C   UNL     1      11.191  -5.973  -7.509  0.00  0.00    -0.047 A 
ATOM     29  C   UNL     1      10.576  -6.748  -8.475  0.00  0.00    +0.003 A 
ATOM     30  C   UNL     1      11.137  -6.857  -9.733  0.00  0.00    +0.000 A 
ATOM     31  C   UNL     1      12.312  -6.191 -10.027  0.00  0.00    +0.000 A 
ATOM     32  C   UNL     1      12.926  -5.415  -9.062  0.00  0.00    +0.000 A 
ATOM     33  C   UNL     1      12.364  -5.302  -7.804  0.00  0.00    +0.003 A 
ENDBRANCH  27  28
ENDBRANCH  26  27
ENDBRANCH  25  26
ENDBRANCH   7  25
TORSDOF 7
