REMARK  Name = ZINC41006575
REMARK  9 active torsions:
REMARK  status: ('A' for Active; 'I' for Inactive)
REMARK    1  A    between atoms: C_1  and  C_2
REMARK    2  A    between atoms: C_7  and  N_8
REMARK    3  A    between atoms: C_9  and  C_11
REMARK    4  A    between atoms: C_13  and  C_33
REMARK    5  A    between atoms: C_15  and  C_23
REMARK    6  A    between atoms: C_17  and  C_21
REMARK    7  A    between atoms: C_17  and  O_22
REMARK    8  A    between atoms: N_25  and  C_26
REMARK    9  A    between atoms: C_31  and  C_32
REMARK                            x       y       z     vdW  Elec       q    Type
REMARK                         _______ _______ _______ _____ _____    ______ ____
ROOT
ATOM      1  C   UNL     1       0.261  -0.471   4.938  0.00  0.00    +0.150 C 
ATOM      2  C   UNL     1       0.128  -1.280   6.233  0.00  0.00    +0.057 C 
ATOM      3  C   UNL     1      -1.231  -1.981   6.256  0.00  0.00    +0.116 C 
ATOM      4  C   UNL     1      -2.352  -0.940   6.281  0.00  0.00    +0.082 C 
ATOM      5  C   UNL     1      -2.312  -0.118   4.989  0.00  0.00    +0.110 C 
ATOM      6  C   UNL     1      -0.921   0.466   4.828  0.00  0.00    +0.148 C 
ATOM      7  O   UNL     1      -0.760   1.645   4.622  0.00  0.00    -0.296 OA
ATOM      8  C   UNL     1      -3.703  -1.647   6.395  0.00  0.00    +0.042 C 
ENDROOT
BRANCH   2   9
ATOM      9  C   UNL     1       1.226  -2.310   6.297  0.00  0.00    +0.011 A 
ATOM     10  C   UNL     1       0.977  -3.555   6.849  0.00  0.00    +0.128 A 
ATOM     11  C   UNL     1       1.986  -4.500   6.908  0.00  0.00    +0.039 A 
ATOM     12  C   UNL     1       3.243  -4.201   6.416  0.00  0.00    +0.004 A 
ATOM     13  C   UNL     1       3.492  -2.958   5.865  0.00  0.00    +0.020 A 
ATOM     14  C   UNL     1       2.482  -2.014   5.801  0.00  0.00    +0.047 A 
ATOM     15 CL   UNL     1       2.795  -0.456   5.102  0.00  0.00    -0.083 Cl
ATOM     16  F   UNL     1      -0.252  -3.847   7.330  0.00  0.00    -0.205 F 
ENDBRANCH   2   9
BRANCH   1  18
ATOM     17  N   UNL     1      -0.211  -0.999   2.568  0.00  0.00    -0.285 N 
ATOM     18  C   UNL     1       0.278  -1.406   3.757  0.00  0.00    +0.228 C 
ATOM     19  O   UNL     1       0.730  -2.525   3.875  0.00  0.00    -0.275 OA
ATOM     20  H   UNL     1      -0.563  -0.101   2.471  0.00  0.00    +0.155 HD
BRANCH  17  27
ATOM     21  C   UNL     1      -2.054  -0.511   0.456  0.00  0.00    +0.045 C 
ATOM     22  C   UNL     1      -1.093  -1.671   0.423  0.00  0.00    -0.029 A 
ATOM     23  C   UNL     1      -1.086  -2.532  -0.657  0.00  0.00    +0.005 A 
ATOM     24  C   UNL     1      -0.205  -3.597  -0.689  0.00  0.00    +0.000 A 
ATOM     25  C   UNL     1       0.673  -3.804   0.360  0.00  0.00    +0.002 A 
ATOM     26  C   UNL     1       0.671  -2.946   1.443  0.00  0.00    +0.023 A 
ATOM     27  C   UNL     1      -0.210  -1.873   1.475  0.00  0.00    +0.036 A 
ENDBRANCH  17  27
ENDBRANCH   1  18
BRANCH   3  28
ATOM     28  C   UNL     1      -1.374  -2.839   5.026  0.00  0.00    +0.224 C 
ATOM     29  O   UNL     1      -1.912  -2.393   4.035  0.00  0.00    -0.275 OA
ATOM     30  N   UNL     1      -0.903  -4.102   5.026  0.00  0.00    -0.285 N 
ATOM     31  H   UNL     1      -0.524  -4.478   5.836  0.00  0.00    +0.155 HD
BRANCH  30  32
ATOM     32  C   UNL     1      -0.962  -4.871   3.858  0.00  0.00    +0.036 A 
ATOM     33  C   UNL     1      -1.478  -4.324   2.691  0.00  0.00    +0.023 A 
ATOM     34  C   UNL     1      -1.534  -5.086   1.540  0.00  0.00    +0.002 A 
ATOM     35  C   UNL     1      -1.077  -6.391   1.550  0.00  0.00    +0.000 A 
ATOM     36  C   UNL     1      -0.563  -6.938   2.711  0.00  0.00    +0.005 A 
ATOM     37  C   UNL     1      -0.498  -6.179   3.864  0.00  0.00    -0.029 A 
ATOM     38  C   UNL     1       0.069  -6.774   5.127  0.00  0.00    +0.045 C 
ENDBRANCH  30  32
ENDBRANCH   3  28
BRANCH   4  39
ATOM     39  O   UNL     1      -2.171  -0.073   7.403  0.00  0.00    -0.388 OA
ATOM     40  H   UNL     1      -2.848   0.614   7.481  0.00  0.00    +0.210 HD
ENDBRANCH   4  39
TORSDOF 6
