REMARK  Name = ZINC11881389
REMARK  7 active torsions:
REMARK  status: ('A' for Active; 'I' for Inactive)
REMARK    1  A    between atoms: C_1  and  C_2
REMARK    2  A    between atoms: C_10  and  C_13
REMARK    3  A    between atoms: C_18  and  C_19
REMARK    4  A    between atoms: C_18  and  N_66
REMARK    5  A    between atoms: N_21  and  C_22
REMARK    6  A    between atoms: C_22  and  C_23
REMARK    7  A    between atoms: C_23  and  C_29
REMARK                            x       y       z     vdW  Elec       q    Type
REMARK                         _______ _______ _______ _____ _____    ______ ____
ROOT
ATOM      1  C   UNL     1      -1.065   1.571  -3.682  0.00  0.00    +0.019 C 
ENDROOT
BRANCH   1  13
ATOM      2  C   UNL     1       4.853  -1.716  -2.894  0.00  0.00    +0.044 C 
ATOM      3  C   UNL     1       3.973  -0.733  -2.165  0.00  0.00    -0.050 A 
ATOM      4  C   UNL     1       4.107  -0.568  -0.798  0.00  0.00    +0.007 A 
ATOM      5  C   UNL     1       3.296   0.324  -0.123  0.00  0.00    +0.046 A 
ATOM      6  C   UNL     1       2.347   1.056  -0.823  0.00  0.00    +0.123 A 
ATOM      7  C   UNL     1       2.231   0.902  -2.191  0.00  0.00    -0.022 A 
ATOM      8  C   UNL     1       3.032   0.003  -2.864  0.00  0.00    +0.008 A 
ATOM      9  C   UNL     1       1.235   1.755  -2.954  0.00  0.00    -0.038 C 
ATOM     10  C   UNL     1      -0.585   1.994  -1.354  0.00  0.00    -0.028 C 
ATOM     11  C   UNL     1       0.147   1.537  -0.111  0.00  0.00    +0.188 C 
ATOM     12  O   UNL     1       1.527   1.920  -0.165  0.00  0.00    -0.486 OA
ATOM     13  N   UNL     1      -0.127   1.305  -2.580  0.00  0.00    +0.391 N 
ATOM     14  H   UNL     1      -0.102   0.294  -2.401  0.00  0.00    -0.080 HD
BRANCH  11  15
ATOM     15  C   UNL     1      -0.495   2.162   1.100  0.00  0.00    -0.002 A 
ATOM     16  C   UNL     1      -1.396   1.445   1.865  0.00  0.00    +0.015 A 
ATOM     17  C   UNL     1      -1.951   2.035   2.952  0.00  0.00    +0.045 A 
ATOM     18  S   UNL     1      -1.208   3.658   2.911  0.00  0.00    -0.105 S 
ATOM     19  C   UNL     1      -0.202   3.437   1.453  0.00  0.00    +0.052 A 
ENDBRANCH  11  15
ENDBRANCH   1  13
BRANCH   1  20
ATOM     20  C   UNL     1      -0.720   0.659  -4.831  0.00  0.00    +0.196 C 
ATOM     21  O   UNL     1       0.218  -0.104  -4.739  0.00  0.00    -0.278 OA
ATOM     22  N   UNL     1      -1.455   0.691  -5.961  0.00  0.00    -0.316 N 
ATOM     23  H   UNL     1      -2.205   1.301  -6.034  0.00  0.00    +0.149 HD
BRANCH  22  24
ATOM     24  C   UNL     1      -1.120  -0.196  -7.077  0.00  0.00    +0.115 C 
BRANCH  24  25
ATOM     25  C   UNL     1      -2.172  -0.049  -8.179  0.00  0.00    +0.015 C 
ATOM     26  C   UNL     1      -3.542  -0.467  -7.638  0.00  0.00    +0.041 C 
ATOM     27  C   UNL     1      -3.498  -1.947  -7.248  0.00  0.00    +0.160 C 
ATOM     28  O   UNL     1      -3.121  -2.727  -8.385  0.00  0.00    -0.380 OA
ATOM     29  C   UNL     1      -1.828  -2.412  -8.906  0.00  0.00    +0.160 C 
ATOM     30  C   UNL     1      -1.805  -0.950  -9.362  0.00  0.00    +0.041 C 
BRANCH  25  31
ATOM     31  C   UNL     1      -2.225   1.386  -8.636  0.00  0.00    -0.040 A 
ATOM     32  C   UNL     1      -1.132   1.952  -9.264  0.00  0.00    +0.004 A 
ATOM     33  C   UNL     1      -1.182   3.267  -9.688  0.00  0.00    +0.000 A 
ATOM     34  C   UNL     1      -2.323   4.019  -9.475  0.00  0.00    +0.000 A 
ATOM     35  C   UNL     1      -3.415   3.454  -8.842  0.00  0.00    +0.000 A 
ATOM     36  C   UNL     1      -3.366   2.138  -8.423  0.00  0.00    +0.004 A 
ENDBRANCH  25  31
ENDBRANCH  24  25
ENDBRANCH  22  24
ENDBRANCH   1  20
TORSDOF 6
