REMARK  Name = ZINC16955317
REMARK  11 active torsions:
REMARK  status: ('A' for Active; 'I' for Inactive)
REMARK    1  A    between atoms: C_1  and  C_2
REMARK    2  A    between atoms: C_2  and  N_3
REMARK    3  A    between atoms: N_3  and  C_4
REMARK    4  A    between atoms: C_4  and  C_5
REMARK    5  A    between atoms: C_6  and  C_8
REMARK    6  A    between atoms: C_12  and  C_14
REMARK    7  A    between atoms: C_14  and  O_15
REMARK    8  A    between atoms: O_15  and  C_16
REMARK    9  A    between atoms: C_19  and  N_23
REMARK   10  A    between atoms: C_28  and  C_29
REMARK   11  A    between atoms: C_28  and  C_30
REMARK                            x       y       z     vdW  Elec       q    Type
REMARK                         _______ _______ _______ _____ _____    ______ ____
ROOT
ATOM      1  C   UNL     1      -1.964  -1.634  -2.996  0.00  0.00    +0.139 A 
ATOM      2  C   UNL     1      -0.857  -1.053  -2.397  0.00  0.00    +0.049 A 
ATOM      3  C   UNL     1      -0.979   0.159  -1.747  0.00  0.00    +0.027 A 
ATOM      4  C   UNL     1      -2.212   0.797  -1.693  0.00  0.00    +0.040 A 
ATOM      5  C   UNL     1      -3.321   0.213  -2.289  0.00  0.00    +0.047 A 
ATOM      6  C   UNL     1      -3.196  -0.997  -2.944  0.00  0.00    +0.084 A 
ATOM      7 CL   UNL     1      -4.582  -1.725  -3.695  0.00  0.00    -0.080 Cl
ENDROOT
BRANCH   4   8
ATOM      8  N   UNL     1      -2.336   2.026  -1.033  0.00  0.00    -0.250 N 
ATOM      9  C   UNL     1      -2.215   2.116   0.334  0.00  0.00    +0.189 C 
ATOM     10  N   UNL     1      -1.764   3.243   0.855  0.00  0.00    -0.187 NA
ATOM     11  C   UNL     1      -1.443   4.286   0.071  0.00  0.00    +0.191 C 
ATOM     12  N   UNL     1      -1.796   4.341  -1.186  0.00  0.00    -0.337 N 
ATOM     13  C   UNL     1      -2.602   3.267  -1.778  0.00  0.00    +0.109 C 
ATOM     14  C   UNL     1      -2.215   3.081  -3.246  0.00  0.00    +0.056 C 
ATOM     15  C   UNL     1      -4.087   3.621  -1.676  0.00  0.00    +0.056 C 
ATOM     16  N   UNL     1      -0.725   5.334   0.611  0.00  0.00    -0.329 N 
ATOM     17  N   UNL     1      -2.560   1.065   1.136  0.00  0.00    -0.331 N 
ATOM     18  H   UNL     1      -0.454   6.196  -0.016  0.00  0.00    +0.145 HD
ATOM     19  H   UNL     1      -0.423   5.307   1.668  0.00  0.00    +0.145 HD
ATOM     20  H   UNL     1      -2.458   1.150   2.228  0.00  0.00    +0.145 HD
ATOM     21  H   UNL     1      -2.939   0.133   0.690  0.00  0.00    +0.145 HD
ATOM     22  H   UNL     1      -1.489   5.196  -1.806  0.00  0.00    +0.164 HD
ENDBRANCH   4   8
BRANCH   1  23
ATOM     23  O   UNL     1      -1.843  -2.828  -3.635  0.00  0.00    -0.486 OA
BRANCH  23  24
ATOM     24  C   UNL     1      -0.545  -3.427  -3.651  0.00  0.00    +0.264 C 
BRANCH  24  29
ATOM     25  C   UNL     1      -0.936  -7.113  -4.413  0.00  0.00    +0.037 A 
ATOM     26  C   UNL     1      -0.707  -7.132  -5.790  0.00  0.00    +0.013 A 
ATOM     27  C   UNL     1      -0.430  -5.956  -6.456  0.00  0.00    +0.001 A 
ATOM     28  C   UNL     1      -0.378  -4.760  -5.762  0.00  0.00    +0.007 A 
ATOM     29  C   UNL     1      -0.604  -4.734  -4.398  0.00  0.00    -0.010 A 
ATOM     30  C   UNL     1      -0.877  -5.904  -3.719  0.00  0.00    +0.020 A 
BRANCH  25  32
ATOM     31  N   UNL     1      -0.734  -8.573  -2.458  0.00  0.00    -0.298 N 
ATOM     32  C   UNL     1      -1.234  -8.369  -3.693  0.00  0.00    +0.247 C 
ATOM     33  O   UNL     1      -1.930  -9.218  -4.214  0.00  0.00    -0.270 OA
BRANCH  31  35
ATOM     34  C   UNL     1      -0.074 -10.889  -2.030  0.00  0.00    +0.024 C 
ATOM     35  C   UNL     1      -1.087  -9.785  -1.715  0.00  0.00    +0.104 C 
ENDBRANCH  31  35
BRANCH  31  36
ATOM     36  C   UNL     1       0.164  -7.582  -1.859  0.00  0.00    +0.104 C 
ATOM     37  C   UNL     1      -0.610  -6.744  -0.839  0.00  0.00    +0.024 C 
ENDBRANCH  31  36
ENDBRANCH  25  32
ENDBRANCH  24  29
ENDBRANCH  23  24
ENDBRANCH   1  23
TORSDOF 7
