REMARK  Name = ZINC19910167
REMARK  7 active torsions:
REMARK  status: ('A' for Active; 'I' for Inactive)
REMARK    1  A    between atoms: C_1  and  C_2
REMARK    2  A    between atoms: C_7  and  C_22
REMARK    3  A    between atoms: C_9  and  N_10
REMARK    4  A    between atoms: N_10  and  C_11
REMARK    5  A    between atoms: C_11  and  C_12
REMARK    6  A    between atoms: C_15  and  S_18
REMARK    7  A    between atoms: S_18  and  N_21
REMARK                            x       y       z     vdW  Elec       q    Type
REMARK                         _______ _______ _______ _____ _____    ______ ____
ROOT
ATOM      1  C   UNL     1      -3.132   3.072   4.905  0.00  0.00    -0.046 C 
ENDROOT
BRANCH   1   2
ATOM      2  C   UNL     1      -2.354   2.659   3.683  0.00  0.00    -0.064 A 
ATOM      3  C   UNL     1      -2.559   1.412   3.122  0.00  0.00    +0.003 A 
ATOM      4  C   UNL     1      -1.846   1.033   2.000  0.00  0.00    +0.029 A 
ATOM      5  C   UNL     1      -0.927   1.900   1.439  0.00  0.00    +0.105 A 
ATOM      6  C   UNL     1      -0.717   3.145   2.004  0.00  0.00    +0.029 A 
ATOM      7  C   UNL     1      -1.434   3.526   3.123  0.00  0.00    +0.003 A 
BRANCH   5   8
ATOM      8  S   UNL     1      -0.017   1.417   0.010  0.00  0.00    +0.056 S 
ATOM      9  O   UNL     1       0.002  -0.004   0.002  0.00  0.00    -0.153 OA
ATOM     10  O   UNL     1       1.172   2.195   0.003  0.00  0.00    -0.153 OA
BRANCH   8  11
ATOM     11  N   UNL     1      -0.897   1.885  -1.312  0.00  0.00    -0.204 NA
ATOM     12  H   UNL     1      -0.361   1.601  -2.229  0.00  0.00    +0.144 HD
ATOM     13  H   UNL     1      -1.036   2.977  -1.292  0.00  0.00    +0.144 HD
ENDBRANCH   8  11
ENDBRANCH   5   8
ENDBRANCH   1   2
BRANCH   1  14
ATOM     14  N   UNL     1      -2.392   2.679   6.112  0.00  0.00    +0.384 N 
ATOM     15  H   UNL     1      -1.410   3.173   6.101  0.00  0.00    -0.085 HD
ATOM     16  H   UNL     1      -2.253   1.587   6.101  0.00  0.00    -0.085 HD
BRANCH  14  23
ATOM     17  C   UNL     1      -1.288   4.656   7.921  0.00  0.00    +0.006 C 
ATOM     18  C   UNL     1      -2.793   4.519   7.678  0.00  0.00    -0.028 C 
ATOM     19  C   UNL     1      -3.553   4.923   8.943  0.00  0.00    +0.002 C 
ATOM     20  C   UNL     1      -3.139   4.012  10.100  0.00  0.00    +0.000 C 
ATOM     21  C   UNL     1      -3.468   2.559   9.748  0.00  0.00    +0.002 C 
ATOM     22  C   UNL     1      -2.708   2.155   8.484  0.00  0.00    -0.028 C 
ATOM     23  C   UNL     1      -3.122   3.067   7.327  0.00  0.00    -0.066 C 
ATOM     24  C   UNL     1      -3.038   0.703   8.133  0.00  0.00    +0.006 C 
ENDBRANCH  14  23
ENDBRANCH   1  14
TORSDOF 5
