REMARK  Name = ZINC36331882
REMARK  4 active torsions:
REMARK  status: ('A' for Active; 'I' for Inactive)
REMARK    1  A    between atoms: C_6  and  N_7
REMARK    2  A    between atoms: C_8  and  C_10
REMARK    3  A    between atoms: C_10  and  N_11
REMARK    4  A    between atoms: N_11  and  C_12
REMARK                            x       y       z     vdW  Elec       q    Type
REMARK                         _______ _______ _______ _____ _____    ______ ____
ROOT
ATOM      1  C   UNL     1      -2.478  -2.828  -0.204  0.00  0.00    +0.015 C 
ENDROOT
BRANCH   1   3
ATOM      2  N   UNL     1      -1.200  -0.722   0.010  0.00  0.00    -0.287 N 
ATOM      3  C   UNL     1      -1.183  -2.065  -0.099  0.00  0.00    +0.200 C 
ATOM      4  O   UNL     1      -0.126  -2.659  -0.113  0.00  0.00    -0.278 OA
ATOM      5  H   UNL     1      -2.044  -0.252   0.098  0.00  0.00    +0.155 HD
BRANCH   2  11
ATOM      6  C   UNL     1       1.072  -0.453  -0.766  0.00  0.00    +0.024 A 
ATOM      7  C   UNL     1       2.256   0.258  -0.778  0.00  0.00    +0.017 A 
ATOM      8  C   UNL     1       2.377   1.416  -0.032  0.00  0.00    +0.018 A 
ATOM      9  C   UNL     1       1.312   1.866   0.729  0.00  0.00    +0.017 A 
ATOM     10  C   UNL     1       0.126   1.159   0.745  0.00  0.00    +0.024 A 
ATOM     11  C   UNL     1       0.002  -0.004  -0.004  0.00  0.00    +0.033 A 
ATOM     12 BR   UNL     1       4.000   2.387  -0.051  0.00  0.00    -0.050 Br
ENDBRANCH   2  11
ENDBRANCH   1   3
BRANCH   1  13
ATOM     13  N   UNL     1      -2.192  -4.265  -0.312  0.00  0.00    +0.387 N 
ATOM     14  H   UNL     1      -1.634  -4.436  -1.134  0.00  0.00    -0.085 HD
ATOM     15  H   UNL     1      -1.688  -4.570   0.507  0.00  0.00    -0.085 HD
BRANCH  13  16
ATOM     16  C   UNL     1      -3.455  -5.009  -0.414  0.00  0.00    -0.068 C 
ATOM     17  C   UNL     1      -4.254  -4.822   0.873  0.00  0.00    +0.007 C 
ATOM     18  C   UNL     1      -5.676  -5.359   0.688  0.00  0.00    +0.164 C 
ATOM     19  S   UNL     1      -5.593  -7.146   0.371  0.00  0.00    -0.031 S 
ATOM     20  O   UNL     1      -4.993  -7.777   1.494  0.00  0.00    -0.174 OA
ATOM     21  O   UNL     1      -6.870  -7.587  -0.071  0.00  0.00    -0.174 OA
ATOM     22  C   UNL     1      -4.434  -7.230  -1.026  0.00  0.00    +0.164 C 
ATOM     23  C   UNL     1      -3.150  -6.485  -0.650  0.00  0.00    +0.007 C 
ENDBRANCH  13  16
ENDBRANCH   1  13
TORSDOF 4
