REMARK  Name = ZINC43528236
REMARK  6 active torsions:
REMARK  status: ('A' for Active; 'I' for Inactive)
REMARK    1  A    between atoms: C_1  and  C_2
REMARK    2  A    between atoms: C_2  and  C_4
REMARK    3  A    between atoms: C_2  and  N_14
REMARK    4  A    between atoms: C_7  and  S_10
REMARK    5  A    between atoms: S_10  and  N_13
REMARK    6  A    between atoms: N_17  and  C_18
REMARK                            x       y       z     vdW  Elec       q    Type
REMARK                         _______ _______ _______ _____ _____    ______ ____
ROOT
ATOM      1  C   UNL     1      -0.023   1.502  -0.007  0.00  0.00    +0.033 C 
ATOM      2  C   UNL     1      -0.005  -0.028  -0.004  0.00  0.00    +0.102 C 
ENDROOT
BRANCH   2   3
ATOM      3  C   UNL     1       0.695  -0.525  -1.242  0.00  0.00    -0.027 A 
ATOM      4  C   UNL     1       2.076  -0.549  -1.292  0.00  0.00    +0.007 A 
ATOM      5  C   UNL     1       2.719  -1.005  -2.428  0.00  0.00    +0.029 A 
ATOM      6  C   UNL     1       1.981  -1.437  -3.514  0.00  0.00    +0.105 A 
ATOM      7  C   UNL     1       0.599  -1.414  -3.463  0.00  0.00    +0.029 A 
ATOM      8  C   UNL     1      -0.043  -0.962  -2.326  0.00  0.00    +0.007 A 
BRANCH   6   9
ATOM      9  S   UNL     1       2.800  -2.017  -4.962  0.00  0.00    +0.056 S 
ATOM     10  O   UNL     1       1.887  -1.852  -6.038  0.00  0.00    -0.153 OA
ATOM     11  O   UNL     1       4.092  -1.426  -4.961  0.00  0.00    -0.153 OA
BRANCH   9  12
ATOM     12  N   UNL     1       3.025  -3.647  -4.778  0.00  0.00    -0.204 NA
ATOM     13  H   UNL     1       3.042  -4.225  -5.556  0.00  0.00    +0.144 HD
ATOM     14  H   UNL     1       3.139  -4.024  -3.891  0.00  0.00    +0.144 HD
ENDBRANCH   9  12
ENDBRANCH   6   9
ENDBRANCH   2   3
BRANCH   2  15
ATOM     15  N   UNL     1       0.705  -0.506   1.185  0.00  0.00    -0.293 N 
ATOM     16  C   UNL     1       0.049  -0.640   2.354  0.00  0.00    +0.304 C 
ATOM     17  O   UNL     1      -1.133  -0.364   2.423  0.00  0.00    -0.252 OA
ATOM     18  N   UNL     1       0.703  -1.080   3.447  0.00  0.00    -0.267 N 
ATOM     19  H   UNL     1       1.649  -0.726   1.130  0.00  0.00    +0.151 HD
ATOM     20  H   UNL     1       1.629  -1.361   3.378  0.00  0.00    +0.156 HD
BRANCH  18  21
ATOM     21  C   UNL     1       0.046  -1.131   4.683  0.00  0.00    +0.072 A 
ATOM     22  C   UNL     1      -1.305  -1.442   4.740  0.00  0.00    +0.046 A 
ATOM     23  C   UNL     1      -1.951  -1.491   5.962  0.00  0.00    +0.043 A 
ATOM     24  C   UNL     1      -1.252  -1.230   7.127  0.00  0.00    +0.023 A 
ATOM     25  C   UNL     1       0.094  -0.920   7.074  0.00  0.00    +0.041 A 
ATOM     26  C   UNL     1       0.748  -0.875   5.856  0.00  0.00    +0.145 A 
ATOM     27  F   UNL     1       2.064  -0.578   5.806  0.00  0.00    -0.204 F 
ATOM     28 CL   UNL     1      -3.642  -1.879   6.034  0.00  0.00    -0.083 Cl
ENDBRANCH  18  21
ENDBRANCH   2  15
TORSDOF 5
