REMARK  Name = ZINC14939359
REMARK  8 active torsions:
REMARK  status: ('A' for Active; 'I' for Inactive)
REMARK    1  A    between atoms: C_1  and  C_2
REMARK    2  A    between atoms: C_2  and  C_3
REMARK    3  A    between atoms: C_2  and  N_61
REMARK    4  A    between atoms: C_6  and  N_9
REMARK    5  A    between atoms: C_10  and  C_12
REMARK    6  A    between atoms: N_15  and  S_18
REMARK    7  A    between atoms: S_18  and  C_21
REMARK    8  A    between atoms: C_25  and  C_27
REMARK                            x       y       z     vdW  Elec       q    Type
REMARK                         _______ _______ _______ _____ _____    ______ ____
ROOT
ATOM      1  C   UNL     1       2.171   1.366  -1.189  0.00  0.00    +0.077 C 
ATOM      2  C   UNL     1       1.426   1.978  -0.001  0.00  0.00    +0.030 C 
ATOM      3  C   UNL     1      -0.018   1.465   0.010  0.00  0.00    +0.110 C 
ATOM      4  N   UNL     1       0.002  -0.004   0.002  0.00  0.00    -0.177 NA
ATOM      5  C   UNL     1       0.766  -0.695  -1.046  0.00  0.00    +0.110 C 
ATOM      6  C   UNL     1       2.201  -0.158  -1.045  0.00  0.00    +0.030 C 
ENDROOT
BRANCH   1   8
ATOM      7  N   UNL     1       3.803   3.218  -1.345  0.00  0.00    -0.312 N 
ATOM      8  C   UNL     1       3.582   1.895  -1.223  0.00  0.00    +0.216 C 
ATOM      9  O   UNL     1       4.519   1.129  -1.140  0.00  0.00    -0.276 OA
ATOM     10  H   UNL     1       3.054   3.831  -1.411  0.00  0.00    +0.149 HD
BRANCH   7  13
ATOM     11  C   UNL     1       6.624   5.636  -2.092  0.00  0.00    -0.077 C 
ATOM     12  C   UNL     1       5.200   5.075  -2.114  0.00  0.00    +0.003 C 
ATOM     13  C   UNL     1       5.174   3.732  -1.378  0.00  0.00    +0.069 C 
ATOM     14  C   UNL     1       5.680   3.932   0.053  0.00  0.00    +0.003 C 
ATOM     15  C   UNL     1       7.089   4.528   0.012  0.00  0.00    -0.077 C 
ATOM     16  N   UNL     1       7.042   5.829  -0.687  0.00  0.00    +0.381 N 
ATOM     17  H   UNL     1       6.359   6.435  -0.217  0.00  0.00    -0.081 HD
BRANCH  16  19
ATOM     18  C   UNL     1       8.790   6.641   0.821  0.00  0.00    -0.014 C 
ATOM     19  C   UNL     1       8.369   6.476  -0.640  0.00  0.00    -0.075 C 
ATOM     20  C   UNL     1       9.408   5.628  -1.377  0.00  0.00    -0.014 C 
ENDBRANCH  16  19
ENDBRANCH   7  13
ENDBRANCH   1   8
BRANCH   4  21
ATOM     21  S   UNL     1      -0.820  -0.865   1.153  0.00  0.00    +0.061 S 
ATOM     22  O   UNL     1      -0.190  -2.136   1.237  0.00  0.00    -0.153 OA
ATOM     23  O   UNL     1      -0.961  -0.009   2.278  0.00  0.00    -0.153 OA
BRANCH  21  24
ATOM     24  C   UNL     1      -2.444  -1.149   0.529  0.00  0.00    +0.106 A 
ATOM     25  C   UNL     1      -3.453  -0.241   0.790  0.00  0.00    +0.030 A 
ATOM     26  C   UNL     1      -4.725  -0.460   0.297  0.00  0.00    +0.022 A 
ATOM     27  C   UNL     1      -4.992  -1.595  -0.449  0.00  0.00    +0.053 A 
ATOM     28  C   UNL     1      -3.983  -2.507  -0.704  0.00  0.00    +0.075 A 
ATOM     29  C   UNL     1      -2.709  -2.283  -0.215  0.00  0.00    +0.042 A 
ATOM     30 CL   UNL     1      -6.591  -1.875  -1.063  0.00  0.00    -0.083 Cl
BRANCH  28  31
ATOM     31  C   UNL     1      -4.272  -3.743  -1.516  0.00  0.00    +0.419 C 
ATOM     32  F   UNL     1      -3.105  -4.504  -1.639  0.00  0.00    -0.166 F 
ATOM     33  F   UNL     1      -5.258  -4.501  -0.876  0.00  0.00    -0.166 F 
ATOM     34  F   UNL     1      -4.722  -3.370  -2.788  0.00  0.00    -0.166 F 
ENDBRANCH  28  31
ENDBRANCH  21  24
ENDBRANCH   4  21
TORSDOF 6
