REMARK  Name = ZINC06817251
REMARK  5 active torsions:
REMARK  status: ('A' for Active; 'I' for Inactive)
REMARK    1  A    between atoms: C_1  and  C_2
REMARK    2  A    between atoms: C_7  and  N_8
REMARK    3  A    between atoms: N_8  and  S_9
REMARK    4  A    between atoms: S_9  and  C_12
REMARK    5  A    between atoms: C_21  and  C_26
REMARK                            x       y       z     vdW  Elec       q    Type
REMARK                         _______ _______ _______ _____ _____    ______ ____
ROOT
ATOM      1  C   UNL     1      -4.459  -0.956   0.887  0.00  0.00    +0.110 A 
ATOM      2  C   UNL     1      -4.490  -0.865  -0.493  0.00  0.00    +0.031 A 
ATOM      3  C   UNL     1      -3.753   0.108  -1.133  0.00  0.00    +0.027 A 
ATOM      4  C   UNL     1      -2.972   1.008  -0.403  0.00  0.00    +0.055 A 
ATOM      5  C   UNL     1      -2.940   0.916   0.979  0.00  0.00    +0.057 A 
ATOM      6  C   UNL     1      -3.691  -0.074   1.617  0.00  0.00    +0.054 A 
ATOM      7  N   UNL     1      -2.195   1.762   1.794  0.00  0.00    -0.283 N 
ATOM      8  C   UNL     1      -0.957   2.183   1.548  0.00  0.00    +0.229 C 
ATOM      9  O   UNL     1      -0.397   2.891   2.358  0.00  0.00    -0.275 OA
ATOM     10  C   UNL     1      -0.237   1.796   0.282  0.00  0.00    +0.158 C 
ATOM     11  C   UNL     1      -1.011   2.345  -0.889  0.00  0.00    +0.229 C 
ATOM     12  O   UNL     1      -0.485   3.156  -1.622  0.00  0.00    -0.275 OA
ATOM     13  N   UNL     1      -2.261   1.957  -1.132  0.00  0.00    -0.283 N 
ATOM     14  C   UNL     1      -0.159   0.271   0.179  0.00  0.00    +0.027 C 
ATOM     15  H   UNL     1      -2.615   2.073   2.611  0.00  0.00    +0.155 HD
ATOM     16  H   UNL     1      -2.716   2.372  -1.881  0.00  0.00    +0.155 HD
ENDROOT
BRANCH   1  17
ATOM     17  S   UNL     1      -5.399  -2.198   1.710  0.00  0.00    +0.072 S 
ATOM     18  O   UNL     1      -5.626  -1.727   3.031  0.00  0.00    -0.150 OA
ATOM     19  O   UNL     1      -6.460  -2.552   0.834  0.00  0.00    -0.150 OA
BRANCH  17  20
ATOM     20  N   UNL     1      -4.432  -3.536   1.845  0.00  0.00    -0.216 N 
ATOM     21  H   UNL     1      -4.699  -4.371   1.432  0.00  0.00    +0.174 HD
BRANCH  20  28
ATOM     22  C   UNL     1      -2.220  -5.058   0.905  0.00  0.00    +0.046 C 
ATOM     23  C   UNL     1      -2.125  -4.187   2.131  0.00  0.00    -0.025 A 
ATOM     24  C   UNL     1      -0.936  -4.106   2.831  0.00  0.00    +0.043 A 
ATOM     25  C   UNL     1      -0.850  -3.311   3.961  0.00  0.00    +0.124 A 
ATOM     26  C   UNL     1      -1.952  -2.590   4.389  0.00  0.00    +0.040 A 
ATOM     27  C   UNL     1      -3.141  -2.663   3.690  0.00  0.00    +0.027 A 
ATOM     28  C   UNL     1      -3.230  -3.460   2.555  0.00  0.00    +0.051 A 
ATOM     29  F   UNL     1       0.312  -3.237   4.647  0.00  0.00    -0.205 F 
ENDBRANCH  20  28
ENDBRANCH  17  20
ENDBRANCH   1  17
TORSDOF 3
