REMARK  Name = ZINC16449575
REMARK  6 active torsions:
REMARK  status: ('A' for Active; 'I' for Inactive)
REMARK    1  A    between atoms: C_4  and  N_36
REMARK    2  A    between atoms: C_5  and  C_7
REMARK    3  A    between atoms: C_7  and  N_8
REMARK    4  A    between atoms: N_17  and  C_26
REMARK    5  A    between atoms: C_26  and  C_27
REMARK    6  A    between atoms: C_32  and  N_33
REMARK                            x       y       z     vdW  Elec       q    Type
REMARK                         _______ _______ _______ _____ _____    ______ ____
ROOT
ATOM      1  N   UNL     1       2.292   5.130   1.346  0.00  0.00    +0.385 N 
ATOM      2  C   UNL     1       1.312   6.003   2.005  0.00  0.00    -0.050 C 
ATOM      3  C   UNL     1       0.320   5.150   2.798  0.00  0.00    +0.141 C 
ATOM      4  O   UNL     1       0.325   5.562   4.166  0.00  0.00    -0.379 OA
ATOM      5  C   UNL     1      -0.312   4.640   5.053  0.00  0.00    +0.187 C 
ATOM      6  C   UNL     1       0.206   4.860   6.476  0.00  0.00    +0.188 C 
ATOM      7  O   UNL     1       1.074   3.784   6.838  0.00  0.00    -0.376 OA
ATOM      8  C   UNL     1       1.645   3.912   8.142  0.00  0.00    +0.175 C 
ATOM      9  C   UNL     1       2.803   2.924   8.292  0.00  0.00    +0.113 C 
ATOM     10  N   UNL     1       4.078   3.635   8.130  0.00  0.00    -0.294 NA
ATOM     11  C   UNL     1       5.149   2.712   7.732  0.00  0.00    +0.113 C 
ATOM     12  C   UNL     1       6.170   3.457   6.870  0.00  0.00    +0.175 C 
ATOM     13  O   UNL     1       5.885   3.230   5.489  0.00  0.00    -0.376 OA
ATOM     14  C   UNL     1       6.608   4.082   4.598  0.00  0.00    +0.188 C 
ATOM     15  C   UNL     1       6.177   3.798   3.158  0.00  0.00    +0.187 C 
ATOM     16  O   UNL     1       5.502   4.941   2.628  0.00  0.00    -0.379 OA
ATOM     17  C   UNL     1       4.691   4.659   1.486  0.00  0.00    +0.141 C 
ATOM     18  C   UNL     1       3.625   5.746   1.337  0.00  0.00    -0.050 C 
ATOM     19  H   UNL     1       2.355   4.196   1.924  0.00  0.00    -0.081 HD
ENDROOT
BRANCH   1  20
ATOM     20  C   UNL     1       1.860   4.788  -0.017  0.00  0.00    -0.041 C 
BRANCH  20  25
ATOM     21  C   UNL     1      -1.852   4.122  -0.180  0.00  0.00    +0.000 A 
ATOM     22  C   UNL     1      -1.906   2.780   0.149  0.00  0.00    +0.002 A 
ATOM     23  C   UNL     1      -0.741   2.086   0.414  0.00  0.00    +0.033 A 
ATOM     24  C   UNL     1       0.478   2.736   0.362  0.00  0.00    +0.128 A 
ATOM     25  C   UNL     1       0.532   4.079   0.040  0.00  0.00    -0.034 A 
ATOM     26  C   UNL     1      -0.633   4.772  -0.231  0.00  0.00    +0.004 A 
BRANCH  24  27
ATOM     27  N   UNL     1       1.726   1.994   0.652  0.00  0.00    +0.057 N 
ATOM     28  O   UNL     1       1.690   0.791   0.838  0.00  0.00    -0.126 OA
ATOM     29  O   UNL     1       2.789   2.587   0.704  0.00  0.00    -0.126 OA
ENDBRANCH  24  27
ENDBRANCH  20  25
ENDBRANCH   1  20
BRANCH  10  30
ATOM     30  C   UNL     1       4.436   4.359   9.357  0.00  0.00    +0.122 C 
BRANCH  30  31
ATOM     31  C   UNL     1       5.693   5.156   9.122  0.00  0.00    -0.003 A 
ATOM     32  C   UNL     1       6.910   4.677   9.570  0.00  0.00    +0.007 A 
ATOM     33  C   UNL     1       8.063   5.407   9.350  0.00  0.00    +0.000 A 
ATOM     34  C   UNL     1       7.998   6.620   8.690  0.00  0.00    +0.002 A 
ATOM     35  C   UNL     1       6.781   7.101   8.246  0.00  0.00    +0.033 A 
ATOM     36  C   UNL     1       5.628   6.369   8.463  0.00  0.00    +0.131 A 
BRANCH  36  37
ATOM     37  N   UNL     1       4.324   6.885   7.987  0.00  0.00    +0.057 N 
ATOM     38  O   UNL     1       4.280   7.893   7.306  0.00  0.00    -0.126 OA
ATOM     39  O   UNL     1       3.296   6.300   8.279  0.00  0.00    -0.126 OA
ENDBRANCH  36  37
ENDBRANCH  30  31
ENDBRANCH  10  30
TORSDOF 6
