REMARK  Name = ZINC63446238
REMARK  6 active torsions:
REMARK  status: ('A' for Active; 'I' for Inactive)
REMARK    1  A    between atoms: C_1  and  C_2
REMARK    2  A    between atoms: C_2  and  O_3
REMARK    3  A    between atoms: O_3  and  C_4
REMARK    4  A    between atoms: C_4  and  C_6
REMARK    5  A    between atoms: C_9  and  N_12
REMARK    6  A    between atoms: C_28  and  C_33
REMARK                            x       y       z     vdW  Elec       q    Type
REMARK                         _______ _______ _______ _____ _____    ______ ____
ROOT
ATOM      1  N   UNL     1       3.369  -3.896  -5.887  0.00  0.00    -0.220 N 
ATOM      2  C   UNL     1       3.598  -5.210  -6.091  0.00  0.00    +0.246 C 
ATOM      3  O   UNL     1       3.322  -6.125  -5.346  0.00  0.00    -0.273 OA
ATOM      4  C   UNL     1       4.269  -5.303  -7.444  0.00  0.00    +0.167 C 
ATOM      5  C   UNL     1       5.652  -5.960  -7.297  0.00  0.00    +0.065 C 
ATOM      6  C   UNL     1       6.479  -5.485  -8.469  0.00  0.00    -0.034 C 
ATOM      7  C   UNL     1       7.769  -5.644  -8.741  0.00  0.00    -0.001 A 
ATOM      8  C   UNL     1       8.826  -6.406  -8.056  0.00  0.00    +0.010 A 
ATOM      9  C   UNL     1      10.067  -6.337  -8.607  0.00  0.00    +0.001 A 
ATOM     10  C   UNL     1      10.358  -5.595  -9.755  0.00  0.00    +0.002 A 
ATOM     11  C   UNL     1       9.447  -4.870 -10.452  0.00  0.00    +0.026 A 
ATOM     12  C   UNL     1       8.104  -4.870  -9.974  0.00  0.00    +0.043 A 
ATOM     13  N   UNL     1       7.043  -4.289 -10.448  0.00  0.00    -0.375 N 
ATOM     14  C   UNL     1       5.899  -4.660  -9.612  0.00  0.00    +0.131 C 
ATOM     15  C   UNL     1       5.235  -3.427  -8.986  0.00  0.00    +0.132 C 
ATOM     16  N   UNL     1       4.449  -3.889  -7.830  0.00  0.00    -0.291 N 
ATOM     17  C   UNL     1       3.828  -3.150  -6.902  0.00  0.00    +0.148 C 
ATOM     18  S   UNL     1       3.647  -1.450  -6.997  0.00  0.00    -0.018 S 
ATOM     19  H   UNL     1       7.013  -3.706 -11.223  0.00  0.00    +0.160 HD
ENDROOT
BRANCH  15  20
ATOM     20  C   UNL     1       6.289  -2.441  -8.553  0.00  0.00    -0.025 A 
ATOM     21  C   UNL     1       6.970  -2.634  -7.365  0.00  0.00    +0.008 A 
ATOM     22  C   UNL     1       7.937  -1.731  -6.967  0.00  0.00    +0.038 A 
ATOM     23  C   UNL     1       8.224  -0.632  -7.759  0.00  0.00    +0.123 A 
ATOM     24  C   UNL     1       7.542  -0.439  -8.948  0.00  0.00    +0.038 A 
ATOM     25  C   UNL     1       6.579  -1.347  -9.347  0.00  0.00    +0.008 A 
ATOM     26  F   UNL     1       9.169   0.252  -7.370  0.00  0.00    -0.205 F 
ENDBRANCH  15  20
BRANCH   1  30
ATOM     27  C   UNL     1       1.455  -2.348  -2.523  0.00  0.00    +0.059 A 
ATOM     28  C   UNL     1       0.744  -3.133  -3.435  0.00  0.00    +0.017 A 
ATOM     29  C   UNL     1       1.379  -3.642  -4.545  0.00  0.00    +0.025 A 
ATOM     30  C   UNL     1       2.728  -3.376  -4.760  0.00  0.00    +0.043 A 
ATOM     31  C   UNL     1       3.439  -2.596  -3.855  0.00  0.00    +0.025 A 
ATOM     32  C   UNL     1       2.809  -2.079  -2.745  0.00  0.00    +0.017 A 
BRANCH  27  33
ATOM     33  C   UNL     1       0.778  -1.800  -1.333  0.00  0.00    +0.339 C 
ATOM     34  O   UNL     1       1.397  -1.114  -0.544  0.00  0.00    -0.245 OA
BRANCH  33  35
ATOM     35  O   UNL     1      -0.527  -2.061  -1.121  0.00  0.00    -0.461 OA
BRANCH  35  37
ATOM     36  C   UNL     1      -2.593  -1.900   0.123  0.00  0.00    +0.048 C 
ATOM     37  C   UNL     1      -1.118  -1.498   0.052  0.00  0.00    +0.229 C 
ENDBRANCH  35  37
ENDBRANCH  33  35
ENDBRANCH  27  33
ENDBRANCH   1  30
TORSDOF 5
