REMARK  Name = ZINC20228987
REMARK  8 active torsions:
REMARK  status: ('A' for Active; 'I' for Inactive)
REMARK    1  A    between atoms: C_4  and  N_10
REMARK    2  A    between atoms: C_5  and  C_7
REMARK    3  A    between atoms: C_11  and  C_13
REMARK    4  A    between atoms: C_16  and  O_19
REMARK    5  A    between atoms: O_19  and  C_20
REMARK    6  A    between atoms: C_20  and  C_21
REMARK    7  A    between atoms: C_21  and  C_22
REMARK    8  A    between atoms: C_22  and  N_23
REMARK                            x       y       z     vdW  Elec       q    Type
REMARK                         _______ _______ _______ _____ _____    ______ ____
ROOT
ATOM      1  N   UNL     1       2.410   1.775  -0.185  0.00  0.00    -0.281 N 
ATOM      2  C   UNL     1       3.486   2.587  -0.170  0.00  0.00    +0.248 C 
ATOM      3  O   UNL     1       3.345   3.779   0.021  0.00  0.00    -0.270 OA
ATOM      4  H   UNL     1       2.544   0.687  -0.277  0.00  0.00    +0.155 HD
ENDROOT
BRANCH   1   8
ATOM      5  C   UNL     1      -1.422   3.389   0.119  0.00  0.00    +0.001 A 
ATOM      6  C   UNL     1      -0.399   3.862   0.925  0.00  0.00    +0.002 A 
ATOM      7  C   UNL     1       0.871   3.330   0.826  0.00  0.00    +0.024 A 
ATOM      8  C   UNL     1       1.131   2.313  -0.084  0.00  0.00    +0.046 A 
ATOM      9  C   UNL     1       0.097   1.832  -0.900  0.00  0.00    +0.058 A 
ATOM     10  C   UNL     1      -1.181   2.385  -0.793  0.00  0.00    +0.015 A 
BRANCH   9  11
ATOM     11  C   UNL     1       0.359   0.752  -1.871  0.00  0.00    +0.243 C 
ATOM     12  O   UNL     1       1.475   0.279  -1.966  0.00  0.00    -0.270 OA
ATOM     13  N   UNL     1      -0.637   0.291  -2.652  0.00  0.00    -0.325 N 
ATOM     14  H   UNL     1      -0.442  -0.514  -3.375  0.00  0.00    +0.145 HD
ATOM     15  H   UNL     1      -1.647   0.719  -2.566  0.00  0.00    +0.145 HD
ENDBRANCH   9  11
ENDBRANCH   1   8
BRANCH   2  16
ATOM     16  C   UNL     1       4.835   2.029  -0.386  0.00  0.00    +0.037 A 
ATOM     17  C   UNL     1       5.000   0.657  -0.599  0.00  0.00    +0.016 A 
ATOM     18  C   UNL     1       6.260   0.141  -0.805  0.00  0.00    +0.046 A 
ATOM     19  C   UNL     1       7.368   0.980  -0.789  0.00  0.00    +0.121 A 
ATOM     20  C   UNL     1       7.208   2.344  -0.572  0.00  0.00    +0.046 A 
ATOM     21  C   UNL     1       5.951   2.869  -0.371  0.00  0.00    +0.016 A 
BRANCH  19  22
ATOM     22  O   UNL     1       8.608   0.467  -0.986  0.00  0.00    -0.492 OA
BRANCH  22  23
ATOM     23  C   UNL     1       8.700  -0.943  -1.203  0.00  0.00    +0.227 C 
BRANCH  23  24
ATOM     24  C   UNL     1      10.165  -1.333  -1.404  0.00  0.00    +0.021 C 
BRANCH  24  25
ATOM     25  C   UNL     1      10.264  -2.842  -1.637  0.00  0.00    -0.083 C 
BRANCH  25  26
ATOM     26  N   UNL     1      11.671  -3.217  -1.830  0.00  0.00    +0.378 N 
ATOM     27  H   UNL     1      11.741  -4.302  -1.997  0.00  0.00    -0.090 HD
ATOM     28  H   UNL     1      12.249  -2.946  -0.934  0.00  0.00    -0.090 HD
ATOM     29  H   UNL     1      12.076  -2.685  -2.703  0.00  0.00    -0.090 HD
ENDBRANCH  25  26
ENDBRANCH  24  25
ENDBRANCH  23  24
ENDBRANCH  22  23
ENDBRANCH  19  22
ENDBRANCH   2  16
TORSDOF 8
