REMARK  Name = ZINC18006614
REMARK  9 active torsions:
REMARK  status: ('A' for Active; 'I' for Inactive)
REMARK    1  A    between atoms: C_1  and  C_2
REMARK    2  A    between atoms: C_2  and  C_24
REMARK    3  A    between atoms: N_3  and  N_4
REMARK    4  A    between atoms: C_5  and  S_7
REMARK    5  A    between atoms: S_7  and  C_8
REMARK    6  A    between atoms: N_13  and  C_16
REMARK    7  A    between atoms: C_19  and  O_22
REMARK    8  A    between atoms: O_22  and  C_23
REMARK    9  A    between atoms: C_29  and  O_30
REMARK                            x       y       z     vdW  Elec       q    Type
REMARK                         _______ _______ _______ _____ _____    ______ ____
ROOT
ATOM      1  N   UNL     1      -0.326   0.906   2.602  0.00  0.00    -0.217 N 
ATOM      2  C   UNL     1      -0.244  -0.001   3.635  0.00  0.00    +0.146 C 
ATOM      3  N   UNL     1      -0.301  -1.280   3.386  0.00  0.00    -0.380 N 
ATOM      4  H   UNL     1      -0.283   1.857   2.788  0.00  0.00    +0.176 HD
ATOM      5  H   UNL     1      -0.243  -1.919   4.114  0.00  0.00    +0.158 HD
ATOM      6  H   UNL     1      -0.401  -1.593   2.473  0.00  0.00    +0.158 HD
ENDROOT
BRANCH   1   9
ATOM      7  C   UNL     1      -0.482   2.787   0.598  0.00  0.00    +0.068 C 
ATOM      8  C   UNL     1      -0.548   1.310   0.310  0.00  0.00    +0.067 C 
ATOM      9  N   UNL     1      -0.470   0.455   1.284  0.00  0.00    -0.185 NA
BRANCH   8  10
ATOM     10  C   UNL     1      -0.700   0.835  -1.077  0.00  0.00    +0.039 A 
ATOM     11  C   UNL     1      -0.778   1.751  -2.128  0.00  0.00    +0.013 A 
ATOM     12  C   UNL     1      -0.920   1.300  -3.424  0.00  0.00    +0.001 A 
ATOM     13  C   UNL     1      -0.987  -0.057  -3.687  0.00  0.00    +0.004 A 
ATOM     14  C   UNL     1      -0.911  -0.974  -2.655  0.00  0.00    +0.046 A 
ATOM     15  C   UNL     1      -0.761  -0.539  -1.349  0.00  0.00    +0.126 A 
BRANCH  15  16
ATOM     16  O   UNL     1      -0.681  -1.439  -0.335  0.00  0.00    -0.506 OA
ATOM     17  H   UNL     1      -1.536  -1.678   0.048  0.00  0.00    +0.292 HD
ENDBRANCH  15  16
ENDBRANCH   8  10
ENDBRANCH   1   9
BRANCH   2  18
ATOM     18  S   UNL     1      -0.062   0.567   5.293  0.00  0.00    -0.078 S 
BRANCH  18  19
ATOM     19  C   UNL     1      -0.000  -0.958   6.275  0.00  0.00    +0.149 C 
ATOM     20  C   UNL     1       0.231  -0.635   7.765  0.00  0.00    +0.120 C 
ATOM     21  C   UNL     1      -1.008  -1.180   8.442  0.00  0.00    +0.228 C 
ATOM     22  O   UNL     1      -1.236  -1.134   9.632  0.00  0.00    -0.275 OA
ATOM     23  N   UNL     1      -1.813  -1.720   7.519  0.00  0.00    -0.209 N 
ATOM     24  C   UNL     1      -1.344  -1.653   6.263  0.00  0.00    +0.240 C 
ATOM     25  O   UNL     1      -1.906  -2.079   5.277  0.00  0.00    -0.274 OA
BRANCH  23  26
ATOM     26  C   UNL     1      -3.045  -2.311   7.838  0.00  0.00    +0.044 A 
ATOM     27  C   UNL     1      -3.219  -3.680   7.686  0.00  0.00    +0.027 A 
ATOM     28  C   UNL     1      -4.432  -4.261   8.000  0.00  0.00    +0.047 A 
ATOM     29  C   UNL     1      -5.476  -3.476   8.468  0.00  0.00    +0.120 A 
ATOM     30  C   UNL     1      -5.303  -2.108   8.620  0.00  0.00    +0.047 A 
ATOM     31  C   UNL     1      -4.089  -1.527   8.311  0.00  0.00    +0.027 A 
BRANCH  29  32
ATOM     32  O   UNL     1      -6.670  -4.049   8.778  0.00  0.00    -0.495 OA
ATOM     33  C   UNL     1      -7.701  -3.181   9.254  0.00  0.00    +0.277 C 
ENDBRANCH  29  32
ENDBRANCH  23  26
ENDBRANCH  18  19
ENDBRANCH   2  18
TORSDOF 7
