REMARK  Name = ZINC02955420
REMARK  13 active torsions:
REMARK  status: ('A' for Active; 'I' for Inactive)
REMARK    1  A    between atoms: C_1  and  C_2
REMARK    2  A    between atoms: C_5  and  O_35
REMARK    3  A    between atoms: C_6  and  N_8
REMARK    4  A    between atoms: C_9  and  C_11
REMARK    5  A    between atoms: C_14  and  C_33
REMARK    6  A    between atoms: C_17  and  C_32
REMARK    7  A    between atoms: N_21  and  C_22
REMARK    8  A    between atoms: C_24  and  O_30
REMARK    9  A    between atoms: C_26  and  O_28
REMARK   10  A    between atoms: O_28  and  C_29
REMARK   11  A    between atoms: O_30  and  C_31
REMARK   12  A    between atoms: C_33  and  O_34
REMARK   13  A    between atoms: O_35  and  C_36
REMARK                            x       y       z     vdW  Elec       q    Type
REMARK                         _______ _______ _______ _____ _____    ______ ____
ROOT
ATOM      1  C   UNL     1      -6.237   2.650   1.148  0.00  0.00    +0.098 A 
ATOM      2  C   UNL     1      -6.965   2.527  -0.015  0.00  0.00    +0.030 A 
ATOM      3  C   UNL     1      -8.385   2.883   0.042  0.00  0.00    +0.027 A 
ATOM      4  C   UNL     1      -9.269   2.553  -0.993  0.00  0.00    +0.007 A 
ATOM      5  C   UNL     1     -10.593   2.919  -0.867  0.00  0.00    +0.117 A 
ATOM      6  N   UNL     1     -11.026   3.565   0.200  0.00  0.00    -0.256 NA
ATOM      7  C   UNL     1     -10.234   3.899   1.198  0.00  0.00    +0.081 A 
ATOM      8  C   UNL     1      -8.885   3.575   1.161  0.00  0.00    +0.159 A 
ATOM      9  O   UNL     1      -8.049   3.911   2.171  0.00  0.00    -0.437 OA
ATOM     10  C   UNL     1      -6.955   3.123   2.349  0.00  0.00    +0.212 A 
ATOM     11  N   UNL     1      -6.544   2.793   3.554  0.00  0.00    -0.325 N 
ATOM     12  C   UNL     1     -10.795   4.637   2.386  0.00  0.00    +0.069 C 
ATOM     13  H   UNL     1      -5.706   2.092   3.677  0.00  0.00    +0.169 HD
ENDROOT
BRANCH  11  14
ATOM     14  C   UNL     1      -7.160   3.323   4.654  0.00  0.00    +0.049 A 
ATOM     15  C   UNL     1      -6.762   4.568   5.148  0.00  0.00    +0.071 A 
ATOM     16  C   UNL     1      -7.392   5.103   6.259  0.00  0.00    +0.126 A 
ATOM     17  C   UNL     1      -8.409   4.399   6.888  0.00  0.00    +0.091 A 
ATOM     18  C   UNL     1      -8.803   3.160   6.405  0.00  0.00    +0.126 A 
ATOM     19  C   UNL     1      -8.183   2.619   5.292  0.00  0.00    +0.071 A 
BRANCH  18  20
ATOM     20  O   UNL     1      -9.799   2.475   7.027  0.00  0.00    -0.495 OA
ATOM     21  C   UNL     1     -10.395   3.091   8.170  0.00  0.00    +0.277 C 
ENDBRANCH  18  20
BRANCH  16  22
ATOM     22  O   UNL     1      -7.010   6.316   6.737  0.00  0.00    -0.495 OA
ATOM     23  C   UNL     1      -7.698   6.806   7.889  0.00  0.00    +0.277 C 
ENDBRANCH  16  22
ENDBRANCH  11  14
BRANCH   1  25
ATOM     24  N   UNL     1      -4.115   2.449   2.345  0.00  0.00    -0.278 N 
ATOM     25  C   UNL     1      -4.801   2.318   1.193  0.00  0.00    +0.253 C 
ATOM     26  O   UNL     1      -4.236   1.926   0.190  0.00  0.00    -0.270 OA
ATOM     27  H   UNL     1      -4.641   2.734   3.269  0.00  0.00    +0.155 HD
BRANCH  24  33
ATOM     28  C   UNL     1      -0.207  -0.039   0.698  0.00  0.00    +0.044 C 
ATOM     29  C   UNL     1      -0.812   1.024   1.579  0.00  0.00    -0.048 A 
ATOM     30  C   UNL     1       0.000   1.776   2.409  0.00  0.00    +0.007 A 
ATOM     31  C   UNL     1      -0.548   2.753   3.219  0.00  0.00    +0.048 A 
ATOM     32  C   UNL     1      -1.915   2.980   3.202  0.00  0.00    +0.141 A 
ATOM     33  C   UNL     1      -2.733   2.223   2.367  0.00  0.00    +0.076 A 
ATOM     34  C   UNL     1      -2.175   1.249   1.552  0.00  0.00    +0.030 A 
BRANCH  32  35
ATOM     35  O   UNL     1      -2.455   3.941   3.999  0.00  0.00    -0.493 OA
ATOM     36  C   UNL     1      -1.556   4.678   4.829  0.00  0.00    +0.277 C 
ENDBRANCH  32  35
ENDBRANCH  24  33
ENDBRANCH   1  25
BRANCH   4  37
ATOM     37  C   UNL     1      -8.786   1.815  -2.214  0.00  0.00    +0.193 C 
BRANCH  37  38
ATOM     38  O   UNL     1      -9.881   1.605  -3.108  0.00  0.00    -0.390 OA
ATOM     39  H   UNL     1      -9.720   1.079  -4.061  0.00  0.00    +0.210 HD
ENDBRANCH  37  38
ENDBRANCH   4  37
TORSDOF 8
