REMARK  Name = ZINC35339799
REMARK  8 active torsions:
REMARK  status: ('A' for Active; 'I' for Inactive)
REMARK    1  A    between atoms: C_1  and  C_2
REMARK    2  A    between atoms: C_5  and  C_8
REMARK    3  A    between atoms: C_8  and  N_9
REMARK    4  A    between atoms: N_9  and  C_10
REMARK    5  A    between atoms: C_13  and  S_17
REMARK    6  A    between atoms: C_15  and  N_16
REMARK    7  A    between atoms: S_17  and  N_20
REMARK    8  A    between atoms: N_20  and  C_21
REMARK                            x       y       z     vdW  Elec       q    Type
REMARK                         _______ _______ _______ _____ _____    ______ ____
ROOT
ATOM      1  C   UNL     1       1.720  -6.119  -0.041  0.00  0.00    +0.048 A 
ATOM      2  C   UNL     1       0.680  -7.035  -0.046  0.00  0.00    +0.027 A 
ATOM      3  C   UNL     1       0.952  -8.391  -0.055  0.00  0.00    +0.030 A 
ATOM      4  C   UNL     1       2.261  -8.837  -0.059  0.00  0.00    +0.107 A 
ATOM      5  C   UNL     1       3.305  -7.930  -0.054  0.00  0.00    +0.053 A 
ATOM      6  C   UNL     1       3.041  -6.569  -0.051  0.00  0.00    +0.048 A 
ENDROOT
BRANCH   6   7
ATOM      7  N   UNL     1       4.096  -5.649  -0.051  0.00  0.00    -0.356 N 
ATOM      8  H   UNL     1       3.910  -4.697  -0.044  0.00  0.00    +0.142 HD
ATOM      9  H   UNL     1       5.014  -5.963  -0.058  0.00  0.00    +0.142 HD
ENDBRANCH   6   7
BRANCH   4  10
ATOM     10  S   UNL     1       2.599 -10.566  -0.071  0.00  0.00    +0.058 S 
ATOM     11  O   UNL     1       3.900 -10.729   0.477  0.00  0.00    -0.153 OA
ATOM     12  O   UNL     1       1.456 -11.207   0.477  0.00  0.00    -0.153 OA
BRANCH  10  13
ATOM     13  N   UNL     1       2.691 -11.037  -1.656  0.00  0.00    -0.193 NA
ATOM     14  C   UNL     1       3.762 -10.520  -2.512  0.00  0.00    +0.127 C 
ATOM     15  H   UNL     1       2.037 -11.654  -2.017  0.00  0.00    +0.148 HD
ENDBRANCH  10  13
ENDBRANCH   4  10
BRANCH   1  16
ATOM     16  N   UNL     1       1.447  -4.746  -0.032  0.00  0.00    -0.338 N 
ATOM     17  H   UNL     1       2.176  -4.106  -0.032  0.00  0.00    +0.146 HD
BRANCH  16  18
ATOM     18  C   UNL     1       0.059  -4.275  -0.021  0.00  0.00    +0.137 C 
BRANCH  18  23
ATOM     19  C   UNL     1      -0.018   1.503   0.010  0.00  0.00    +0.044 C 
ATOM     20  C   UNL     1       0.002  -0.004   0.002  0.00  0.00    -0.050 A 
ATOM     21  C   UNL     1       0.006  -0.689  -1.199  0.00  0.00    +0.003 A 
ATOM     22  C   UNL     1       0.025  -2.071  -1.206  0.00  0.00    +0.005 A 
ATOM     23  C   UNL     1       0.040  -2.768  -0.013  0.00  0.00    -0.030 A 
ATOM     24  C   UNL     1       0.037  -2.084   1.188  0.00  0.00    +0.005 A 
ATOM     25  C   UNL     1       0.023  -0.702   1.195  0.00  0.00    +0.003 A 
ENDBRANCH  18  23
ENDBRANCH  16  18
ENDBRANCH   1  16
TORSDOF 6
