REMARK  Name = ZINC14965164
REMARK  11 active torsions:
REMARK  status: ('A' for Active; 'I' for Inactive)
REMARK    1  A    between atoms: C_1  and  O_2
REMARK    2  A    between atoms: O_2  and  C_3
REMARK    3  A    between atoms: C_7  and  C_11
REMARK    4  A    between atoms: C_8  and  O_9
REMARK    5  A    between atoms: O_9  and  C_10
REMARK    6  A    between atoms: C_11  and  N_70
REMARK    7  A    between atoms: C_14  and  C_17
REMARK    8  A    between atoms: C_14  and  O_36
REMARK    9  A    between atoms: C_24  and  C_26
REMARK   10  A    between atoms: N_28  and  C_29
REMARK   11  A    between atoms: C_29  and  C_30
REMARK                            x       y       z     vdW  Elec       q    Type
REMARK                         _______ _______ _______ _____ _____    ______ ____
ROOT
ATOM      1  C   UNL     1       2.503   3.656  -2.009  0.00  0.00    -0.075 C 
ATOM      2  C   UNL     1       2.504   4.062  -3.484  0.00  0.00    +0.021 C 
ATOM      3  C   UNL     1       2.360   5.582  -3.590  0.00  0.00    +0.088 C 
ATOM      4  C   UNL     1       1.071   6.015  -2.886  0.00  0.00    +0.021 C 
ATOM      5  C   UNL     1       1.111   5.553  -1.428  0.00  0.00    -0.075 C 
ATOM      6  N   UNL     1       1.226   4.079  -1.395  0.00  0.00    +0.383 N 
ATOM      7  H   UNL     1       0.449   3.672  -1.929  0.00  0.00    -0.081 HD
ENDROOT
BRANCH   3   8
ATOM      8  C   UNL     1       2.300   5.983  -5.042  0.00  0.00    -0.015 A 
ATOM      9  C   UNL     1       1.074   6.042  -5.690  0.00  0.00    +0.010 A 
ATOM     10  C   UNL     1       0.995   6.411  -7.016  0.00  0.00    +0.047 A 
ATOM     11  C   UNL     1       2.155   6.718  -7.718  0.00  0.00    +0.136 A 
ATOM     12  C   UNL     1       3.395   6.651  -7.057  0.00  0.00    +0.021 A 
ATOM     13  C   UNL     1       3.453   6.280  -5.712  0.00  0.00    +0.018 A 
ATOM     14  C   UNL     1       4.397   7.025  -8.055  0.00  0.00    +0.063 A 
ATOM     15  C   UNL     1       3.711   7.280  -9.199  0.00  0.00    +0.190 A 
ATOM     16  O   UNL     1       2.391   7.096  -8.990  0.00  0.00    -0.450 OA
BRANCH  15  17
ATOM     17  C   UNL     1       4.316   7.694 -10.473  0.00  0.00    +0.279 C 
ATOM     18  O   UNL     1       5.521   7.832 -10.558  0.00  0.00    -0.267 OA
ATOM     19  N   UNL     1       3.534   7.920 -11.548  0.00  0.00    -0.306 N 
ATOM     20  H   UNL     1       2.573   7.809 -11.481  0.00  0.00    +0.149 HD
BRANCH  19  21
ATOM     21  C   UNL     1       4.137   8.331 -12.818  0.00  0.00    +0.136 C 
BRANCH  21  22
ATOM     22  C   UNL     1       3.039   8.520 -13.867  0.00  0.00    +0.135 C 
ATOM     23  C   UNL     1       3.663   8.954 -15.207  0.00  0.00    +0.035 C 
ATOM     24  C   UNL     1       3.220   7.855 -16.204  0.00  0.00    +0.031 C 
ATOM     25  C   UNL     1       1.989   7.244 -15.489  0.00  0.00    +0.160 C 
ATOM     26  O   UNL     1       2.361   7.273 -14.094  0.00  0.00    -0.375 OA
ENDBRANCH  21  22
ENDBRANCH  19  21
ENDBRANCH  15  17
ENDBRANCH   3   8
BRANCH   3  27
ATOM     27  O   UNL     1       3.480   6.213  -2.965  0.00  0.00    -0.384 OA
ATOM     28  H   UNL     1       4.332   5.983  -3.361  0.00  0.00    +0.211 HD
ENDBRANCH   3  27
BRANCH   6  29
ATOM     29  C   UNL     1       1.153   3.598   0.000  0.00  0.00    -0.039 C 
BRANCH  29  34
ATOM     30  C   UNL     1      -0.571   0.245  -0.339  0.00  0.00    +0.162 A 
ATOM     31  C   UNL     1       0.465  -0.624  -0.037  0.00  0.00    +0.049 A 
ATOM     32  C   UNL     1       1.716  -0.126   0.275  0.00  0.00    +0.004 A 
ATOM     33  C   UNL     1       1.938   1.238   0.286  0.00  0.00    +0.005 A 
ATOM     34  C   UNL     1       0.908   2.111  -0.014  0.00  0.00    -0.019 A 
ATOM     35  C   UNL     1      -0.348   1.619  -0.327  0.00  0.00    +0.163 A 
BRANCH  30  37
ATOM     36  C   UNL     1      -1.958  -1.664  -0.639  0.00  0.00    +0.277 C 
ATOM     37  O   UNL     1      -1.803  -0.243  -0.646  0.00  0.00    -0.491 OA
ENDBRANCH  30  37
BRANCH  35  38
ATOM     38  O   UNL     1      -1.362   2.476  -0.623  0.00  0.00    -0.491 OA
ATOM     39  C   UNL     1      -2.239   2.837   0.446  0.00  0.00    +0.277 C 
ENDBRANCH  35  38
ENDBRANCH  29  34
ENDBRANCH   6  29
TORSDOF 9
