REMARK  Name = ZINC20617351
REMARK  10 active torsions:
REMARK  status: ('A' for Active; 'I' for Inactive)
REMARK    1  A    between atoms: C_1  and  C_2
REMARK    2  A    between atoms: C_6  and  C_20
REMARK    3  A    between atoms: N_8  and  C_9
REMARK    4  A    between atoms: C_11  and  O_17
REMARK    5  A    between atoms: C_13  and  O_15
REMARK    6  A    between atoms: O_15  and  C_16
REMARK    7  A    between atoms: O_17  and  C_18
REMARK    8  A    between atoms: N_22  and  C_23
REMARK    9  A    between atoms: C_30  and  C_33
REMARK   10  A    between atoms: C_33  and  O_34
REMARK                            x       y       z     vdW  Elec       q    Type
REMARK                         _______ _______ _______ _____ _____    ______ ____
ROOT
ATOM      1  C   UNL     1       1.531  10.427  -1.014  0.00  0.00    +0.069 C 
ATOM      2  C   UNL     1       0.210   9.760  -0.728  0.00  0.00    +0.081 A 
ATOM      3  C   UNL     1       0.140   8.377  -0.643  0.00  0.00    +0.159 A 
ATOM      4  C   UNL     1      -1.105   7.777  -0.372  0.00  0.00    +0.027 A 
ATOM      5  C   UNL     1      -1.200   6.319  -0.278  0.00  0.00    +0.030 A 
ATOM      6  C   UNL     1      -0.019   5.615  -0.182  0.00  0.00    +0.098 A 
ATOM      7  C   UNL     1       1.236   6.393  -0.193  0.00  0.00    +0.212 A 
ATOM      8  N   UNL     1       2.323   5.929   0.383  0.00  0.00    -0.325 N 
ATOM      9  O   UNL     1       1.236   7.601  -0.813  0.00  0.00    -0.437 OA
ATOM     10  C   UNL     1      -2.224   8.602  -0.204  0.00  0.00    +0.007 A 
ATOM     11  C   UNL     1      -2.056   9.967  -0.309  0.00  0.00    +0.117 A 
ATOM     12  N   UNL     1      -0.872  10.494  -0.561  0.00  0.00    -0.256 NA
ATOM     13  H   UNL     1       2.329   4.915   0.809  0.00  0.00    +0.169 HD
ENDROOT
BRANCH   8  14
ATOM     14  C   UNL     1       3.445   6.708   0.452  0.00  0.00    +0.049 A 
ATOM     15  C   UNL     1       4.344   6.737  -0.616  0.00  0.00    +0.071 A 
ATOM     16  C   UNL     1       5.477   7.530  -0.543  0.00  0.00    +0.126 A 
ATOM     17  C   UNL     1       5.725   8.287   0.593  0.00  0.00    +0.091 A 
ATOM     18  C   UNL     1       4.837   8.257   1.659  0.00  0.00    +0.126 A 
ATOM     19  C   UNL     1       3.699   7.471   1.594  0.00  0.00    +0.071 A 
BRANCH  18  20
ATOM     20  O   UNL     1       5.085   9.000   2.770  0.00  0.00    -0.495 OA
ATOM     21  C   UNL     1       6.277   9.788   2.770  0.00  0.00    +0.277 C 
ENDBRANCH  18  20
BRANCH  16  22
ATOM     22  O   UNL     1       6.349   7.564  -1.585  0.00  0.00    -0.495 OA
ATOM     23  C   UNL     1       7.500   8.399  -1.440  0.00  0.00    +0.277 C 
ENDBRANCH  16  22
ENDBRANCH   8  14
BRANCH   6  24
ATOM     24  C   UNL     1      -0.009   4.144  -0.080  0.00  0.00    +0.253 C 
ATOM     25  O   UNL     1      -1.058   3.528  -0.073  0.00  0.00    -0.270 OA
ATOM     26  N   UNL     1       1.162   3.483   0.007  0.00  0.00    -0.280 N 
ATOM     27  H   UNL     1       2.106   4.043   0.074  0.00  0.00    +0.155 HD
BRANCH  26  28
ATOM     28  C   UNL     1       1.176   2.084   0.010  0.00  0.00    +0.052 A 
ATOM     29  C   UNL     1       0.148   1.379   0.623  0.00  0.00    +0.025 A 
ATOM     30  C   UNL     1       0.165  -0.002   0.625  0.00  0.00    +0.002 A 
ATOM     31  C   UNL     1       1.204  -0.684   0.017  0.00  0.00    +0.002 A 
ATOM     32  C   UNL     1       2.229   0.014  -0.595  0.00  0.00    +0.022 A 
ATOM     33  C   UNL     1       2.219   1.397  -0.600  0.00  0.00    +0.062 A 
ATOM     34 CL   UNL     1       3.506   2.273  -1.367  0.00  0.00    -0.082 Cl
ENDBRANCH  26  28
ENDBRANCH   6  24
BRANCH  10  35
ATOM     35  C   UNL     1      -3.580   8.012   0.085  0.00  0.00    +0.193 C 
BRANCH  35  36
ATOM     36  O   UNL     1      -4.540   9.063   0.211  0.00  0.00    -0.390 OA
ATOM     37  H   UNL     1      -5.592   8.824   0.423  0.00  0.00    +0.210 HD
ENDBRANCH  35  36
ENDBRANCH  10  35
TORSDOF 7
