REMARK  Name = ZINC44594357
REMARK  6 active torsions:
REMARK  status: ('A' for Active; 'I' for Inactive)
REMARK    1  A    between atoms: C_3  and  N_8
REMARK    2  A    between atoms: N_8  and  S_9
REMARK    3  A    between atoms: S_9  and  C_12
REMARK    4  A    between atoms: C_15  and  C_18
REMARK    5  A    between atoms: C_18  and  C_19
REMARK    6  A    between atoms: C_19  and  N_20
REMARK                            x       y       z     vdW  Elec       q    Type
REMARK                         _______ _______ _______ _____ _____    ______ ____
ROOT
ATOM      1  S   UNL     1       4.791   1.550   0.955  0.00  0.00    +0.072 S 
ATOM      2  O   UNL     1       5.899   2.423   0.779  0.00  0.00    -0.150 OA
ATOM      3  O   UNL     1       4.209   1.305   2.227  0.00  0.00    -0.150 OA
ENDROOT
BRANCH   1   4
ATOM      4  C   UNL     1       5.279  -0.017   0.314  0.00  0.00    +0.109 A 
ATOM      5  C   UNL     1       4.585  -1.157   0.673  0.00  0.00    +0.029 A 
ATOM      6  C   UNL     1       4.968  -2.387   0.171  0.00  0.00    +0.005 A 
ATOM      7  C   UNL     1       6.045  -2.476  -0.692  0.00  0.00    -0.049 A 
ATOM      8  C   UNL     1       6.738  -1.336  -1.052  0.00  0.00    +0.005 A 
ATOM      9  C   UNL     1       6.353  -0.106  -0.552  0.00  0.00    +0.029 A 
BRANCH   7  10
ATOM     10  C   UNL     1       6.463  -3.817  -1.238  0.00  0.00    +0.015 C 
BRANCH  10  11
ATOM     11  C   UNL     1       5.719  -4.088  -2.548  0.00  0.00    -0.082 C 
BRANCH  11  12
ATOM     12  N   UNL     1       6.126  -5.394  -3.081  0.00  0.00    +0.378 N 
ATOM     13  H   UNL     1       7.121  -5.392  -3.253  0.00  0.00    -0.090 HD
ATOM     14  H   UNL     1       5.903  -6.115  -2.412  0.00  0.00    -0.090 HD
ATOM     15  H   UNL     1       5.636  -5.573  -3.945  0.00  0.00    -0.090 HD
ENDBRANCH  11  12
ENDBRANCH  10  11
ENDBRANCH   7  10
ENDBRANCH   1   4
BRANCH   1  16
ATOM     16  N   UNL     1       3.579   2.121  -0.019  0.00  0.00    -0.216 N 
ATOM     17  H   UNL     1       2.697   2.285   0.350  0.00  0.00    +0.174 HD
BRANCH  16  20
ATOM     18  C   UNL     1       3.179   2.167  -3.672  0.00  0.00    +0.003 A 
ATOM     19  C   UNL     1       2.931   1.922  -2.335  0.00  0.00    +0.024 A 
ATOM     20  C   UNL     1       3.827   2.367  -1.371  0.00  0.00    +0.049 A 
ATOM     21  C   UNL     1       4.969   3.058  -1.755  0.00  0.00    +0.038 A 
ATOM     22  C   UNL     1       5.211   3.300  -3.094  0.00  0.00    +0.015 A 
ATOM     23  C   UNL     1       4.317   2.854  -4.051  0.00  0.00    +0.014 A 
ATOM     24  I   UNL     1       6.933   4.341  -3.675  0.00  0.00    -0.044 I 
ENDBRANCH  16  20
ENDBRANCH   1  16
TORSDOF 6
