REMARK  Name = ZINC59813488
REMARK  11 active torsions:
REMARK  status: ('A' for Active; 'I' for Inactive)
REMARK    1  A    between atoms: C_2  and  C_3
REMARK    2  A    between atoms: C_3  and  C_4
REMARK    3  A    between atoms: C_8  and  C_11
REMARK    4  A    between atoms: C_9  and  O_10
REMARK    5  A    between atoms: N_12  and  N_13
REMARK    6  A    between atoms: C_16  and  S_19
REMARK    7  A    between atoms: S_19  and  C_20
REMARK    8  A    between atoms: C_20  and  C_21
REMARK    9  A    between atoms: N_23  and  C_24
REMARK   10  A    between atoms: C_24  and  C_25
REMARK   11  A    between atoms: C_25  and  O_26
REMARK                            x       y       z     vdW  Elec       q    Type
REMARK                         _______ _______ _______ _____ _____    ______ ____
ROOT
ATOM      1  N   UNL     1       1.023  -6.817  -0.817  0.00  0.00    -0.205 N 
ATOM      2  C   UNL     1       1.634  -7.201   0.363  0.00  0.00    +0.232 A 
ATOM      3  N   UNL     1       1.725  -6.478   1.459  0.00  0.00    -0.186 NA
ATOM      4  C   UNL     1       2.380  -7.166   2.400  0.00  0.00    +0.211 A 
ATOM      5  N   UNL     1       2.715  -8.338   1.914  0.00  0.00    -0.144 NA
ATOM      6  N   UNL     1       2.236  -8.387   0.595  0.00  0.00    -0.245 N 
ATOM      7  H   UNL     1       1.003  -7.425  -1.573  0.00  0.00    +0.177 HD
ATOM      8  H   UNL     1       2.323  -9.126  -0.027  0.00  0.00    +0.192 HD
ENDROOT
BRANCH   1  10
ATOM      9  C   UNL     1      -0.140  -5.189  -2.027  0.00  0.00    +0.142 C 
ATOM     10  N   UNL     1       0.434  -5.550  -0.920  0.00  0.00    -0.187 NA
BRANCH   9  15
ATOM     11  C   UNL     1      -1.318  -1.726  -1.159  0.00  0.00    -0.002 A 
ATOM     12  C   UNL     1      -1.927  -1.349  -2.342  0.00  0.00    +0.007 A 
ATOM     13  C   UNL     1      -1.956  -2.216  -3.421  0.00  0.00    +0.001 A 
ATOM     14  C   UNL     1      -1.377  -3.465  -3.325  0.00  0.00    +0.013 A 
ATOM     15  C   UNL     1      -0.760  -3.857  -2.136  0.00  0.00    +0.036 A 
ATOM     16  C   UNL     1      -0.728  -2.974  -1.048  0.00  0.00    +0.129 A 
BRANCH  16  17
ATOM     17  O   UNL     1      -0.125  -3.342   0.112  0.00  0.00    -0.506 OA
ATOM     18  H   UNL     1      -0.714  -3.785   0.738  0.00  0.00    +0.292 HD
ENDBRANCH  16  17
BRANCH  11  19
ATOM     19  C   UNL     1      -1.293  -0.775   0.010  0.00  0.00    +0.065 C 
BRANCH  19  21
ATOM     20  C   UNL     1      -0.016   1.306   0.009  0.00  0.00    +0.004 C 
ATOM     21  C   UNL     1       0.002  -0.004   0.002  0.00  0.00    -0.030 C 
ENDBRANCH  19  21
ENDBRANCH  11  19
ENDBRANCH   9  15
ENDBRANCH   1  10
BRANCH   4  22
ATOM     22  S   UNL     1       2.736  -6.592   4.027  0.00  0.00    -0.075 S 
BRANCH  22  23
ATOM     23  C   UNL     1       3.631  -7.972   4.793  0.00  0.00    +0.173 C 
BRANCH  23  24
ATOM     24  C   UNL     1       4.000  -7.608   6.208  0.00  0.00    +0.223 C 
ATOM     25  O   UNL     1       3.690  -6.524   6.655  0.00  0.00    -0.275 OA
ATOM     26  N   UNL     1       4.674  -8.486   6.976  0.00  0.00    -0.312 N 
ATOM     27  H   UNL     1       4.922  -9.353   6.618  0.00  0.00    +0.149 HD
BRANCH  26  28
ATOM     28  C   UNL     1       5.033  -8.132   8.351  0.00  0.00    +0.132 C 
BRANCH  28  29
ATOM     29  C   UNL     1       5.787  -9.296   8.998  0.00  0.00    +0.174 C 
BRANCH  29  30
ATOM     30  O   UNL     1       7.030  -9.492   8.321  0.00  0.00    -0.393 OA
ATOM     31  H   UNL     1       7.563 -10.216   8.678  0.00  0.00    +0.209 HD
ENDBRANCH  29  30
ENDBRANCH  28  29
ENDBRANCH  26  28
ENDBRANCH  23  24
ENDBRANCH  22  23
ENDBRANCH   4  22
TORSDOF 11
