REMARK  Name = ZINC63166543
REMARK  8 active torsions:
REMARK  status: ('A' for Active; 'I' for Inactive)
REMARK    1  A    between atoms: C_4  and  C_7
REMARK    2  A    between atoms: C_7  and  C_8
REMARK    3  A    between atoms: C_7  and  C_14
REMARK    4  A    between atoms: N_16  and  C_17
REMARK    5  A    between atoms: C_17  and  C_19
REMARK    6  A    between atoms: C_17  and  C_29
REMARK    7  A    between atoms: C_19  and  C_20
REMARK    8  A    between atoms: N_31  and  C_32
REMARK                            x       y       z     vdW  Elec       q    Type
REMARK                         _______ _______ _______ _____ _____    ______ ____
ROOT
ATOM      1  C   UNL     1       3.583  -2.115  -3.595  0.00  0.00    +0.163 C 
ENDROOT
BRANCH   1   4
ATOM      2  C   UNL     1       3.712  -1.660  -1.205  0.00  0.00    +0.225 C 
ATOM      3  O   UNL     1       3.830  -2.852  -1.014  0.00  0.00    -0.275 OA
ATOM      4  N   UNL     1       3.582  -1.188  -2.460  0.00  0.00    -0.303 N 
ATOM      5  H   UNL     1       3.487  -0.235  -2.613  0.00  0.00    +0.149 HD
BRANCH   2   6
ATOM      6  C   UNL     1       3.711  -0.707  -0.038  0.00  0.00    +0.135 C 
BRANCH   6  10
ATOM      7  C   UNL     1       0.019   1.439   0.047  0.00  0.00    +0.000 A 
ATOM      8  C   UNL     1       0.015   0.059  -0.034  0.00  0.00    +0.000 A 
ATOM      9  C   UNL     1       1.209  -0.635  -0.061  0.00  0.00    +0.005 A 
ATOM     10  C   UNL     1       2.409   0.050  -0.009  0.00  0.00    -0.031 A 
ATOM     11  C   UNL     1       2.413   1.430   0.071  0.00  0.00    +0.005 A 
ATOM     12  C   UNL     1       1.218   2.125   0.100  0.00  0.00    +0.000 A 
ENDBRANCH   6  10
BRANCH   6  13
ATOM     13  C   UNL     1       3.870  -1.483   1.245  0.00  0.00    -0.031 A 
ATOM     14  C   UNL     1       3.012  -2.528   1.531  0.00  0.00    +0.005 A 
ATOM     15  C   UNL     1       3.158  -3.240   2.707  0.00  0.00    +0.000 A 
ATOM     16  C   UNL     1       4.161  -2.906   3.597  0.00  0.00    +0.000 A 
ATOM     17  C   UNL     1       5.020  -1.861   3.310  0.00  0.00    +0.000 A 
ATOM     18  C   UNL     1       4.877  -1.153   2.132  0.00  0.00    +0.005 A 
ENDBRANCH   6  13
ENDBRANCH   2   6
ENDBRANCH   1   4
BRANCH   1  19
ATOM     19  C   UNL     1       5.003  -2.405  -4.006  0.00  0.00    +0.234 C 
ATOM     20  O   UNL     1       5.925  -1.888  -3.409  0.00  0.00    -0.274 OA
ATOM     21  N   UNL     1       5.250  -3.238  -5.036  0.00  0.00    -0.311 N 
ATOM     22  H   UNL     1       4.514  -3.651  -5.513  0.00  0.00    +0.149 HD
BRANCH  21  23
ATOM     23  C   UNL     1       6.632  -3.520  -5.435  0.00  0.00    +0.073 C 
ATOM     24  C   UNL     1       7.133  -2.376  -6.340  0.00  0.00    +0.022 C 
ATOM     25  C   UNL     1       8.638  -2.383  -6.330  0.00  0.00    +0.002 C 
ATOM     26  C   UNL     1       9.232  -3.187  -7.503  0.00  0.00    +0.000 C 
ATOM     27  C   UNL     1       8.476  -4.503  -7.768  0.00  0.00    +0.000 C 
ATOM     28  C   UNL     1       8.109  -5.222  -6.498  0.00  0.00    +0.002 C 
ATOM     29  C   UNL     1       6.675  -4.814  -6.101  0.00  0.00    +0.022 C 
ENDBRANCH  21  23
ENDBRANCH   1  19
BRANCH   1  30
ATOM     30  C   UNL     1       2.831  -1.485  -4.769  0.00  0.00    +0.065 C 
BRANCH  30  31
ATOM     31  C   UNL     1       1.381  -1.308  -4.400  0.00  0.00    -0.039 C 
ATOM     32  C   UNL     1       0.798  -0.193  -3.904  0.00  0.00    -0.001 A 
ATOM     33  C   UNL     1       1.320   1.138  -3.571  0.00  0.00    +0.010 A 
ATOM     34  C   UNL     1       0.474   2.071  -3.078  0.00  0.00    +0.001 A 
ATOM     35  C   UNL     1      -0.887   1.799  -2.878  0.00  0.00    +0.002 A 
ATOM     36  C   UNL     1      -1.440   0.601  -3.160  0.00  0.00    +0.026 A 
ATOM     37  C   UNL     1      -0.642  -0.454  -3.683  0.00  0.00    +0.043 A 
ATOM     38  N   UNL     1      -0.939  -1.683  -4.030  0.00  0.00    -0.380 N 
ATOM     39  C   UNL     1       0.281  -2.339  -4.516  0.00  0.00    +0.144 C 
ATOM     40  H   UNL     1      -1.818  -2.090  -3.978  0.00  0.00    +0.160 HD
ENDBRANCH  30  31
ENDBRANCH   1  30
TORSDOF 8
