REMARK  Name = ZINC29414844
REMARK  12 active torsions:
REMARK  status: ('A' for Active; 'I' for Inactive)
REMARK    1  A    between atoms: C_1  and  C_2
REMARK    2  A    between atoms: C_2  and  N_3
REMARK    3  A    between atoms: N_3  and  C_4
REMARK    4  A    between atoms: N_3  and  C_6
REMARK    5  A    between atoms: C_4  and  C_5
REMARK    6  A    between atoms: C_6  and  C_8
REMARK    7  A    between atoms: C_6  and  C_27
REMARK    8  A    between atoms: C_8  and  N_9
REMARK    9  A    between atoms: C_10  and  C_12
REMARK   10  A    between atoms: C_12  and  C_13
REMARK   11  A    between atoms: C_13  and  N_14
REMARK   12  A    between atoms: C_15  and  C_17
REMARK                            x       y       z     vdW  Elec       q    Type
REMARK                         _______ _______ _______ _____ _____    ______ ____
ROOT
ATOM      1  N   UNL     1      -3.329  -2.665   0.574  0.00  0.00    -0.316 N 
ATOM      2  C   UNL     1      -4.256  -3.599   0.285  0.00  0.00    +0.214 C 
ATOM      3  O   UNL     1      -4.496  -3.878  -0.870  0.00  0.00    -0.276 OA
ATOM      4  H   UNL     1      -3.111  -2.412   1.622  0.00  0.00    +0.149 HD
ENDROOT
BRANCH   1   5
ATOM      5  C   UNL     1      -2.611  -1.986  -0.508  0.00  0.00    +0.093 C 
BRANCH   5   6
ATOM      6  C   UNL     1      -1.557  -1.051   0.087  0.00  0.00    -0.020 C 
BRANCH   6   7
ATOM      7  C   UNL     1      -0.916  -0.249  -1.017  0.00  0.00    -0.052 A 
ATOM      8  C   UNL     1       0.461  -0.167  -1.115  0.00  0.00    +0.009 A 
ATOM      9  C   UNL     1       1.005   0.562  -2.120  0.00  0.00    +0.045 A 
ATOM     10  S   UNL     1      -0.446   1.162  -2.969  0.00  0.00    -0.105 S 
ATOM     11  C   UNL     1      -1.680   0.401  -1.928  0.00  0.00    +0.047 A 
ENDBRANCH   6   7
BRANCH   6  12
ATOM     12  N   UNL     1      -2.196  -0.140   1.046  0.00  0.00    +0.385 N 
ATOM     13  H   UNL     1      -2.765  -0.749   1.764  0.00  0.00    -0.081 HD
BRANCH  12  15
ATOM     14  C   UNL     1      -0.545  -0.283   2.849  0.00  0.00    -0.017 C 
ATOM     15  C   UNL     1      -1.191   0.623   1.798  0.00  0.00    -0.081 C 
ENDBRANCH  12  15
BRANCH  12  16
ATOM     16  C   UNL     1      -3.140   0.759   0.369  0.00  0.00    -0.081 C 
ATOM     17  C   UNL     1      -4.069   1.397   1.404  0.00  0.00    -0.017 C 
ENDBRANCH  12  16
ENDBRANCH   6  12
ENDBRANCH   5   6
ENDBRANCH   1   5
BRANCH   2  18
ATOM     18  C   UNL     1      -4.994  -4.297   1.398  0.00  0.00    +0.114 C 
BRANCH  18  19
ATOM     19  C   UNL     1      -5.982  -5.302   0.803  0.00  0.00    +0.113 C 
BRANCH  19  20
ATOM     20  N   UNL     1      -6.700  -5.981   1.885  0.00  0.00    -0.314 N 
ATOM     21  C   UNL     1      -7.627  -6.915   1.597  0.00  0.00    +0.219 C 
ATOM     22  O   UNL     1      -7.868  -7.194   0.441  0.00  0.00    -0.275 OA
ATOM     23  H   UNL     1      -6.482  -5.728   2.933  0.00  0.00    +0.149 HD
BRANCH  21  24
ATOM     24  C   UNL     1      -8.366  -7.613   2.710  0.00  0.00    +0.048 C 
ATOM     25  C   UNL     1      -7.365  -8.349   3.603  0.00  0.00    +0.019 C 
ATOM     26  C   UNL     1      -8.114  -9.057   4.733  0.00  0.00    -0.009 C 
ATOM     27  C   UNL     1      -9.102 -10.063   4.138  0.00  0.00    +0.007 C 
ATOM     28  C   UNL     1     -10.103  -9.327   3.245  0.00  0.00    -0.009 C 
ATOM     29  C   UNL     1      -9.354  -8.618   2.115  0.00  0.00    +0.019 C 
ATOM     30  C   UNL     1     -10.866  -8.294   4.077  0.00  0.00    +0.007 C 
ATOM     31  C   UNL     1      -9.878  -7.289   4.672  0.00  0.00    -0.009 C 
ATOM     32  C   UNL     1      -8.877  -8.025   5.565  0.00  0.00    +0.007 C 
ATOM     33  C   UNL     1      -9.128  -6.580   3.542  0.00  0.00    +0.019 C 
ENDBRANCH  21  24
ENDBRANCH  19  20
ENDBRANCH  18  19
ENDBRANCH   2  18
TORSDOF 10
