REMARK  Name = ZINC43465417
REMARK  13 active torsions:
REMARK  status: ('A' for Active; 'I' for Inactive)
REMARK    1  A    between atoms: C_3  and  O_39
REMARK    2  A    between atoms: C_4  and  O_38
REMARK    3  A    between atoms: C_6  and  C_7
REMARK    4  A    between atoms: C_8  and  O_37
REMARK    5  A    between atoms: C_12  and  O_36
REMARK    6  A    between atoms: C_14  and  O_35
REMARK    7  A    between atoms: C_15  and  O_18
REMARK    8  A    between atoms: O_18  and  C_19
REMARK    9  A    between atoms: C_21  and  O_34
REMARK   10  A    between atoms: C_23  and  O_33
REMARK   11  A    between atoms: C_25  and  O_32
REMARK   12  A    between atoms: C_27  and  C_30
REMARK   13  A    between atoms: C_30  and  O_31
REMARK                            x       y       z     vdW  Elec       q    Type
REMARK                         _______ _______ _______ _____ _____    ______ ____
ROOT
ATOM      1  C   UNL     1      -1.264  -0.760   0.010  0.00  0.00    +0.181 A 
ATOM      2  C   UNL     1      -2.436  -0.076   0.123  0.00  0.00    +0.208 A 
ATOM      3  C   UNL     1      -3.663  -0.789   0.132  0.00  0.00    +0.238 A 
ATOM      4  O   UNL     1      -4.733  -0.209   0.232  0.00  0.00    -0.283 OA
ATOM      5  C   UNL     1      -3.595  -2.255   0.016  0.00  0.00    +0.113 A 
ATOM      6  C   UNL     1      -4.757  -3.037   0.015  0.00  0.00    +0.135 A 
ATOM      7  C   UNL     1      -4.654  -4.411  -0.096  0.00  0.00    +0.095 A 
ATOM      8  C   UNL     1      -3.405  -5.012  -0.207  0.00  0.00    +0.166 A 
ATOM      9  C   UNL     1      -2.248  -4.245  -0.207  0.00  0.00    +0.208 A 
ATOM     10  C   UNL     1      -2.333  -2.862  -0.096  0.00  0.00    +0.188 A 
ATOM     11  O   UNL     1      -1.218  -2.099  -0.100  0.00  0.00    -0.447 OA
ENDROOT
BRANCH   1  17
ATOM     12  C   UNL     1       1.067  -0.411   0.810  0.00  0.00    +0.015 A 
ATOM     13  C   UNL     1       2.249   0.297   0.801  0.00  0.00    +0.050 A 
ATOM     14  C   UNL     1       2.386   1.415  -0.009  0.00  0.00    +0.158 A 
ATOM     15  C   UNL     1       1.328   1.827  -0.818  0.00  0.00    +0.159 A 
ATOM     16  C   UNL     1       0.140   1.122  -0.815  0.00  0.00    +0.060 A 
ATOM     17  C   UNL     1       0.002  -0.004   0.002  0.00  0.00    +0.025 A 
BRANCH  15  18
ATOM     18  O   UNL     1       1.466   2.924  -1.611  0.00  0.00    -0.503 OA
ATOM     19  H   UNL     1       1.807   2.730  -2.495  0.00  0.00    +0.292 HD
ENDBRANCH  15  18
BRANCH  14  20
ATOM     20  O   UNL     1       3.553   2.110  -0.014  0.00  0.00    -0.503 OA
ATOM     21  H   UNL     1       4.193   1.800  -0.669  0.00  0.00    +0.292 HD
ENDBRANCH  14  20
ENDBRANCH   1  17
BRANCH   8  22
ATOM     22  O   UNL     1      -3.316  -6.364  -0.315  0.00  0.00    -0.503 OA
ATOM     23  H   UNL     1      -3.336  -6.687  -1.226  0.00  0.00    +0.292 HD
ENDBRANCH   8  22
BRANCH   6  24
ATOM     24  O   UNL     1      -5.977  -2.450   0.124  0.00  0.00    -0.506 OA
ATOM     25  H   UNL     1      -6.376  -2.212  -0.724  0.00  0.00    +0.292 HD
ENDBRANCH   6  24
BRANCH   2  26
ATOM     26  O   UNL     1      -2.431   1.281   0.228  0.00  0.00    -0.501 OA
ATOM     27  H   UNL     1      -3.312   1.673   0.304  0.00  0.00    +0.292 HD
ENDBRANCH   2  26
BRANCH   9  28
ATOM     28  O   UNL     1      -1.031  -4.846  -0.316  0.00  0.00    -0.453 OA
BRANCH  28  29
ATOM     29  C   UNL     1      -0.517  -5.035  -1.635  0.00  0.00    +0.340 C 
ATOM     30  C   UNL     1       0.720  -5.935  -1.577  0.00  0.00    +0.214 C 
ATOM     31  C   UNL     1       1.301  -6.084  -2.987  0.00  0.00    +0.180 C 
ATOM     32  C   UNL     1       1.619  -4.694  -3.545  0.00  0.00    +0.177 C 
ATOM     33  C   UNL     1       0.347  -3.842  -3.528  0.00  0.00    +0.179 C 
ATOM     34  O   UNL     1      -0.158  -3.769  -2.193  0.00  0.00    -0.331 OA
BRANCH  32  35
ATOM     35  O   UNL     1       2.095  -4.816  -4.887  0.00  0.00    -0.386 OA
ATOM     36  H   UNL     1       2.898  -5.348  -4.973  0.00  0.00    +0.210 HD
ENDBRANCH  32  35
BRANCH  31  37
ATOM     37  O   UNL     1       2.497  -6.864  -2.931  0.00  0.00    -0.386 OA
ATOM     38  H   UNL     1       2.369  -7.756  -2.580  0.00  0.00    +0.210 HD
ENDBRANCH  31  37
BRANCH  30  39
ATOM     39  O   UNL     1       0.352  -7.221  -1.073  0.00  0.00    -0.383 OA
ATOM     40  H   UNL     1      -0.027  -7.200  -0.183  0.00  0.00    +0.210 HD
ENDBRANCH  30  39
BRANCH  33  41
ATOM     41  C   UNL     1       0.670  -2.433  -4.029  0.00  0.00    +0.190 C 
BRANCH  41  42
ATOM     42  O   UNL     1      -0.536  -1.672  -4.123  0.00  0.00    -0.392 OA
ATOM     43  H   UNL     1      -0.406  -0.766  -4.435  0.00  0.00    +0.210 HD
ENDBRANCH  41  42
ENDBRANCH  33  41
ENDBRANCH  28  29
ENDBRANCH   9  28
TORSDOF 13
