REMARK  Name = ZINC43290256
REMARK  7 active torsions:
REMARK  status: ('A' for Active; 'I' for Inactive)
REMARK    1  A    between atoms: C_1  and  C_2
REMARK    2  A    between atoms: C_2  and  C_4
REMARK    3  A    between atoms: C_2  and  N_19
REMARK    4  A    between atoms: C_4  and  C_6
REMARK    5  A    between atoms: C_4  and  S_12
REMARK    6  A    between atoms: S_12  and  C_13
REMARK    7  A    between atoms: N_17  and  C_18
REMARK                            x       y       z     vdW  Elec       q    Type
REMARK                         _______ _______ _______ _____ _____    ______ ____
ROOT
ATOM      1  C   UNL     1       0.845  -0.516   1.173  0.00  0.00    +0.076 C 
ENDROOT
BRANCH   1   2
ATOM      2  C   UNL     1       1.117  -1.994   1.058  0.00  0.00    +0.003 A 
ATOM      3  C   UNL     1       2.306  -2.637   0.954  0.00  0.00    +0.027 A 
ATOM      4  C   UNL     1       2.315  -4.016   0.859  0.00  0.00    +0.025 A 
ATOM      5  C   UNL     1       1.135  -4.684   0.874  0.00  0.00    +0.060 A 
ATOM      6  S   UNL     1      -0.041  -3.351   1.034  0.00  0.00    -0.099 S 
ATOM      7 BR   UNL     1       3.949  -4.957   0.710  0.00  0.00    -0.050 Br
ENDBRANCH   1   2
BRANCH   1   9
ATOM      8  C   UNL     1      -0.256   1.445   0.085  0.00  0.00    -0.013 C 
ATOM      9  C   UNL     1      -0.025  -0.065  -0.001  0.00  0.00    -0.060 C 
BRANCH   9  10
ATOM     10  N   UNL     1       0.652  -0.386  -1.265  0.00  0.00    +0.381 N 
ATOM     11  H   UNL     1       0.804  -1.381  -1.321  0.00  0.00    -0.090 HD
ATOM     12  H   UNL     1       0.078  -0.088  -2.039  0.00  0.00    -0.090 HD
ATOM     13  H   UNL     1       1.540   0.093  -1.301  0.00  0.00    -0.090 HD
ENDBRANCH   9  10
ENDBRANCH   1   9
BRANCH   1  14
ATOM     14  S   UNL     1      -0.020  -0.179   2.732  0.00  0.00    -0.078 S 
BRANCH  14  15
ATOM     15  C   UNL     1       1.181  -0.535   3.971  0.00  0.00    +0.210 A 
ATOM     16  N   UNL     1       2.385  -1.025   3.775  0.00  0.00    -0.102 NA
ATOM     17  N   UNL     1       3.003  -1.163   4.892  0.00  0.00    -0.022 NA
ATOM     18  N   UNL     1       2.254  -0.779   5.868  0.00  0.00    -0.043 NA
ATOM     19  N   UNL     1       1.039  -0.349   5.305  0.00  0.00    -0.223 N 
ATOM     20  C   UNL     1      -0.129   0.183   6.010  0.00  0.00    +0.177 C 
ENDBRANCH  14  15
ENDBRANCH   1  14
TORSDOF 5
