REMARK  Name = ZINC09642373
REMARK  8 active torsions:
REMARK  status: ('A' for Active; 'I' for Inactive)
REMARK    1  A    between atoms: C_1  and  C_2
REMARK    2  A    between atoms: C_5  and  N_8
REMARK    3  A    between atoms: C_11  and  C_16
REMARK    4  A    between atoms: C_16  and  N_51
REMARK    5  A    between atoms: C_17  and  N_51
REMARK    6  A    between atoms: C_18  and  C_19
REMARK    7  A    between atoms: C_18  and  N_51
REMARK    8  A    between atoms: N_21  and  C_22
REMARK                            x       y       z     vdW  Elec       q    Type
REMARK                         _______ _______ _______ _____ _____    ______ ____
ROOT
ATOM      1  N   UNL     1       1.938  -2.699   4.799  0.00  0.00    -0.284 N 
ATOM      2  C   UNL     1       2.462  -1.660   4.056  0.00  0.00    +0.224 A 
ATOM      3  N   UNL     1       1.735  -0.567   3.833  0.00  0.00    -0.201 NA
ATOM      4  C   UNL     1       2.233   0.426   3.117  0.00  0.00    +0.120 A 
ATOM      5  N   UNL     1       3.458   0.342   2.627  0.00  0.00    -0.202 NA
ATOM      6  C   UNL     1       4.193  -0.745   2.850  0.00  0.00    +0.217 A 
ATOM      7  N   UNL     1       3.693  -1.747   3.565  0.00  0.00    -0.181 NA
ATOM      8  N   UNL     1       5.471  -0.832   2.338  0.00  0.00    -0.327 N 
ATOM      9  H   UNL     1       1.072  -2.602   5.226  0.00  0.00    +0.155 HD
ATOM     10  H   UNL     1       5.835  -0.100   1.816  0.00  0.00    +0.145 HD
ATOM     11  H   UNL     1       6.006  -1.624   2.501  0.00  0.00    +0.145 HD
ENDROOT
BRANCH   1  16
ATOM     12  C   UNL     1       4.847  -7.537   5.357  0.00  0.00    +0.044 C 
ATOM     13  C   UNL     1       4.074  -6.251   5.209  0.00  0.00    -0.050 A 
ATOM     14  C   UNL     1       3.274  -5.804   6.245  0.00  0.00    +0.005 A 
ATOM     15  C   UNL     1       2.565  -4.627   6.112  0.00  0.00    +0.023 A 
ATOM     16  C   UNL     1       2.655  -3.892   4.937  0.00  0.00    +0.034 A 
ATOM     17  C   UNL     1       3.455  -4.346   3.897  0.00  0.00    +0.023 A 
ATOM     18  C   UNL     1       4.167  -5.522   4.038  0.00  0.00    +0.005 A 
ENDBRANCH   1  16
BRANCH   4  19
ATOM     19  C   UNL     1       1.405   1.659   2.863  0.00  0.00    -0.001 C 
BRANCH  19  21
ATOM     20  C   UNL     1       1.524   1.414   0.457  0.00  0.00    -0.095 C 
ATOM     21  N   UNL     1       0.620   1.460   1.626  0.00  0.00    +0.388 N 
ATOM     22  H   UNL     1       0.115   0.568   1.691  0.00  0.00    -0.081 HD
BRANCH  21  23
ATOM     23  C   UNL     1      -0.358   2.556   1.466  0.00  0.00    +0.019 C 
BRANCH  23  24
ATOM     24  C   UNL     1      -1.286   2.217   0.328  0.00  0.00    +0.201 C 
ATOM     25  O   UNL     1      -1.136   1.185  -0.290  0.00  0.00    -0.278 OA
ATOM     26  N   UNL     1      -2.283   3.062  -0.002  0.00  0.00    -0.287 N 
ATOM     27  H   UNL     1      -2.362   3.918   0.446  0.00  0.00    +0.155 HD
BRANCH  26  28
ATOM     28  C   UNL     1      -3.205   2.702  -0.992  0.00  0.00    +0.035 A 
ATOM     29  C   UNL     1      -3.756   3.675  -1.816  0.00  0.00    +0.025 A 
ATOM     30  C   UNL     1      -4.660   3.318  -2.796  0.00  0.00    +0.023 A 
ATOM     31  C   UNL     1      -5.029   1.993  -2.950  0.00  0.00    +0.059 A 
ATOM     32  C   UNL     1      -4.487   1.022  -2.126  0.00  0.00    +0.061 A 
ATOM     33  C   UNL     1      -3.576   1.374  -1.147  0.00  0.00    +0.044 A 
ATOM     34 CL   UNL     1      -4.951  -0.640  -2.321  0.00  0.00    -0.082 Cl
ATOM     35 CL   UNL     1      -6.173   1.549  -4.178  0.00  0.00    -0.082 Cl
ENDBRANCH  26  28
ENDBRANCH  23  24
ENDBRANCH  21  23
ENDBRANCH  19  21
ENDBRANCH   4  19
TORSDOF 6
