REMARK  Name = ZINC34997560
REMARK  9 active torsions:
REMARK  status: ('A' for Active; 'I' for Inactive)
REMARK    1  A    between atoms: C_1  and  C_2
REMARK    2  A    between atoms: C_2  and  C_39
REMARK    3  A    between atoms: C_7  and  C_11
REMARK    4  A    between atoms: C_11  and  N_12
REMARK    5  A    between atoms: N_12  and  C_13
REMARK    6  A    between atoms: C_13  and  C_14
REMARK    7  A    between atoms: C_14  and  N_15
REMARK    8  A    between atoms: N_23  and  C_24
REMARK    9  A    between atoms: N_32  and  C_33
REMARK                            x       y       z     vdW  Elec       q    Type
REMARK                         _______ _______ _______ _____ _____    ______ ____
ROOT
ATOM      1  N   UNL     1       1.289  -2.125   3.340  0.00  0.00    -0.283 N 
ATOM      2  C   UNL     1       0.551  -1.792   4.418  0.00  0.00    +0.303 C 
ATOM      3  O   UNL     1       0.855  -2.213   5.517  0.00  0.00    -0.253 OA
ATOM      4  N   UNL     1      -0.524  -0.992   4.277  0.00  0.00    -0.296 N 
ATOM      5  H   UNL     1      -0.767  -0.655   3.400  0.00  0.00    +0.151 HD
ENDROOT
BRANCH   4   6
ATOM      6  C   UNL     1      -1.326  -0.629   5.448  0.00  0.00    +0.074 C 
ATOM      7  C   UNL     1      -2.360  -1.724   5.716  0.00  0.00    +0.022 C 
ATOM      8  C   UNL     1      -3.198  -1.346   6.939  0.00  0.00    +0.002 C 
ATOM      9  C   UNL     1      -3.916  -0.021   6.676  0.00  0.00    +0.000 C 
ATOM     10  C   UNL     1      -2.882   1.074   6.407  0.00  0.00    +0.002 C 
ATOM     11  C   UNL     1      -2.044   0.696   5.184  0.00  0.00    +0.022 C 
ENDBRANCH   4   6
BRANCH   1  12
ATOM     12  C   UNL     1       0.922  -1.617   2.016  0.00  0.00    +0.140 C 
BRANCH  12  18
ATOM     13  C   UNL     1      -0.608  -2.619  -1.424  0.00  0.00    +0.012 C 
ATOM     14  C   UNL     1      -0.266  -3.952  -0.756  0.00  0.00    -0.025 C 
ATOM     15  C   UNL     1      -1.407  -4.531   0.105  0.00  0.00    -0.000 C 
ATOM     16  C   UNL     1      -2.240  -3.405   0.735  0.00  0.00    +0.031 C 
ATOM     17  C   UNL     1      -1.326  -2.419   1.421  0.00  0.00    -0.025 C 
ATOM     18  C   UNL     1      -0.025  -2.583   1.352  0.00  0.00    -0.053 C 
ATOM     19  C   UNL     1       0.497  -3.805   0.574  0.00  0.00    +0.022 C 
ATOM     20  C   UNL     1      -0.292  -5.060   1.022  0.00  0.00    +0.012 C 
ATOM     21  C   UNL     1       0.359  -4.962  -1.720  0.00  0.00    +0.012 C 
ENDBRANCH  12  18
ENDBRANCH   1  12
BRANCH   1  22
ATOM     22  C   UNL     1       2.457  -2.995   3.493  0.00  0.00    +0.091 C 
BRANCH  22  23
ATOM     23  C   UNL     1       3.698  -2.141   3.760  0.00  0.00    -0.059 C 
BRANCH  23  24
ATOM     24  N   UNL     1       4.870  -3.013   3.913  0.00  0.00    +0.383 N 
ATOM     25  C   UNL     1       5.130  -3.709   2.647  0.00  0.00    -0.059 C 
ATOM     26  C   UNL     1       6.279  -4.704   2.837  0.00  0.00    +0.091 C 
ATOM     27  N   UNL     1       7.438  -3.978   3.381  0.00  0.00    -0.289 N 
ATOM     28  C   UNL     1       7.230  -3.123   4.559  0.00  0.00    +0.091 C 
ATOM     29  C   UNL     1       6.036  -2.203   4.287  0.00  0.00    -0.059 C 
ATOM     30  C   UNL     1       8.656  -4.095   2.815  0.00  0.00    +0.306 C 
ATOM     31  O   UNL     1       8.829  -4.877   1.900  0.00  0.00    -0.252 OA
ATOM     32  N   UNL     1       9.682  -3.344   3.263  0.00  0.00    -0.269 N 
ATOM     33  H   UNL     1       9.572  -2.798   4.057  0.00  0.00    +0.156 HD
ATOM     34  H   UNL     1       4.689  -3.693   4.637  0.00  0.00    -0.082 HD
BRANCH  32  35
ATOM     35  C   UNL     1      10.905  -3.353   2.583  0.00  0.00    +0.035 A 
ATOM     36  C   UNL     1      10.932  -3.498   1.202  0.00  0.00    +0.023 A 
ATOM     37  C   UNL     1      12.140  -3.506   0.533  0.00  0.00    +0.002 A 
ATOM     38  C   UNL     1      13.322  -3.369   1.237  0.00  0.00    +0.000 A 
ATOM     39  C   UNL     1      13.299  -3.225   2.612  0.00  0.00    +0.002 A 
ATOM     40  C   UNL     1      12.093  -3.211   3.286  0.00  0.00    +0.023 A 
ENDBRANCH  32  35
ENDBRANCH  23  24
ENDBRANCH  22  23
ENDBRANCH   1  22
TORSDOF 7
