REMARK  Name = ZINC62789169
REMARK  5 active torsions:
REMARK  status: ('A' for Active; 'I' for Inactive)
REMARK    1  A    between atoms: C_1  and  C_2
REMARK    2  A    between atoms: C_5  and  N_19
REMARK    3  A    between atoms: C_7  and  O_8
REMARK    4  A    between atoms: O_8  and  C_9
REMARK    5  A    between atoms: C_14  and  C_15
REMARK                            x       y       z     vdW  Elec       q    Type
REMARK                         _______ _______ _______ _____ _____    ______ ____
ROOT
ATOM      1  C   UNL     1      -0.187  -0.761   3.523  0.00  0.00    +0.140 A 
ATOM      2  C   UNL     1      -0.159  -2.147   3.474  0.00  0.00    +0.067 A 
ATOM      3  C   UNL     1      -0.115  -2.881   4.644  0.00  0.00    +0.044 A 
ATOM      4  C   UNL     1      -0.100  -2.239   5.873  0.00  0.00    +0.021 A 
ATOM      5  C   UNL     1      -0.127  -0.863   5.939  0.00  0.00    +0.016 A 
ATOM      6  C   UNL     1      -0.166  -0.110   4.764  0.00  0.00    +0.054 A 
ATOM      7 CL   UNL     1      -0.080  -4.615   4.575  0.00  0.00    -0.083 Cl
ENDROOT
BRANCH   6   8
ATOM      8  C   UNL     1      -0.189   1.365   4.827  0.00  0.00    +0.098 C 
ATOM      9  N   UNL     1      -1.143   1.987   5.520  0.00  0.00    -0.387 N 
ATOM     10  N   UNL     1       0.744   2.075   4.192  0.00  0.00    -0.344 N 
ATOM     11  H   UNL     1      -1.117   2.951   5.624  0.00  0.00    +0.157 HD
ATOM     12  H   UNL     1       1.438   1.622   3.688  0.00  0.00    +0.144 HD
ATOM     13  H   UNL     1       0.728   3.043   4.234  0.00  0.00    +0.144 HD
ATOM     14  H   UNL     1      -1.863   1.476   5.921  0.00  0.00    +0.157 HD
ENDBRANCH   6   8
BRANCH   1  15
ATOM     15  O   UNL     1      -0.230  -0.040   2.375  0.00  0.00    -0.455 OA
BRANCH  15  22
ATOM     16  C   UNL     1      -2.848  -0.759   1.594  0.00  0.00    +0.047 C 
ATOM     17  C   UNL     1      -1.632  -1.093   0.768  0.00  0.00    -0.008 A 
ATOM     18  C   UNL     1      -1.773  -1.773  -0.427  0.00  0.00    +0.009 A 
ATOM     19  C   UNL     1      -0.658  -2.079  -1.185  0.00  0.00    +0.033 A 
ATOM     20  C   UNL     1       0.601  -1.706  -0.750  0.00  0.00    +0.130 A 
ATOM     21  C   UNL     1       0.747  -1.027   0.443  0.00  0.00    +0.079 A 
ATOM     22  C   UNL     1      -0.371  -0.713   1.203  0.00  0.00    +0.134 A 
BRANCH  20  23
ATOM     23  N   UNL     1       1.792  -2.036  -1.564  0.00  0.00    +0.057 N 
ATOM     24  O   UNL     1       1.664  -2.632  -2.609  0.00  0.00    -0.126 OA
ATOM     25  O   UNL     1       2.893  -1.711  -1.185  0.00  0.00    -0.126 OA
ENDBRANCH  20  23
ENDBRANCH  15  22
ENDBRANCH   1  15
TORSDOF 4
