REMARK  Name = ZINC64623118
REMARK  8 active torsions:
REMARK  status: ('A' for Active; 'I' for Inactive)
REMARK    1  A    between atoms: C_1  and  O_2
REMARK    2  A    between atoms: O_2  and  C_3
REMARK    3  A    between atoms: C_6  and  C_9
REMARK    4  A    between atoms: N_27  and  C_28
REMARK    5  A    between atoms: C_31  and  O_36
REMARK    6  A    between atoms: C_32  and  O_34
REMARK    7  A    between atoms: O_34  and  C_35
REMARK    8  A    between atoms: O_36  and  C_37
REMARK                            x       y       z     vdW  Elec       q    Type
REMARK                         _______ _______ _______ _____ _____    ______ ____
ROOT
ATOM      1  C   UNL     1      -4.420  -2.449  -0.381  0.00  0.00    +0.134 C 
ATOM      2  C   UNL     1      -4.793  -2.697   1.084  0.00  0.00    +0.131 C 
ATOM      3  C   UNL     1      -4.139  -4.014   1.483  0.00  0.00    -0.035 C 
ATOM      4  C   UNL     1      -3.386  -3.752   2.545  0.00  0.00    +0.001 A 
ATOM      5  C   UNL     1      -2.575  -4.624   3.409  0.00  0.00    +0.030 A 
ATOM      6  C   UNL     1      -1.907  -4.011   4.423  0.00  0.00    +0.042 A 
ATOM      7  C   UNL     1      -1.965  -2.633   4.660  0.00  0.00    +0.022 A 
ATOM      8  C   UNL     1      -2.689  -1.757   3.917  0.00  0.00    +0.027 A 
ATOM      9  C   UNL     1      -3.438  -2.284   2.825  0.00  0.00    +0.043 A 
ATOM     10  N   UNL     1      -4.235  -1.672   1.969  0.00  0.00    -0.375 N 
ATOM     11 CL   UNL     1      -0.934  -4.987   5.478  0.00  0.00    -0.084 Cl
ATOM     12  C   UNL     1      -4.327  -5.284   0.691  0.00  0.00    +0.052 C 
ATOM     13  C   UNL     1      -4.024  -4.939  -0.778  0.00  0.00    +0.114 C 
ATOM     14  N   UNL     1      -4.695  -3.684  -1.133  0.00  0.00    -0.276 N 
ATOM     15  C   UNL     1      -5.574  -3.661  -2.155  0.00  0.00    +0.307 C 
ATOM     16  O   UNL     1      -6.064  -2.607  -2.512  0.00  0.00    -0.252 OA
ATOM     17  N   UNL     1      -5.908  -4.806  -2.782  0.00  0.00    -0.269 N 
ATOM     18  H   UNL     1      -5.567  -5.654  -2.457  0.00  0.00    +0.156 HD
ATOM     19  H   UNL     1      -4.420  -0.721   1.921  0.00  0.00    +0.160 HD
ENDROOT
BRANCH   1  23
ATOM     20  C   UNL     1      -0.269  -1.476  -0.673  0.00  0.00    +0.120 A 
ATOM     21  C   UNL     1      -0.658  -2.754  -0.301  0.00  0.00    +0.046 A 
ATOM     22  C   UNL     1      -2.001  -3.066  -0.207  0.00  0.00    +0.009 A 
ATOM     23  C   UNL     1      -2.956  -2.106  -0.484  0.00  0.00    -0.024 A 
ATOM     24  C   UNL     1      -2.571  -0.831  -0.855  0.00  0.00    +0.009 A 
ATOM     25  C   UNL     1      -1.229  -0.512  -0.945  0.00  0.00    +0.046 A 
BRANCH  20  27
ATOM     26  C   UNL     1       1.984  -2.208  -0.472  0.00  0.00    +0.277 C 
ATOM     27  O   UNL     1       1.051  -1.166  -0.766  0.00  0.00    -0.495 OA
ENDBRANCH  20  27
ENDBRANCH   1  23
BRANCH  17  28
ATOM     28  C   UNL     1      -6.750  -4.772  -3.902  0.00  0.00    +0.038 A 
ATOM     29  C   UNL     1      -7.594  -3.688  -4.103  0.00  0.00    +0.027 A 
ATOM     30  C   UNL     1      -8.424  -3.652  -5.207  0.00  0.00    +0.051 A 
ATOM     31  C   UNL     1      -8.416  -4.698  -6.116  0.00  0.00    +0.162 A 
ATOM     32  C   UNL     1      -7.572  -5.786  -5.917  0.00  0.00    +0.163 A 
ATOM     33  C   UNL     1      -6.735  -5.819  -4.813  0.00  0.00    +0.072 A 
BRANCH  32  34
ATOM     34  O   UNL     1      -7.563  -6.813  -6.808  0.00  0.00    -0.491 OA
ATOM     35  C   UNL     1      -6.671  -7.897  -6.540  0.00  0.00    +0.277 C 
ENDBRANCH  32  34
BRANCH  31  36
ATOM     36  O   UNL     1      -9.235  -4.662  -7.202  0.00  0.00    -0.491 OA
ATOM     37  C   UNL     1     -10.076  -3.515  -7.343  0.00  0.00    +0.277 C 
ENDBRANCH  31  36
ENDBRANCH  17  28
TORSDOF 5
