REMARK  Name = ZINC67119046
REMARK  7 active torsions:
REMARK  status: ('A' for Active; 'I' for Inactive)
REMARK    1  A    between atoms: C_1  and  C_2
REMARK    2  A    between atoms: C_4  and  C_10
REMARK    3  A    between atoms: C_5  and  O_9
REMARK    4  A    between atoms: N_12  and  C_13
REMARK    5  A    between atoms: C_13  and  C_14
REMARK    6  A    between atoms: C_14  and  C_15
REMARK    7  A    between atoms: N_19  and  C_20
REMARK                            x       y       z     vdW  Elec       q    Type
REMARK                         _______ _______ _______ _____ _____    ______ ____
ROOT
ATOM      1  C   UNL     1       0.028  -2.813  -2.487  0.00  0.00    +0.248 C 
ATOM      2  O   UNL     1       0.044  -4.029  -2.491  0.00  0.00    -0.270 OA
ATOM      3  N   UNL     1       0.013  -2.135  -3.652  0.00  0.00    -0.311 N 
ATOM      4  H   UNL     1      -0.000  -1.165  -3.648  0.00  0.00    +0.149 HD
ENDROOT
BRANCH   1   8
ATOM      5  C   UNL     1      -0.018   1.503   0.010  0.00  0.00    +0.044 C 
ATOM      6  C   UNL     1       0.002  -0.004   0.002  0.00  0.00    -0.048 A 
ATOM      7  C   UNL     1       0.006  -0.683  -1.197  0.00  0.00    +0.020 A 
ATOM      8  C   UNL     1       0.025  -2.080  -1.207  0.00  0.00    +0.079 A 
ATOM      9  C   UNL     1       0.040  -2.781   0.007  0.00  0.00    +0.143 A 
ATOM     10  C   UNL     1       0.036  -2.081   1.205  0.00  0.00    +0.060 A 
ATOM     11  C   UNL     1       0.023  -0.700   1.200  0.00  0.00    +0.022 A 
ATOM     12 BR   UNL     1       0.056  -3.019   2.847  0.00  0.00    -0.046 Br
BRANCH   9  13
ATOM     13  O   UNL     1       0.058  -4.138   0.010  0.00  0.00    -0.505 OA
ATOM     14  H   UNL     1       0.946  -4.519   0.006  0.00  0.00    +0.292 HD
ENDBRANCH   9  13
ENDBRANCH   1   8
BRANCH   3  15
ATOM     15  C   UNL     1       0.016  -2.863  -4.923  0.00  0.00    +0.112 C 
BRANCH  15  16
ATOM     16  C   UNL     1      -0.003  -1.865  -6.082  0.00  0.00    +0.095 C 
BRANCH  16  17
ATOM     17  C   UNL     1       0.000  -2.614  -7.390  0.00  0.00    +0.133 A 
ATOM     18  N   UNL     1       0.011  -3.901  -7.521  0.00  0.00    -0.159 NA
ATOM     19  N   UNL     1       0.011  -4.201  -8.890  0.00  0.00    -0.254 N 
ATOM     20  C   UNL     1      -0.001  -3.028  -9.557  0.00  0.00    +0.175 A 
ATOM     21  N   UNL     1      -0.014  -2.042  -8.639  0.00  0.00    -0.310 N 
ATOM     22  C   UNL     1      -0.035  -0.605  -8.923  0.00  0.00    +0.152 C 
ATOM     23  S   UNL     1      -0.007  -2.829 -11.258  0.00  0.00    -0.011 S 
ATOM     24  H   UNL     1       0.018  -5.087  -9.285  0.00  0.00    +0.191 HD
ENDBRANCH  16  17
ENDBRANCH  15  16
ENDBRANCH   3  15
TORSDOF 5
