REMARK  Name = ZINC04213724
REMARK  10 active torsions:
REMARK  status: ('A' for Active; 'I' for Inactive)
REMARK    1  A    between atoms: C_1  and  O_2
REMARK    2  A    between atoms: O_2  and  C_3
REMARK    3  A    between atoms: C_3  and  C_4
REMARK    4  A    between atoms: C_4  and  N_5
REMARK    5  A    between atoms: C_6  and  C_8
REMARK    6  A    between atoms: C_8  and  N_9
REMARK    7  A    between atoms: N_9  and  C_10
REMARK    8  A    between atoms: C_17  and  C_19
REMARK    9  A    between atoms: C_20  and  N_27
REMARK   10  A    between atoms: C_21  and  C_24
REMARK                            x       y       z     vdW  Elec       q    Type
REMARK                         _______ _______ _______ _____ _____    ______ ____
ROOT
ATOM      1  N   UNL     1       4.640   0.916   0.065  0.00  0.00    -0.258 N 
ATOM      2  C   UNL     1       3.869  -0.168  -0.154  0.00  0.00    +0.261 C 
ATOM      3  O   UNL     1       2.667  -0.041  -0.298  0.00  0.00    -0.269 OA
ENDROOT
BRANCH   1   4
ATOM      4  C   UNL     1       4.048   2.172   0.237  0.00  0.00    +0.037 A 
ATOM      5  C   UNL     1       4.839   3.311   0.299  0.00  0.00    +0.026 A 
ATOM      6  C   UNL     1       4.252   4.551   0.463  0.00  0.00    +0.040 A 
ATOM      7  C   UNL     1       2.876   4.657   0.577  0.00  0.00    +0.124 A 
ATOM      8  C   UNL     1       2.086   3.521   0.522  0.00  0.00    +0.040 A 
ATOM      9  C   UNL     1       2.668   2.281   0.352  0.00  0.00    +0.026 A 
ATOM     10  F   UNL     1       2.305   5.870   0.743  0.00  0.00    -0.205 F 
ENDBRANCH   1   4
BRANCH   2  11
ATOM     11  C   UNL     1       4.478  -1.498  -0.217  0.00  0.00    +0.116 A 
ATOM     12  C   UNL     1       3.864  -2.749  -0.298  0.00  0.00    +0.076 A 
ATOM     13  C   UNL     1       4.786  -3.795  -0.341  0.00  0.00    +0.155 A 
ATOM     14  N   UNL     1       6.071  -3.521  -0.304  0.00  0.00    -0.203 NA
ATOM     15  S   UNL     1       6.200  -1.953  -0.214  0.00  0.00    +0.019 S 
BRANCH  13  16
ATOM     16  C   UNL     1       4.324  -5.193  -0.427  0.00  0.00    +0.262 C 
ATOM     17  O   UNL     1       3.134  -5.439  -0.460  0.00  0.00    -0.269 OA
ATOM     18  N   UNL     1       5.221  -6.197  -0.468  0.00  0.00    -0.324 N 
ATOM     19  H   UNL     1       6.171  -6.001  -0.441  0.00  0.00    +0.145 HD
ATOM     20  H   UNL     1       4.918  -7.117  -0.524  0.00  0.00    +0.145 HD
ENDBRANCH  13  16
BRANCH  12  21
ATOM     21  N   UNL     1       2.488  -2.933  -0.331  0.00  0.00    -0.355 N 
ATOM     22  H   UNL     1       2.119  -3.828  -0.388  0.00  0.00    +0.142 HD
ATOM     23  H   UNL     1       1.895  -2.165  -0.298  0.00  0.00    +0.142 HD
ENDBRANCH  12  21
ENDBRANCH   2  11
BRANCH   1  24
ATOM     24  C   UNL     1       6.097   0.779   0.122  0.00  0.00    +0.209 C 
BRANCH  24  26
ATOM     25  N   UNL     1       7.986   0.669  -1.471  0.00  0.00    -0.312 N 
ATOM     26  C   UNL     1       6.658   0.784  -1.277  0.00  0.00    +0.231 C 
ATOM     27  O   UNL     1       5.913   0.891  -2.228  0.00  0.00    -0.274 OA
ATOM     28  H   UNL     1       8.582   0.583  -0.710  0.00  0.00    +0.149 HD
BRANCH  25  29
ATOM     29  C   UNL     1       8.531   0.674  -2.831  0.00  0.00    +0.132 C 
BRANCH  29  30
ATOM     30  C   UNL     1      10.053   0.531  -2.771  0.00  0.00    +0.178 C 
BRANCH  30  32
ATOM     31  C   UNL     1      11.797  -0.986  -2.134  0.00  0.00    +0.194 C 
ATOM     32  O   UNL     1      10.391  -0.749  -2.233  0.00  0.00    -0.381 OA
ENDBRANCH  30  32
ENDBRANCH  29  30
ENDBRANCH  25  29
ENDBRANCH  24  26
ENDBRANCH   1  24
TORSDOF 9
