REMARK  Name = ZINC24762241
REMARK  11 active torsions:
REMARK  status: ('A' for Active; 'I' for Inactive)
REMARK    1  A    between atoms: C_1  and  C_2
REMARK    2  A    between atoms: C_10  and  C_35
REMARK    3  A    between atoms: C_11  and  C_12
REMARK    4  A    between atoms: C_12  and  C_13
REMARK    5  A    between atoms: N_15  and  C_16
REMARK    6  A    between atoms: C_18  and  S_23
REMARK    7  A    between atoms: C_21  and  O_22
REMARK    8  A    between atoms: S_23  and  N_26
REMARK    9  A    between atoms: N_26  and  C_27
REMARK   10  A    between atoms: C_32  and  O_33
REMARK   11  A    between atoms: O_33  and  C_34
REMARK                            x       y       z     vdW  Elec       q    Type
REMARK                         _______ _______ _______ _____ _____    ______ ____
ROOT
ATOM      1  C   UNL     1       2.151   3.296   3.547  0.00  0.00    +0.077 A 
ATOM      2  C   UNL     1       2.085   2.442   2.456  0.00  0.00    +0.055 A 
ATOM      3  C   UNL     1       1.486   2.864   1.284  0.00  0.00    +0.110 A 
ATOM      4  C   UNL     1       0.955   4.137   1.195  0.00  0.00    +0.032 A 
ATOM      5  C   UNL     1       1.012   4.992   2.280  0.00  0.00    +0.049 A 
ATOM      6  C   UNL     1       1.611   4.577   3.458  0.00  0.00    +0.138 A 
ENDROOT
BRANCH   1   9
ATOM      7  C   UNL     1       3.819   2.042   4.692  0.00  0.00    +0.222 C 
ATOM      8  O   UNL     1       4.200   1.601   3.629  0.00  0.00    -0.275 OA
ATOM      9  N   UNL     1       2.758   2.871   4.737  0.00  0.00    -0.282 N 
ATOM     10  H   UNL     1       2.368   3.214   5.706  0.00  0.00    +0.155 HD
BRANCH   7  11
ATOM     11  C   UNL     1       4.533   1.663   5.965  0.00  0.00    +0.133 C 
BRANCH  11  22
ATOM     12  C   UNL     1       7.161   2.727   5.383  0.00  0.00    +0.045 C 
ATOM     13  C   UNL     1       6.913   1.241   5.369  0.00  0.00    -0.036 A 
ATOM     14  C   UNL     1       7.950   0.337   5.073  0.00  0.00    +0.002 A 
ATOM     15  C   UNL     1       9.249   0.785   4.782  0.00  0.00    +0.010 A 
ATOM     16  C   UNL     1      10.226  -0.121   4.500  0.00  0.00    +0.001 A 
ATOM     17  C   UNL     1       9.954  -1.488   4.498  0.00  0.00    +0.002 A 
ATOM     18  C   UNL     1       8.707  -1.956   4.776  0.00  0.00    +0.026 A 
ATOM     19  C   UNL     1       7.671  -1.052   5.071  0.00  0.00    +0.047 A 
ATOM     20  N   UNL     1       6.437  -1.483   5.348  0.00  0.00    -0.358 N 
ATOM     21  C   UNL     1       5.469  -0.644   5.629  0.00  0.00    +0.017 A 
ATOM     22  C   UNL     1       5.675   0.734   5.642  0.00  0.00    -0.016 A 
ATOM     23  C   UNL     1       4.097  -1.185   5.940  0.00  0.00    +0.063 C 
ATOM     24  H   UNL     1       6.216  -2.561   5.343  0.00  0.00    +0.166 HD
ENDBRANCH  11  22
ENDBRANCH   7  11
ENDBRANCH   1   9
BRANCH   3  25
ATOM     25  S   UNL     1       1.404   1.778  -0.101  0.00  0.00    +0.073 S 
ATOM     26  O   UNL     1       2.460   0.839   0.056  0.00  0.00    -0.150 OA
ATOM     27  O   UNL     1       1.279   2.599  -1.254  0.00  0.00    -0.150 OA
BRANCH  25  28
ATOM     28  N   UNL     1      -0.010   0.925   0.028  0.00  0.00    -0.213 N 
ATOM     29  H   UNL     1       0.015  -0.172   0.110  0.00  0.00    +0.174 HD
BRANCH  28  30
ATOM     30  C   UNL     1      -1.236   1.600   0.033  0.00  0.00    +0.090 A 
ATOM     31  C   UNL     1      -1.408   2.735  -0.745  0.00  0.00    +0.028 A 
ATOM     32  C   UNL     1      -2.622   3.397  -0.743  0.00  0.00    +0.002 A 
ATOM     33  C   UNL     1      -3.662   2.937   0.042  0.00  0.00    +0.004 A 
ATOM     34  C   UNL     1      -3.496   1.808   0.825  0.00  0.00    +0.047 A 
ATOM     35  C   UNL     1      -2.285   1.137   0.824  0.00  0.00    +0.142 A 
BRANCH  35  36
ATOM     36  O   UNL     1      -2.120   0.028   1.594  0.00  0.00    -0.493 OA
ATOM     37  C   UNL     1      -3.239  -0.389   2.379  0.00  0.00    +0.277 C 
ENDBRANCH  35  36
ENDBRANCH  28  30
ENDBRANCH  25  28
ENDBRANCH   3  25
BRANCH   6  38
ATOM     38  O   UNL     1       1.673   5.419   4.524  0.00  0.00    -0.505 OA
ATOM     39  H   UNL     1       1.246   6.430   4.452  0.00  0.00    +0.292 HD
ENDBRANCH   6  38
TORSDOF 8
