REMARK  Name = ZINC67287486
REMARK  10 active torsions:
REMARK  status: ('A' for Active; 'I' for Inactive)
REMARK    1  A    between atoms: C_1  and  C_2
REMARK    2  A    between atoms: C_2  and  O_3
REMARK    3  A    between atoms: O_3  and  C_4
REMARK    4  A    between atoms: C_4  and  C_6
REMARK    5  A    between atoms: C_7  and  C_22
REMARK    6  A    between atoms: C_12  and  C_14
REMARK    7  A    between atoms: C_19  and  O_20
REMARK    8  A    between atoms: O_20  and  C_21
REMARK    9  A    between atoms: C_22  and  N_23
REMARK   10  A    between atoms: N_26  and  C_29
REMARK                            x       y       z     vdW  Elec       q    Type
REMARK                         _______ _______ _______ _____ _____    ______ ____
ROOT
ATOM      1  C   UNL     1      -3.017  -2.189  -0.129  0.00  0.00    +0.079 C 
ATOM      2  C   UNL     1      -3.308  -3.503  -0.245  0.00  0.00    +0.038 C 
ATOM      3  N   UNL     1      -4.594  -3.952  -0.152  0.00  0.00    -0.271 N 
ATOM      4  C   UNL     1      -5.646  -3.150   0.057  0.00  0.00    +0.304 C 
ATOM      5  O   UNL     1      -6.755  -3.643   0.126  0.00  0.00    -0.252 OA
ATOM      6  N   UNL     1      -5.516  -1.816   0.194  0.00  0.00    -0.288 N 
ATOM      7  C   UNL     1      -4.166  -1.232   0.115  0.00  0.00    +0.147 C 
ATOM      8  H   UNL     1      -4.754  -4.904  -0.242  0.00  0.00    +0.156 HD
ATOM      9  H   UNL     1      -6.292  -1.254   0.344  0.00  0.00    +0.151 HD
ENDROOT
BRANCH   7  10
ATOM     10  C   UNL     1      -4.169  -0.217  -0.999  0.00  0.00    +0.019 A 
ATOM     11  C   UNL     1      -4.949  -0.423  -2.121  0.00  0.00    +0.009 A 
ATOM     12  C   UNL     1      -4.952   0.508  -3.143  0.00  0.00    +0.001 A 
ATOM     13  C   UNL     1      -4.175   1.648  -3.045  0.00  0.00    +0.004 A 
ATOM     14  C   UNL     1      -3.394   1.859  -1.926  0.00  0.00    +0.046 A 
ATOM     15  C   UNL     1      -3.393   0.928  -0.896  0.00  0.00    +0.125 A 
BRANCH  15  16
ATOM     16  O   UNL     1      -2.630   1.137   0.209  0.00  0.00    -0.495 OA
ATOM     17  C   UNL     1      -1.931   2.381   0.290  0.00  0.00    +0.277 C 
ENDBRANCH  15  16
ENDBRANCH   7  10
BRANCH   1  18
ATOM     18  C   UNL     1      -1.685  -1.724  -0.225  0.00  0.00    +0.339 C 
ATOM     19  O   UNL     1      -1.066  -1.437   0.782  0.00  0.00    -0.245 OA
BRANCH  18  20
ATOM     20  O   UNL     1      -1.100  -1.597  -1.435  0.00  0.00    -0.462 OA
BRANCH  20  22
ATOM     21  C   UNL     1       0.734  -1.022  -2.900  0.00  0.00    +0.048 C 
ATOM     22  C   UNL     1       0.279  -1.223  -1.453  0.00  0.00    +0.229 C 
ENDBRANCH  20  22
ENDBRANCH  18  20
ENDBRANCH   1  18
BRANCH   2  23
ATOM     23  C   UNL     1      -2.194  -4.490  -0.483  0.00  0.00    +0.135 C 
BRANCH  23  24
ATOM     24  N   UNL     1      -2.075  -5.384   0.677  0.00  0.00    -0.300 NA
ATOM     25  C   UNL     1      -1.632  -4.645   1.868  0.00  0.00    +0.066 C 
ATOM     26  C   UNL     1      -1.579  -5.597   3.065  0.00  0.00    -0.063 C 
ATOM     27  N   UNL     1      -0.649  -6.696   2.775  0.00  0.00    +0.383 N 
ATOM     28  C   UNL     1      -1.118  -7.440   1.598  0.00  0.00    -0.063 C 
ATOM     29  C   UNL     1      -1.167  -6.503   0.389  0.00  0.00    +0.066 C 
ATOM     30  H   UNL     1       0.269  -6.320   2.591  0.00  0.00    -0.081 HD
BRANCH  27  31
ATOM     31  C   UNL     1      -0.585  -7.600   3.931  0.00  0.00    -0.068 C 
ATOM     32  C   UNL     1      -0.095  -6.826   5.157  0.00  0.00    -0.015 C 
ATOM     33  C   UNL     1      -0.028  -7.768   6.361  0.00  0.00    -0.002 C 
ATOM     34  C   UNL     1       0.941  -8.913   6.060  0.00  0.00    -0.000 C 
ATOM     35  C   UNL     1       0.451  -9.687   4.834  0.00  0.00    -0.002 C 
ATOM     36  C   UNL     1       0.384  -8.745   3.630  0.00  0.00    -0.015 C 
ENDBRANCH  27  31
ENDBRANCH  23  24
ENDBRANCH   2  23
TORSDOF 8
