REMARK  Name = ZINC63262648
REMARK  6 active torsions:
REMARK  status: ('A' for Active; 'I' for Inactive)
REMARK    1  A    between atoms: C_1  and  C_2
REMARK    2  A    between atoms: C_5  and  C_16
REMARK    3  A    between atoms: C_6  and  C_15
REMARK    4  A    between atoms: N_7  and  C_8
REMARK    5  A    between atoms: N_17  and  N_18
REMARK    6  A    between atoms: C_19  and  C_21
REMARK                            x       y       z     vdW  Elec       q    Type
REMARK                         _______ _______ _______ _____ _____    ______ ____
ROOT
ATOM      1  C   UNL     1      -2.388  -2.430   1.594  0.00  0.00    +0.135 C 
ATOM      2  N   UNL     1      -2.151  -3.366   2.472  0.00  0.00    -0.188 NA
ENDROOT
BRANCH   1   6
ATOM      3  C   UNL     1      -0.227   1.700   0.527  0.00  0.00    +0.029 C 
ATOM      4  C   UNL     1      -0.078   0.217   0.182  0.00  0.00    +0.080 C 
ATOM      5  C   UNL     1      -1.457  -0.470   0.150  0.00  0.00    +0.060 C 
ATOM      6  C   UNL     1      -1.363  -1.524   1.231  0.00  0.00    -0.009 C 
ATOM      7  C   UNL     1      -0.145  -1.457   1.788  0.00  0.00    +0.013 C 
ATOM      8  N   UNL     1       0.655  -0.486   1.244  0.00  0.00    -0.300 N 
ATOM      9  C   UNL     1       0.302  -2.363   2.906  0.00  0.00    +0.061 C 
BRANCH   8  10
ATOM     10  C   UNL     1       1.966  -0.207   1.637  0.00  0.00    +0.034 A 
ATOM     11  C   UNL     1       3.022  -0.468   0.773  0.00  0.00    +0.024 A 
ATOM     12  C   UNL     1       4.317  -0.190   1.165  0.00  0.00    +0.016 A 
ATOM     13  C   UNL     1       4.562   0.348   2.416  0.00  0.00    +0.013 A 
ATOM     14  C   UNL     1       3.513   0.609   3.278  0.00  0.00    +0.016 A 
ATOM     15  C   UNL     1       2.215   0.339   2.891  0.00  0.00    +0.024 A 
ATOM     16  I   UNL     1       6.528   0.768   3.006  0.00  0.00    -0.044 I 
ENDBRANCH   8  10
ENDBRANCH   1   6
BRANCH   2  17
ATOM     17  N   UNL     1      -3.167  -4.262   2.831  0.00  0.00    -0.203 N 
ATOM     18  C   UNL     1      -2.922  -5.229   3.738  0.00  0.00    +0.262 C 
ATOM     19  O   UNL     1      -1.819  -5.323   4.245  0.00  0.00    -0.269 OA
ATOM     20  H   UNL     1      -4.045  -4.187   2.427  0.00  0.00    +0.178 HD
BRANCH  18  21
ATOM     21  C   UNL     1      -3.982  -6.165   4.113  0.00  0.00    +0.044 C 
ATOM     22  C   UNL     1      -3.898  -7.200   5.023  0.00  0.00    +0.008 A 
ATOM     23  C   UNL     1      -2.845  -7.678   5.842  0.00  0.00    +0.010 A 
ATOM     24  C   UNL     1      -3.045  -8.735   6.659  0.00  0.00    +0.001 A 
ATOM     25  C   UNL     1      -4.276  -9.403   6.739  0.00  0.00    +0.002 A 
ATOM     26  C   UNL     1      -5.343  -9.026   5.999  0.00  0.00    +0.026 A 
ATOM     27  C   UNL     1      -5.211  -7.883   5.084  0.00  0.00    +0.043 A 
ATOM     28  N   UNL     1      -6.060  -7.317   4.270  0.00  0.00    -0.380 N 
ATOM     29  C   UNL     1      -5.402  -6.197   3.590  0.00  0.00    +0.154 C 
ATOM     30  H   UNL     1      -6.981  -7.591   4.138  0.00  0.00    +0.160 HD
ENDBRANCH  18  21
ENDBRANCH   2  17
TORSDOF 4
