REMARK  Name = ZINC56122885
REMARK  10 active torsions:
REMARK  status: ('A' for Active; 'I' for Inactive)
REMARK    1  A    between atoms: C_1  and  C_2
REMARK    2  A    between atoms: C_2  and  C_3
REMARK    3  A    between atoms: C_6  and  C_9
REMARK    4  A    between atoms: N_11  and  C_12
REMARK    5  A    between atoms: C_13  and  C_17
REMARK    6  A    between atoms: N_19  and  C_20
REMARK    7  A    between atoms: C_20  and  C_21
REMARK    8  A    between atoms: C_21  and  C_22
REMARK    9  A    between atoms: C_22  and  N_23
REMARK   10  A    between atoms: C_27  and  C_28
REMARK                            x       y       z     vdW  Elec       q    Type
REMARK                         _______ _______ _______ _____ _____    ______ ____
ROOT
ATOM      1  C   UNL     1       4.674  -2.521  -5.850  0.00  0.00    +0.084 A 
ATOM      2  C   UNL     1       6.025  -2.796  -6.011  0.00  0.00    +0.065 A 
ATOM      3  C   UNL     1       6.440  -3.254  -7.317  0.00  0.00    +0.022 A 
ATOM      4  C   UNL     1       5.464  -3.363  -8.238  0.00  0.00    +0.048 A 
ATOM      5  S   UNL     1       4.006  -2.861  -7.351  0.00  0.00    -0.081 S 
ENDROOT
BRANCH   1   8
ATOM      6  C   UNL     1       2.695  -1.861  -4.732  0.00  0.00    +0.249 C 
ATOM      7  O   UNL     1       2.064  -2.063  -5.751  0.00  0.00    -0.270 OA
ATOM      8  N   UNL     1       4.026  -2.073  -4.711  0.00  0.00    -0.275 N 
ATOM      9  H   UNL     1       4.530  -1.912  -3.898  0.00  0.00    +0.156 HD
BRANCH   6  13
ATOM     10  C   UNL     1       0.707  -0.490  -1.238  0.00  0.00    -0.048 A 
ATOM     11  C   UNL     1      -0.014  -0.718  -2.396  0.00  0.00    +0.004 A 
ATOM     12  C   UNL     1       0.625  -1.163  -3.535  0.00  0.00    +0.013 A 
ATOM     13  C   UNL     1       2.004  -1.384  -3.516  0.00  0.00    +0.037 A 
ATOM     14  C   UNL     1       2.726  -1.151  -2.344  0.00  0.00    +0.013 A 
ATOM     15  C   UNL     1       2.075  -0.701  -1.214  0.00  0.00    +0.004 A 
BRANCH  10  17
ATOM     16  C   UNL     1      -0.019   1.526   0.010  0.00  0.00    +0.009 C 
ATOM     17  C   UNL     1       0.002  -0.004   0.002  0.00  0.00    +0.032 C 
ENDBRANCH  10  17
ENDBRANCH   6  13
ENDBRANCH   1   8
BRANCH   2  18
ATOM     18  C   UNL     1       6.981  -2.631  -4.912  0.00  0.00    +0.246 C 
ATOM     19  O   UNL     1       6.597  -2.243  -3.824  0.00  0.00    -0.270 OA
ATOM     20  N   UNL     1       8.286  -2.909  -5.107  0.00  0.00    -0.311 N 
ATOM     21  H   UNL     1       8.592  -3.218  -5.974  0.00  0.00    +0.149 HD
BRANCH  20  22
ATOM     22  C   UNL     1       9.241  -2.744  -4.009  0.00  0.00    +0.106 C 
BRANCH  22  23
ATOM     23  C   UNL     1      10.643  -3.123  -4.491  0.00  0.00    +0.040 C 
BRANCH  23  24
ATOM     24  C   UNL     1      11.641  -2.951  -3.344  0.00  0.00    +0.124 C 
BRANCH  24  25
ATOM     25  N   UNL     1      12.983  -3.315  -3.806  0.00  0.00    -0.336 N 
ATOM     26  C   UNL     1      13.585  -4.537  -3.672  0.00  0.00    +0.104 A 
ATOM     27  C   UNL     1      14.805  -4.434  -4.232  0.00  0.00    +0.101 A 
ATOM     28  N   UNL     1      14.944  -3.183  -4.696  0.00  0.00    -0.350 N 
ATOM     29  C   UNL     1      13.855  -2.509  -4.449  0.00  0.00    +0.084 A 
ATOM     30  C   UNL     1      13.612  -1.067  -4.817  0.00  0.00    +0.084 C 
ATOM     31  H   UNL     1      15.729  -2.836  -5.148  0.00  0.00    +0.166 HD
ENDBRANCH  24  25
ENDBRANCH  23  24
ENDBRANCH  22  23
ENDBRANCH  20  22
ENDBRANCH   2  18
TORSDOF 8
