REMARK  Name = ZINC15957835
REMARK  7 active torsions:
REMARK  status: ('A' for Active; 'I' for Inactive)
REMARK    1  A    between atoms: C_1  and  C_2
REMARK    2  A    between atoms: C_6  and  N_9
REMARK    3  A    between atoms: C_7  and  C_8
REMARK    4  A    between atoms: C_14  and  C_31
REMARK    5  A    between atoms: C_31  and  C_32
REMARK    6  A    between atoms: C_32  and  S_33
REMARK    7  A    between atoms: S_33  and  C_34
REMARK                            x       y       z     vdW  Elec       q    Type
REMARK                         _______ _______ _______ _____ _____    ______ ____
ROOT
ATOM      1  N   UNL     1       0.050  -2.798   2.395  0.00  0.00    -0.210 N 
ATOM      2  C   UNL     1      -1.067  -3.184   3.022  0.00  0.00    +0.232 C 
ATOM      3  O   UNL     1      -2.196  -2.970   2.635  0.00  0.00    -0.274 OA
ATOM      4  C   UNL     1      -0.703  -3.928   4.286  0.00  0.00    +0.107 C 
ATOM      5  C   UNL     1      -1.138  -3.096   5.511  0.00  0.00    +0.068 C 
ATOM      6  N   UNL     1       0.004  -2.183   5.778  0.00  0.00    -0.295 NA
ATOM      7  C   UNL     1       1.197  -3.009   5.516  0.00  0.00    +0.136 C 
ATOM      8  C   UNL     1       0.851  -3.890   4.290  0.00  0.00    +0.123 C 
ATOM      9  C   UNL     1       1.183  -3.150   3.014  0.00  0.00    +0.233 C 
ATOM     10  O   UNL     1       2.303  -2.909   2.615  0.00  0.00    -0.274 OA
ATOM     11  C   UNL     1       1.559  -3.849   6.707  0.00  0.00    +0.003 A 
ATOM     12  C   UNL     1       0.888  -4.814   7.426  0.00  0.00    +0.008 A 
ATOM     13  C   UNL     1       1.503  -5.426   8.504  0.00  0.00    +0.000 A 
ATOM     14  C   UNL     1       2.790  -5.066   8.858  0.00  0.00    +0.002 A 
ATOM     15  C   UNL     1       3.465  -4.100   8.141  0.00  0.00    +0.023 A 
ATOM     16  C   UNL     1       2.854  -3.479   7.054  0.00  0.00    +0.039 A 
ATOM     17  N   UNL     1       3.323  -2.490   6.187  0.00  0.00    -0.283 N 
ATOM     18  C   UNL     1       2.409  -2.157   5.255  0.00  0.00    +0.243 C 
ATOM     19  O   UNL     1       2.538  -1.331   4.376  0.00  0.00    -0.273 OA
ATOM     20  H   UNL     1      -0.023  -1.382   5.165  0.00  0.00    +0.123 HD
ATOM     21  H   UNL     1       4.204  -2.088   6.249  0.00  0.00    +0.155 HD
ENDROOT
BRANCH   1  27
ATOM     22  C   UNL     1      -0.018   1.503   0.010  0.00  0.00    +0.044 C 
ATOM     23  C   UNL     1       0.002  -0.004   0.002  0.00  0.00    -0.046 A 
ATOM     24  C   UNL     1       0.006  -0.688  -1.200  0.00  0.00    +0.004 A 
ATOM     25  C   UNL     1       0.024  -2.071  -1.211  0.00  0.00    +0.002 A 
ATOM     26  C   UNL     1       0.039  -2.773  -0.022  0.00  0.00    +0.024 A 
ATOM     27  C   UNL     1       0.035  -2.089   1.186  0.00  0.00    +0.047 A 
ATOM     28  C   UNL     1       0.023  -0.700   1.194  0.00  0.00    -0.026 A 
ATOM     29  C   UNL     1       0.025   0.046   2.504  0.00  0.00    +0.046 C 
ENDBRANCH   1  27
BRANCH   5  30
ATOM     30  C   UNL     1      -2.401  -2.295   5.189  0.00  0.00    +0.030 C 
BRANCH  30  31
ATOM     31  C   UNL     1      -2.885  -1.577   6.451  0.00  0.00    +0.070 C 
BRANCH  31  32
ATOM     32  S   UNL     1      -4.382  -0.626   6.069  0.00  0.00    -0.164 S 
ATOM     33  C   UNL     1      -4.821   0.154   7.647  0.00  0.00    +0.084 C 
ENDBRANCH  31  32
ENDBRANCH  30  31
ENDBRANCH   5  30
TORSDOF 4
