REMARK  Name = ZINC03830582
REMARK  14 active torsions:
REMARK  status: ('A' for Active; 'I' for Inactive)
REMARK    1  A    between atoms: C_1  and  C_2
REMARK    2  A    between atoms: C_2  and  C_3
REMARK    3  A    between atoms: C_3  and  C_4
REMARK    4  A    between atoms: C_7  and  C_12
REMARK    5  A    between atoms: N_9  and  C_11
REMARK    6  A    between atoms: N_14  and  C_15
REMARK    7  A    between atoms: C_15  and  C_17
REMARK    8  A    between atoms: C_15  and  C_33
REMARK    9  A    between atoms: C_19  and  O_32
REMARK   10  A    between atoms: C_21  and  O_31
REMARK   11  A    between atoms: C_23  and  O_30
REMARK   12  A    between atoms: C_25  and  S_28
REMARK   13  A    between atoms: S_28  and  C_29
REMARK   14  A    between atoms: C_33  and  C_35
REMARK                            x       y       z     vdW  Elec       q    Type
REMARK                         _______ _______ _______ _____ _____    ______ ____
ROOT
ATOM      1  C   UNL     1       1.505  -6.264  -1.235  0.00  0.00    +0.122 C 
ENDROOT
BRANCH   1   2
ATOM      2  C   UNL     1       2.366  -6.699  -2.423  0.00  0.00    +0.172 C 
ATOM      3  C   UNL     1       1.467  -7.267  -3.524  0.00  0.00    +0.176 C 
ATOM      4  C   UNL     1       2.340  -7.755  -4.684  0.00  0.00    +0.177 C 
ATOM      5  C   UNL     1       3.338  -8.791  -4.156  0.00  0.00    +0.184 C 
ATOM      6  C   UNL     1       4.165  -8.164  -3.031  0.00  0.00    +0.207 C 
ATOM      7  O   UNL     1       3.291  -7.703  -1.999  0.00  0.00    -0.356 OA
BRANCH   6   8
ATOM      8  S   UNL     1       5.301  -9.404  -2.352  0.00  0.00    -0.131 S 
ATOM      9  C   UNL     1       6.299  -8.476  -1.154  0.00  0.00    +0.087 C 
ENDBRANCH   6   8
BRANCH   5  10
ATOM     10  O   UNL     1       2.629  -9.925  -3.655  0.00  0.00    -0.386 OA
ATOM     11  H   UNL     1       3.200 -10.622  -3.304  0.00  0.00    +0.210 HD
ENDBRANCH   5  10
BRANCH   4  12
ATOM     12  O   UNL     1       1.514  -8.352  -5.686  0.00  0.00    -0.386 OA
ATOM     13  H   UNL     1       2.002  -8.684  -6.451  0.00  0.00    +0.210 HD
ENDBRANCH   4  12
BRANCH   3  14
ATOM     14  O   UNL     1       0.707  -8.360  -3.004  0.00  0.00    -0.387 OA
ATOM     15  H   UNL     1       0.114  -8.768  -3.649  0.00  0.00    +0.210 HD
ENDBRANCH   3  14
ENDBRANCH   1   2
BRANCH   1  18
ATOM     16  C   UNL     1      -0.597  -5.055  -0.998  0.00  0.00    +0.200 C 
ATOM     17  O   UNL     1      -0.852  -5.746  -0.034  0.00  0.00    -0.278 OA
ATOM     18  N   UNL     1       0.557  -5.235  -1.670  0.00  0.00    -0.310 N 
ATOM     19  H   UNL     1       0.761  -4.683  -2.441  0.00  0.00    +0.149 HD
BRANCH  16  22
ATOM     20  C   UNL     1      -1.413  -2.063   0.004  0.00  0.00    -0.029 C 
ATOM     21  C   UNL     1      -0.912  -2.605  -1.360  0.00  0.00    -0.005 C 
ATOM     22  C   UNL     1      -1.572  -3.997  -1.446  0.00  0.00    +0.019 C 
ATOM     23  N   UNL     1      -2.744  -3.980  -0.551  0.00  0.00    +0.386 N 
ATOM     24  C   UNL     1      -2.850  -2.638   0.062  0.00  0.00    -0.075 C 
ATOM     25  C   UNL     1      -3.960  -4.268  -1.324  0.00  0.00    -0.095 C 
ATOM     26  H   UNL     1      -2.630  -4.675   0.172  0.00  0.00    -0.081 HD
BRANCH  20  27
ATOM     27  C   UNL     1      -1.433  -0.534   0.013  0.00  0.00    +0.001 C 
BRANCH  27  29
ATOM     28  C   UNL     1      -0.019   1.526   0.010  0.00  0.00    +0.004 C 
ATOM     29  C   UNL     1       0.002  -0.004   0.002  0.00  0.00    -0.003 C 
ENDBRANCH  27  29
ENDBRANCH  20  27
ENDBRANCH  16  22
ENDBRANCH   1  18
BRANCH   1  30
ATOM     30  C   UNL     1       2.404  -5.697  -0.134  0.00  0.00    +0.100 C 
ATOM     31  C   UNL     1       1.543  -5.261   1.053  0.00  0.00    +0.026 C 
ATOM     32 CL   UNL     1       3.571  -6.963   0.401  0.00  0.00    -0.120 Cl
ENDBRANCH   1  30
TORSDOF 10
