REMARK  Name = ZINC03999068
REMARK  13 active torsions:
REMARK  status: ('A' for Active; 'I' for Inactive)
REMARK    1  A    between atoms: C_1  and  C_2
REMARK    2  A    between atoms: C_5  and  N_24
REMARK    3  A    between atoms: C_7  and  N_8
REMARK    4  A    between atoms: N_8  and  C_9
REMARK    5  A    between atoms: C_11  and  O_23
REMARK    6  A    between atoms: C_13  and  O_22
REMARK    7  A    between atoms: C_15  and  O_21
REMARK    8  A    between atoms: C_17  and  C_20
REMARK    9  A    between atoms: N_24  and  C_25
REMARK   10  A    between atoms: C_27  and  O_39
REMARK   11  A    between atoms: C_29  and  O_38
REMARK   12  A    between atoms: C_31  and  O_37
REMARK   13  A    between atoms: C_33  and  C_36
REMARK                            x       y       z     vdW  Elec       q    Type
REMARK                         _______ _______ _______ _____ _____    ______ ____
ROOT
ATOM      1  C   UNL     1      -2.846   2.424  -3.242  0.00  0.00    +0.045 C 
ATOM      2  C   UNL     1      -2.754   3.292  -2.014  0.00  0.00    -0.029 A 
ATOM      3  C   UNL     1      -3.550   4.416  -1.901  0.00  0.00    +0.007 A 
ATOM      4  C   UNL     1      -3.465   5.217  -0.779  0.00  0.00    +0.023 A 
ATOM      5  C   UNL     1      -2.581   4.892   0.243  0.00  0.00    +0.031 A 
ATOM      6  C   UNL     1      -1.784   3.761   0.136  0.00  0.00    +0.046 A 
ATOM      7  C   UNL     1      -1.873   2.958  -0.993  0.00  0.00    +0.034 A 
ENDROOT
BRANCH   7   8
ATOM      8  N   UNL     1      -1.072   1.819  -1.105  0.00  0.00    -0.317 N 
ATOM      9  H   UNL     1      -1.134   1.258  -1.894  0.00  0.00    +0.149 HD
BRANCH   8  10
ATOM     10  C   UNL     1      -0.139   1.471  -0.031  0.00  0.00    +0.235 C 
ATOM     11  C   UNL     1      -0.056  -0.052   0.100  0.00  0.00    +0.192 C 
ATOM     12  C   UNL     1       0.495  -0.639  -1.202  0.00  0.00    +0.178 C 
ATOM     13  C   UNL     1       1.858  -0.006  -1.499  0.00  0.00    +0.174 C 
ATOM     14  C   UNL     1       1.701   1.515  -1.568  0.00  0.00    +0.149 C 
ATOM     15  O   UNL     1       1.156   1.993  -0.337  0.00  0.00    -0.351 OA
ATOM     16  C   UNL     1       3.069   2.159  -1.805  0.00  0.00    +0.041 C 
BRANCH  13  17
ATOM     17  O   UNL     1       2.778  -0.345  -0.459  0.00  0.00    -0.387 OA
ATOM     18  H   UNL     1       3.664   0.024  -0.583  0.00  0.00    +0.210 HD
ENDBRANCH  13  17
BRANCH  12  19
ATOM     19  O   UNL     1       0.643  -2.054  -1.064  0.00  0.00    -0.386 OA
ATOM     20  H   UNL     1      -0.182  -2.518  -0.869  0.00  0.00    +0.210 HD
ENDBRANCH  12  19
BRANCH  11  21
ATOM     21  O   UNL     1      -1.359  -0.581   0.351  0.00  0.00    -0.385 OA
ATOM     22  H   UNL     1      -1.770  -0.247   1.160  0.00  0.00    +0.210 HD
ENDBRANCH  11  21
ENDBRANCH   8  10
ENDBRANCH   7   8
BRANCH   5  23
ATOM     23  N   UNL     1      -2.495   5.703   1.377  0.00  0.00    -0.317 N 
ATOM     24  H   UNL     1      -1.953   5.425   2.132  0.00  0.00    +0.149 HD
BRANCH  23  25
ATOM     25  C   UNL     1      -3.224   6.973   1.426  0.00  0.00    +0.235 C 
ATOM     26  C   UNL     1      -2.413   7.996   2.227  0.00  0.00    +0.192 C 
ATOM     27  C   UNL     1      -3.208   9.301   2.325  0.00  0.00    +0.178 C 
ATOM     28  C   UNL     1      -4.570   9.011   2.963  0.00  0.00    +0.174 C 
ATOM     29  C   UNL     1      -5.297   7.949   2.134  0.00  0.00    +0.149 C 
ATOM     30  O   UNL     1      -4.490   6.772   2.057  0.00  0.00    -0.351 OA
ATOM     31  C   UNL     1      -6.633   7.609   2.798  0.00  0.00    +0.041 C 
BRANCH  28  32
ATOM     32  O   UNL     1      -4.380   8.529   4.295  0.00  0.00    -0.387 OA
ATOM     33  H   UNL     1      -5.203   8.324   4.760  0.00  0.00    +0.210 HD
ENDBRANCH  28  32
BRANCH  27  34
ATOM     34  O   UNL     1      -2.492  10.238   3.133  0.00  0.00    -0.386 OA
ATOM     35  H   UNL     1      -1.616  10.463   2.791  0.00  0.00    +0.210 HD
ENDBRANCH  27  34
BRANCH  26  36
ATOM     36  O   UNL     1      -2.165   7.487   3.539  0.00  0.00    -0.385 OA
ATOM     37  H   UNL     1      -1.669   6.657   3.551  0.00  0.00    +0.210 HD
ENDBRANCH  26  36
ENDBRANCH  23  25
ENDBRANCH   5  23
TORSDOF 10
