REMARK  Name = ZINC05274707
REMARK  4 active torsions:
REMARK  status: ('A' for Active; 'I' for Inactive)
REMARK    1  A    between atoms: C_1  and  N_45
REMARK    2  A    between atoms: C_9  and  O_26
REMARK    3  A    between atoms: C_11  and  C_14
REMARK    4  A    between atoms: C_17  and  C_19
REMARK                            x       y       z     vdW  Elec       q    Type
REMARK                         _______ _______ _______ _____ _____    ______ ____
ROOT
ATOM      1  C   UNL     1      -1.705  -3.306  -0.223  0.00  0.00    -0.096 C 
ATOM      2  C   UNL     1       0.531  -2.641   0.426  0.00  0.00    -0.074 C 
ATOM      3  C   UNL     1       1.732  -1.801  -0.018  0.00  0.00    +0.018 C 
ATOM      4  C   UNL     1       1.316  -0.334  -0.009  0.00  0.00    -0.027 A 
ATOM      5  C   UNL     1       0.002  -0.004   0.002  0.00  0.00    -0.021 A 
ATOM      6  S   UNL     1      -0.022   1.768   0.012  0.00  0.00    -0.080 S 
ATOM      7  C   UNL     1       1.665   2.057  -0.003  0.00  0.00    +0.080 A 
ATOM      8  C   UNL     1       2.244   0.780  -0.010  0.00  0.00    +0.067 A 
ATOM      9  C   UNL     1       3.728   0.709  -0.010  0.00  0.00    +0.220 C 
ATOM     10  N   UNL     1       4.388   1.810  -0.250  0.00  0.00    -0.220 NA
ATOM     11  C   UNL     1       3.774   3.090  -0.581  0.00  0.00    +0.260 C 
ATOM     12  N   UNL     1       2.418   3.205  -0.013  0.00  0.00    -0.311 N 
ATOM     13  C   UNL     1      -1.154  -0.954   0.003  0.00  0.00    -0.036 C 
ATOM     14  H   UNL     1       2.077   4.045   0.333  0.00  0.00    +0.149 HD
ATOM     15  N   UNL     1      -0.645  -2.289  -0.395  0.00  0.00    +0.381 N 
ATOM     16  H   UNL     1      -0.367  -2.260  -1.383  0.00  0.00    -0.082 HD
ENDROOT
BRANCH  11  17
ATOM     17  C   UNL     1       3.693   3.223  -2.080  0.00  0.00    +0.148 A 
ATOM     18  C   UNL     1       4.526   2.643  -2.967  0.00  0.00    +0.049 A 
ATOM     19  C   UNL     1       4.094   3.028  -4.252  0.00  0.00    +0.050 A 
ATOM     20  C   UNL     1       3.010   3.829  -4.077  0.00  0.00    +0.135 A 
ATOM     21  O   UNL     1       2.775   3.934  -2.755  0.00  0.00    -0.456 OA
BRANCH  20  22
ATOM     22  C   UNL     1       2.223   4.470  -5.151  0.00  0.00    +0.017 A 
ATOM     23  C   UNL     1       2.575   4.278  -6.488  0.00  0.00    +0.013 A 
ATOM     24  C   UNL     1       1.833   4.874  -7.486  0.00  0.00    +0.021 A 
ATOM     25  C   UNL     1       0.747   5.670  -7.164  0.00  0.00    +0.041 A 
ATOM     26  C   UNL     1       0.396   5.869  -5.839  0.00  0.00    +0.021 A 
ATOM     27  C   UNL     1       1.127   5.274  -4.832  0.00  0.00    +0.013 A 
ATOM     28 CL   UNL     1      -0.177   6.424  -8.426  0.00  0.00    -0.084 Cl
ENDBRANCH  20  22
ENDBRANCH  11  17
BRANCH   9  29
ATOM     29  O   UNL     1       4.373  -0.456   0.230  0.00  0.00    -0.492 OA
ATOM     30  H   UNL     1       5.337  -0.384   0.205  0.00  0.00    +0.294 HD
ENDBRANCH   9  29
TORSDOF 3
