REMARK  Name = ZINC09387200
REMARK  13 active torsions:
REMARK  status: ('A' for Active; 'I' for Inactive)
REMARK    1  A    between atoms: C_1  and  N_59
REMARK    2  A    between atoms: C_2  and  N_59
REMARK    3  A    between atoms: C_3  and  C_4
REMARK    4  A    between atoms: C_3  and  N_59
REMARK    5  A    between atoms: C_4  and  C_5
REMARK    6  A    between atoms: C_5  and  N_6
REMARK    7  A    between atoms: C_10  and  O_18
REMARK    8  A    between atoms: C_13  and  O_16
REMARK    9  A    between atoms: O_16  and  C_17
REMARK   10  A    between atoms: O_18  and  C_19
REMARK   11  A    between atoms: C_20  and  C_22
REMARK   12  A    between atoms: C_22  and  S_23
REMARK   13  A    between atoms: S_23  and  C_26
REMARK                            x       y       z     vdW  Elec       q    Type
REMARK                         _______ _______ _______ _____ _____    ______ ____
ROOT
ATOM      1  N   UNL     1       4.395   4.524  -0.016  0.00  0.00    -0.249 N 
ATOM      2  C   UNL     1       3.393   3.567  -0.011  0.00  0.00    +0.168 A 
ATOM      3  N   UNL     1       3.504   2.259  -0.020  0.00  0.00    -0.221 NA
ATOM      4  C   UNL     1       2.430   1.439  -0.013  0.00  0.00    +0.125 A 
ATOM      5  C   UNL     1       2.412   0.020  -0.021  0.00  0.00    +0.147 A 
ATOM      6  C   UNL     1       1.222  -0.667  -0.013  0.00  0.00    +0.051 A 
ATOM      7  C   UNL     1       0.002  -0.004   0.002  0.00  0.00    +0.050 A 
ATOM      8  C   UNL     1      -0.017   1.382   0.010  0.00  0.00    +0.136 A 
ATOM      9  C   UNL     1       1.172   2.078   0.002  0.00  0.00    +0.086 A 
ATOM     10  S   UNL     1       1.621   3.797   0.007  0.00  0.00    -0.048 S 
ATOM     11  C   UNL     1       4.076   5.834  -0.007  0.00  0.00    +0.243 C 
ATOM     12  O   UNL     1       2.912   6.174   0.006  0.00  0.00    -0.273 OA
ENDROOT
BRANCH   8  13
ATOM     13  O   UNL     1      -1.202   2.050   0.019  0.00  0.00    -0.494 OA
ATOM     14  C   UNL     1      -2.392   1.260   0.020  0.00  0.00    +0.277 C 
ENDBRANCH   8  13
BRANCH   5  15
ATOM     15  O   UNL     1       3.585  -0.667  -0.036  0.00  0.00    -0.493 OA
ATOM     16  C   UNL     1       3.501  -2.094  -0.043  0.00  0.00    +0.277 C 
ENDBRANCH   5  15
BRANCH   1  17
ATOM     17  C   UNL     1       5.801   4.114  -0.032  0.00  0.00    +0.114 C 
BRANCH  17  18
ATOM     18  C   UNL     1       6.277   3.977  -1.480  0.00  0.00    +0.001 C 
BRANCH  18  19
ATOM     19  C   UNL     1       7.745   3.548  -1.496  0.00  0.00    -0.078 C 
BRANCH  19  22
ATOM     20  C   UNL     1       9.659   3.240  -2.947  0.00  0.00    -0.097 C 
ATOM     21  C   UNL     1       7.508   2.316  -3.566  0.00  0.00    -0.097 C 
ATOM     22  N   UNL     1       8.195   3.442  -2.900  0.00  0.00    +0.376 N 
ATOM     23  H   UNL     1       7.963   4.313  -3.391  0.00  0.00    -0.083 HD
ENDBRANCH  19  22
ENDBRANCH  18  19
ENDBRANCH  17  18
ENDBRANCH   1  17
BRANCH  11  24
ATOM     24  C   UNL     1       5.165   6.875  -0.013  0.00  0.00    +0.267 C 
BRANCH  24  25
ATOM     25  S   UNL     1       4.420   8.529   0.003  0.00  0.00    +0.005 S 
ATOM     26  O   UNL     1       3.747   8.774  -1.224  0.00  0.00    -0.169 OA
ATOM     27  O   UNL     1       3.771   8.762   1.245  0.00  0.00    -0.169 OA
BRANCH  25  28
ATOM     28  C   UNL     1       5.787   9.641  -0.005  0.00  0.00    +0.089 A 
ATOM     29  C   UNL     1       6.331  10.076   1.189  0.00  0.00    +0.028 A 
ATOM     30  C   UNL     1       7.407  10.944   1.183  0.00  0.00    +0.022 A 
ATOM     31  C   UNL     1       7.932  11.386  -0.018  0.00  0.00    +0.041 A 
ATOM     32  C   UNL     1       7.384  10.955  -1.212  0.00  0.00    +0.022 A 
ATOM     33  C   UNL     1       6.311  10.083  -1.206  0.00  0.00    +0.028 A 
ATOM     34 CL   UNL     1       9.279  12.481  -0.025  0.00  0.00    -0.084 Cl
ENDBRANCH  25  28
ENDBRANCH  24  25
ENDBRANCH  11  24
TORSDOF 9
