REMARK  Name = ZINC34759226
REMARK  13 active torsions:
REMARK  status: ('A' for Active; 'I' for Inactive)
REMARK    1  A    between atoms: C_1  and  C_2
REMARK    2  A    between atoms: C_2  and  C_3
REMARK    3  A    between atoms: C_8  and  N_9
REMARK    4  A    between atoms: C_19  and  C_20
REMARK    5  A    between atoms: C_20  and  C_22
REMARK    6  A    between atoms: C_20  and  N_23
REMARK    7  A    between atoms: N_23  and  C_24
REMARK    8  A    between atoms: C_24  and  C_25
REMARK    9  A    between atoms: C_25  and  N_26
REMARK   10  A    between atoms: N_26  and  C_27
REMARK   11  A    between atoms: N_26  and  C_28
REMARK   12  A    between atoms: N_31  and  C_32
REMARK   13  A    between atoms: C_35  and  N_38
REMARK                            x       y       z     vdW  Elec       q    Type
REMARK                         _______ _______ _______ _____ _____    ______ ____
ROOT
ATOM      1  C   UNL     1       2.719   1.980  -1.437  0.00  0.00    +0.141 C 
ATOM      2  C   UNL     1       1.249   1.945  -1.860  0.00  0.00    +0.036 C 
ENDROOT
BRANCH   1  13
ATOM      3  N   UNL     1       3.911   0.064  -0.448  0.00  0.00    -0.263 N 
ATOM      4  C   UNL     1       4.152  -0.830   0.540  0.00  0.00    +0.266 A 
ATOM      5  O   UNL     1       5.021  -1.675   0.430  0.00  0.00    -0.267 OA
ATOM      6  C   UNL     1       3.324  -0.739   1.751  0.00  0.00    +0.065 A 
ATOM      7  C   UNL     1       3.492  -1.610   2.825  0.00  0.00    +0.015 A 
ATOM      8  C   UNL     1       2.688  -1.480   3.937  0.00  0.00    +0.001 A 
ATOM      9  C   UNL     1       1.716  -0.490   3.994  0.00  0.00    +0.002 A 
ATOM     10  C   UNL     1       1.534   0.381   2.943  0.00  0.00    +0.028 A 
ATOM     11  C   UNL     1       2.336   0.270   1.805  0.00  0.00    +0.078 A 
ATOM     12  N   UNL     1       2.191   1.107   0.748  0.00  0.00    -0.231 NA
ATOM     13  C   UNL     1       2.940   1.006  -0.308  0.00  0.00    +0.138 A 
BRANCH   3  19
ATOM     14  C   UNL     1       5.831   0.777  -1.730  0.00  0.00    -0.024 A 
ATOM     15  C   UNL     1       6.582   0.729  -2.888  0.00  0.00    +0.005 A 
ATOM     16  C   UNL     1       6.178  -0.068  -3.943  0.00  0.00    +0.000 A 
ATOM     17  C   UNL     1       5.021  -0.819  -3.842  0.00  0.00    +0.002 A 
ATOM     18  C   UNL     1       4.266  -0.774  -2.687  0.00  0.00    +0.026 A 
ATOM     19  C   UNL     1       4.672   0.021  -1.623  0.00  0.00    +0.054 A 
BRANCH  14  21
ATOM     20  C   UNL     1       7.109   0.815   0.395  0.00  0.00    +0.009 C 
ATOM     21  C   UNL     1       6.273   1.646  -0.580  0.00  0.00    +0.034 C 
ENDBRANCH  14  21
ENDBRANCH   3  19
ENDBRANCH   1  13
BRANCH   1  22
ATOM     22  N   UNL     1       3.067   3.331  -0.992  0.00  0.00    -0.277 N 
ATOM     23  C   UNL     1       3.957   4.063  -1.692  0.00  0.00    +0.307 C 
ATOM     24  O   UNL     1       4.470   3.601  -2.692  0.00  0.00    -0.252 OA
ATOM     25  N   UNL     1       4.277   5.306  -1.282  0.00  0.00    -0.269 N 
ATOM     26  H   UNL     1       3.928   5.646  -0.444  0.00  0.00    +0.156 HD
BRANCH  25  27
ATOM     27  C   UNL     1       5.115   6.107  -2.067  0.00  0.00    +0.035 A 
ATOM     28  C   UNL     1       5.987   7.003  -1.462  0.00  0.00    +0.025 A 
ATOM     29  C   UNL     1       6.812   7.792  -2.240  0.00  0.00    +0.034 A 
ATOM     30  C   UNL     1       6.771   7.691  -3.618  0.00  0.00    +0.126 A 
ATOM     31  C   UNL     1       5.903   6.800  -4.223  0.00  0.00    +0.034 A 
ATOM     32  C   UNL     1       5.079   6.004  -3.451  0.00  0.00    +0.025 A 
BRANCH  30  33
ATOM     33  N   UNL     1       7.657   8.538  -4.448  0.00  0.00    +0.056 N 
ATOM     34  O   UNL     1       8.416   9.317  -3.920  0.00  0.00    -0.126 OA
ATOM     35  O   UNL     1       7.621   8.450  -5.653  0.00  0.00    -0.126 OA
ENDBRANCH  30  33
ENDBRANCH  25  27
BRANCH  22  36
ATOM     36  C   UNL     1       2.449   3.887   0.214  0.00  0.00    +0.091 C 
BRANCH  36  37
ATOM     37  C   UNL     1       3.381   3.676   1.409  0.00  0.00    -0.060 C 
BRANCH  37  38
ATOM     38  N   UNL     1       2.708   4.115   2.639  0.00  0.00    +0.377 N 
ATOM     39  C   UNL     1       3.554   3.803   3.798  0.00  0.00    -0.097 C 
ATOM     40  C   UNL     1       2.474   5.565   2.579  0.00  0.00    -0.097 C 
ATOM     41  H   UNL     1       1.824   3.636   2.728  0.00  0.00    -0.083 HD
ENDBRANCH  37  38
ENDBRANCH  36  37
ENDBRANCH  22  36
ENDBRANCH   1  22
TORSDOF 9
