REMARK  Name = ZINC09339994
REMARK  11 active torsions:
REMARK  status: ('A' for Active; 'I' for Inactive)
REMARK    1  A    between atoms: C_1  and  C_2
REMARK    2  A    between atoms: C_2  and  O_36
REMARK    3  A    between atoms: C_7  and  O_35
REMARK    4  A    between atoms: C_12  and  O_34
REMARK    5  A    between atoms: C_13  and  O_33
REMARK    6  A    between atoms: C_16  and  O_20
REMARK    7  A    between atoms: C_21  and  N_57
REMARK    8  A    between atoms: C_23  and  O_30
REMARK    9  A    between atoms: C_24  and  C_27
REMARK   10  A    between atoms: C_31  and  N_57
REMARK   11  A    between atoms: C_32  and  N_57
REMARK                            x       y       z     vdW  Elec       q    Type
REMARK                         _______ _______ _______ _____ _____    ______ ____
ROOT
ATOM      1  C   UNL     1      -1.809  -4.021  -3.946  0.00  0.00    +0.047 C 
ATOM      2  C   UNL     1      -1.798  -2.491  -3.969  0.00  0.00    +0.098 C 
ATOM      3  C   UNL     1      -2.976  -1.996  -4.766  0.00  0.00    -0.001 A 
ATOM      4  C   UNL     1      -2.829  -1.675  -6.098  0.00  0.00    +0.007 A 
ATOM      5  C   UNL     1      -3.914  -1.221  -6.830  0.00  0.00    +0.004 A 
ATOM      6  C   UNL     1      -5.153  -1.084  -6.235  0.00  0.00    +0.046 A 
ATOM      7  C   UNL     1      -5.319  -1.402  -4.895  0.00  0.00    +0.128 A 
ATOM      8  C   UNL     1      -4.224  -1.862  -4.154  0.00  0.00    +0.069 A 
ATOM      9  C   UNL     1      -4.374  -2.209  -2.726  0.00  0.00    +0.197 C 
ATOM     10  O   UNL     1      -5.475  -2.416  -2.247  0.00  0.00    -0.287 OA
ATOM     11  C   UNL     1      -3.201  -2.299  -1.921  0.00  0.00    +0.049 C 
ATOM     12  C   UNL     1      -3.320  -2.687  -0.644  0.00  0.00    +0.141 C 
ATOM     13  C   UNL     1      -2.159  -2.819   0.305  0.00  0.00    +0.189 C 
ATOM     14  C   UNL     1      -0.931  -2.095  -0.249  0.00  0.00    +0.059 C 
ATOM     15  C   UNL     1      -0.732  -2.554  -1.707  0.00  0.00    +0.131 C 
ATOM     16  C   UNL     1      -1.872  -1.963  -2.539  0.00  0.00    +0.091 C 
ATOM     17  C   UNL     1      -1.190  -0.587  -0.272  0.00  0.00    +0.008 C 
ATOM     18  C   UNL     1      -1.700  -0.083   1.042  0.00  0.00    +0.097 C 
ATOM     19  C   UNL     1      -2.306  -0.886   1.968  0.00  0.00    +0.118 C 
ATOM     20  C   UNL     1      -2.470  -2.315   1.687  0.00  0.00    +0.210 C 
ATOM     21  O   UNL     1      -2.848  -3.076   2.553  0.00  0.00    -0.288 OA
ENDROOT
BRANCH  19  22
ATOM     22  C   UNL     1      -2.802  -0.319   3.232  0.00  0.00    +0.248 C 
ATOM     23  O   UNL     1      -2.189  -0.508   4.265  0.00  0.00    -0.270 OA
ATOM     24  N   UNL     1      -3.935   0.410   3.244  0.00  0.00    -0.325 N 
ATOM     25  H   UNL     1      -4.465   0.497   2.437  0.00  0.00    +0.145 HD
ATOM     26  H   UNL     1      -4.221   0.849   4.061  0.00  0.00    +0.145 HD
ENDBRANCH  19  22
BRANCH  17  29
ATOM     27  C   UNL     1      -0.191   1.498  -0.994  0.00  0.00    -0.096 C 
ATOM     28  C   UNL     1       1.004   0.047   0.533  0.00  0.00    -0.096 C 
ATOM     29  N   UNL     1       0.077   0.094  -0.617  0.00  0.00    +0.383 N 
ATOM     30  H   UNL     1       0.509  -0.389  -1.413  0.00  0.00    -0.082 HD
ENDBRANCH  17  29
BRANCH  15  31
ATOM     31  O   UNL     1      -0.770  -3.980  -1.775  0.00  0.00    -0.391 OA
ATOM     32  H   UNL     1      -0.030  -4.415  -1.329  0.00  0.00    +0.210 HD
ENDBRANCH  15  31
BRANCH  18  33
ATOM     33  O   UNL     1      -1.536   1.214   1.339  0.00  0.00    -0.512 OA
ATOM     34  H   UNL     1      -1.925   1.401   2.242  0.00  0.00    +0.292 HD
ENDBRANCH  18  33
BRANCH  13  35
ATOM     35  O   UNL     1      -1.840  -4.207   0.418  0.00  0.00    -0.373 OA
ATOM     36  H   UNL     1      -2.562  -4.750   0.763  0.00  0.00    +0.211 HD
ENDBRANCH  13  35
BRANCH  12  37
ATOM     37  O   UNL     1      -4.552  -2.972  -0.178  0.00  0.00    -0.507 OA
ATOM     38  H   UNL     1      -4.490  -3.245   0.782  0.00  0.00    +0.292 HD
ENDBRANCH  12  37
BRANCH   7  39
ATOM     39  O   UNL     1      -6.534  -1.269  -4.306  0.00  0.00    -0.506 OA
ATOM     40  H   UNL     1      -6.688  -0.399  -3.913  0.00  0.00    +0.292 HD
ENDBRANCH   7  39
BRANCH   2  41
ATOM     41  O   UNL     1      -0.589  -2.038  -4.580  0.00  0.00    -0.384 OA
ATOM     42  H   UNL     1      -0.473  -2.336  -5.493  0.00  0.00    +0.211 HD
ENDBRANCH   2  41
TORSDOF 8
