REMARK  Name = ZINC44164106
REMARK  7 active torsions:
REMARK  status: ('A' for Active; 'I' for Inactive)
REMARK    1  A    between atoms: C_4  and  C_7
REMARK    2  A    between atoms: C_9  and  C_28
REMARK    3  A    between atoms: C_13  and  C_16
REMARK    4  A    between atoms: N_18  and  C_19
REMARK    5  A    between atoms: C_19  and  C_20
REMARK    6  A    between atoms: C_20  and  C_21
REMARK    7  A    between atoms: C_24  and  O_27
REMARK                            x       y       z     vdW  Elec       q    Type
REMARK                         _______ _______ _______ _____ _____    ______ ____
ROOT
ATOM      1  C   UNL     1       3.711  -0.707  -0.038  0.00  0.00    -0.022 C 
ATOM      2  C   UNL     1       3.960  -1.272  -1.441  0.00  0.00    +0.066 C 
ATOM      3  S   UNL     1       2.570  -2.365  -1.871  0.00  0.00    -0.155 S 
ATOM      4  C   UNL     1       2.440  -3.440  -0.408  0.00  0.00    +0.063 C 
ATOM      5  C   UNL     1       2.419  -2.550   0.841  0.00  0.00    +0.027 C 
ATOM      6  N   UNL     1       3.671  -1.800   0.937  0.00  0.00    +0.393 N 
ATOM      7  H   UNL     1       4.445  -2.423   0.766  0.00  0.00    -0.084 HD
ATOM      8  H   UNL     1       3.754  -1.417   1.867  0.00  0.00    -0.084 HD
ENDROOT
BRANCH   1  12
ATOM      9  C   UNL     1      -0.017   1.377   0.014  0.00  0.00    +0.000 A 
ATOM     10  C   UNL     1       0.034   0.063  -0.412  0.00  0.00    +0.000 A 
ATOM     11  C   UNL     1       1.241  -0.611  -0.429  0.00  0.00    +0.002 A 
ATOM     12  C   UNL     1       2.396   0.029  -0.020  0.00  0.00    -0.060 A 
ATOM     13  C   UNL     1       2.345   1.343   0.405  0.00  0.00    +0.002 A 
ATOM     14  C   UNL     1       1.138   2.017   0.423  0.00  0.00    +0.000 A 
ENDBRANCH   1  12
BRANCH   2  15
ATOM     15  C   UNL     1       4.047  -0.143  -2.435  0.00  0.00    -0.036 A 
ATOM     16  C   UNL     1       2.974   0.713  -2.604  0.00  0.00    +0.004 A 
ATOM     17  C   UNL     1       3.054   1.748  -3.516  0.00  0.00    +0.000 A 
ATOM     18  C   UNL     1       4.205   1.929  -4.259  0.00  0.00    +0.000 A 
ATOM     19  C   UNL     1       5.278   1.073  -4.090  0.00  0.00    +0.000 A 
ATOM     20  C   UNL     1       5.200   0.040  -3.175  0.00  0.00    +0.004 A 
ENDBRANCH   2  15
BRANCH   5  21
ATOM     21  C   UNL     1       2.258  -3.412   2.067  0.00  0.00    +0.200 C 
ATOM     22  O   UNL     1       3.109  -3.403   2.931  0.00  0.00    -0.278 OA
ATOM     23  N   UNL     1       1.168  -4.193   2.203  0.00  0.00    -0.316 N 
ATOM     24  H   UNL     1       0.487  -4.201   1.512  0.00  0.00    +0.149 HD
BRANCH  23  25
ATOM     25  C   UNL     1       1.012  -5.031   3.395  0.00  0.00    +0.109 C 
BRANCH  25  26
ATOM     26  C   UNL     1      -0.301  -5.812   3.301  0.00  0.00    +0.054 C 
BRANCH  26  27
ATOM     27  C   UNL     1      -0.462  -6.674   4.526  0.00  0.00    -0.046 A 
ATOM     28  C   UNL     1       0.042  -7.962   4.535  0.00  0.00    +0.007 A 
ATOM     29  C   UNL     1      -0.105  -8.754   5.657  0.00  0.00    +0.045 A 
ATOM     30  C   UNL     1      -0.757  -8.256   6.776  0.00  0.00    +0.117 A 
ATOM     31  C   UNL     1      -1.261  -6.964   6.765  0.00  0.00    +0.045 A 
ATOM     32  C   UNL     1      -1.107  -6.173   5.642  0.00  0.00    +0.007 A 
BRANCH  30  33
ATOM     33  O   UNL     1      -0.903  -9.034   7.881  0.00  0.00    -0.507 OA
ATOM     34  H   UNL     1      -0.177  -8.957   8.515  0.00  0.00    +0.292 HD
ENDBRANCH  30  33
ENDBRANCH  26  27
ENDBRANCH  25  26
ENDBRANCH  23  25
ENDBRANCH   5  21
TORSDOF 7
