REMARK  Name = ZINC04729339
REMARK  6 active torsions:
REMARK  status: ('A' for Active; 'I' for Inactive)
REMARK    1  A    between atoms: C_1  and  O_2
REMARK    2  A    between atoms: O_2  and  C_3
REMARK    3  A    between atoms: C_6  and  C_9
REMARK    4  A    between atoms: C_11  and  C_23
REMARK    5  A    between atoms: C_13  and  C_16
REMARK    6  A    between atoms: C_21  and  O_22
REMARK                            x       y       z     vdW  Elec       q    Type
REMARK                         _______ _______ _______ _____ _____    ______ ____
ROOT
ATOM      1  C   UNL     1      -0.319   7.341  -1.427  0.00  0.00    +0.040 C 
ATOM      2  N   UNL     1      -0.912   7.936  -0.460  0.00  0.00    -0.299 NA
ATOM      3  C   UNL     1      -1.321   7.281   0.776  0.00  0.00    +0.081 C 
ATOM      4  C   UNL     1      -0.082   5.350   0.031  0.00  0.00    -0.028 C 
ATOM      5  C   UNL     1       0.021   5.877  -1.404  0.00  0.00    +0.044 C 
ATOM      6  N   UNL     1      -1.358   5.821   0.605  0.00  0.00    +0.401 N 
ATOM      7  H   UNL     1      -2.128   5.571  -0.026  0.00  0.00    -0.081 HD
ATOM      8  H   UNL     1      -1.505   5.375   1.518  0.00  0.00    -0.081 HD
ENDROOT
BRANCH   3   9
ATOM      9  C   UNL     1      -2.694   7.766   1.164  0.00  0.00    -0.040 A 
ATOM     10  C   UNL     1      -3.550   6.932   1.859  0.00  0.00    +0.006 A 
ATOM     11  C   UNL     1      -4.807   7.378   2.221  0.00  0.00    +0.038 A 
ATOM     12  C   UNL     1      -5.213   8.656   1.877  0.00  0.00    +0.123 A 
ATOM     13  C   UNL     1      -4.357   9.489   1.176  0.00  0.00    +0.038 A 
ATOM     14  C   UNL     1      -3.098   9.043   0.821  0.00  0.00    +0.006 A 
ATOM     15  F   UNL     1      -6.444   9.091   2.224  0.00  0.00    -0.205 F 
ENDBRANCH   3   9
BRANCH   1  19
ATOM     16  C   UNL     1       0.740   9.610  -4.855  0.00  0.00    +0.120 A 
ATOM     17  C   UNL     1       0.094  10.225  -3.789  0.00  0.00    +0.046 A 
ATOM     18  C   UNL     1      -0.251   9.492  -2.675  0.00  0.00    +0.013 A 
ATOM     19  C   UNL     1       0.048   8.129  -2.618  0.00  0.00    -0.004 A 
ATOM     20  C   UNL     1       0.702   7.515  -3.689  0.00  0.00    +0.013 A 
ATOM     21  C   UNL     1       1.040   8.254  -4.802  0.00  0.00    +0.046 A 
BRANCH  16  23
ATOM     22  C   UNL     1       1.740   9.641  -7.010  0.00  0.00    +0.277 C 
ATOM     23  O   UNL     1       1.079  10.336  -5.951  0.00  0.00    -0.495 OA
ENDBRANCH  16  23
ENDBRANCH   1  19
BRANCH   4  24
ATOM     24  C   UNL     1      -0.057   3.844   0.023  0.00  0.00    -0.019 A 
ATOM     25  C   UNL     1      -1.242   3.132   0.031  0.00  0.00    +0.005 A 
ATOM     26  C   UNL     1      -1.220   1.750   0.017  0.00  0.00    +0.000 A 
ATOM     27  C   UNL     1      -0.013   1.076   0.008  0.00  0.00    +0.004 A 
ATOM     28  C   UNL     1       1.174   1.782   0.000  0.00  0.00    +0.045 A 
ATOM     29  C   UNL     1       1.155   3.169   0.008  0.00  0.00    +0.118 A 
BRANCH  29  30
ATOM     30  O   UNL     1       2.321   3.867   0.000  0.00  0.00    -0.507 OA
ATOM     31  H   UNL     1       2.650   4.073  -0.885  0.00  0.00    +0.292 HD
ENDBRANCH  29  30
ENDBRANCH   4  24
TORSDOF 5
