REMARK  Name = ZINC15105999
REMARK  6 active torsions:
REMARK  status: ('A' for Active; 'I' for Inactive)
REMARK    1  A    between atoms: C_1  and  C_2
REMARK    2  A    between atoms: C_2  and  O_26
REMARK    3  A    between atoms: C_6  and  O_10
REMARK    4  A    between atoms: C_11  and  C_19
REMARK    5  A    between atoms: C_13  and  C_15
REMARK    6  A    between atoms: N_17  and  C_18
REMARK                            x       y       z     vdW  Elec       q    Type
REMARK                         _______ _______ _______ _____ _____    ______ ____
ROOT
ATOM      1  C   UNL     1      -3.648   0.794   3.732  0.00  0.00    +0.042 C 
ATOM      2  C   UNL     1      -4.035   1.015   2.268  0.00  0.00    +0.081 C 
ATOM      3  C   UNL     1      -4.068   2.519   1.970  0.00  0.00    +0.090 C 
ATOM      4  C   UNL     1      -4.205   2.706   0.479  0.00  0.00    +0.046 A 
ATOM      5  C   UNL     1      -3.963   1.732  -0.435  0.00  0.00    +0.044 A 
ATOM      6  C   UNL     1      -4.198   2.266  -1.705  0.00  0.00    +0.235 A 
ATOM      7  N   UNL     1      -4.565   3.518  -1.556  0.00  0.00    -0.136 NA
ATOM      8  N   UNL     1      -4.575   3.813  -0.185  0.00  0.00    -0.278 N 
ATOM      9  H   UNL     1      -4.815   4.693   0.226  0.00  0.00    +0.189 HD
ATOM     10  C   UNL     1      -3.521   0.333  -0.085  0.00  0.00    +0.070 C 
ATOM     11  C   UNL     1      -3.006   0.336   1.360  0.00  0.00    +0.118 C 
ENDROOT
BRANCH  10  12
ATOM     12  C   UNL     1      -2.417  -0.098  -1.016  0.00  0.00    -0.039 A 
ATOM     13  C   UNL     1      -2.581  -1.217  -1.811  0.00  0.00    +0.005 A 
ATOM     14  C   UNL     1      -1.571  -1.609  -2.669  0.00  0.00    +0.015 A 
ATOM     15  C   UNL     1      -0.394  -0.885  -2.728  0.00  0.00    +0.018 A 
ATOM     16  C   UNL     1      -0.228   0.232  -1.929  0.00  0.00    +0.015 A 
ATOM     17  C   UNL     1      -1.239   0.623  -1.071  0.00  0.00    +0.005 A 
ATOM     18 BR   UNL     1       0.989  -1.422  -3.901  0.00  0.00    -0.050 Br
ENDBRANCH  10  12
BRANCH  11  19
ATOM     19  C   UNL     1      -2.791  -1.084   1.818  0.00  0.00    +0.220 C 
ATOM     20  O   UNL     1      -3.696  -1.888   1.749  0.00  0.00    -0.275 OA
ATOM     21  N   UNL     1      -1.591  -1.460   2.305  0.00  0.00    -0.318 N 
ATOM     22  C   UNL     1      -1.381  -2.840   2.750  0.00  0.00    +0.128 C 
ATOM     23  H   UNL     1      -0.867  -0.817   2.360  0.00  0.00    +0.148 HD
ENDBRANCH  11  19
BRANCH   6  24
ATOM     24  O   UNL     1      -4.068   1.605  -2.886  0.00  0.00    -0.491 OA
ATOM     25  H   UNL     1      -4.297   2.221  -3.640  0.00  0.00    +0.294 HD
ENDBRANCH   6  24
BRANCH   2  26
ATOM     26  O   UNL     1      -5.326   0.453   2.027  0.00  0.00    -0.388 OA
ATOM     27  H   UNL     1      -6.029   0.836   2.569  0.00  0.00    +0.210 HD
ENDBRANCH   2  26
TORSDOF 4
