REMARK  Name = ZINC14274502
REMARK  11 active torsions:
REMARK  status: ('A' for Active; 'I' for Inactive)
REMARK    1  A    between atoms: C_1  and  C_2
REMARK    2  A    between atoms: C_6  and  C_10
REMARK    3  A    between atoms: C_7  and  O_8
REMARK    4  A    between atoms: O_8  and  C_9
REMARK    5  A    between atoms: N_12  and  C_13
REMARK    6  A    between atoms: C_13  and  N_15
REMARK    7  A    between atoms: N_15  and  C_16
REMARK    8  A    between atoms: C_21  and  C_22
REMARK    9  A    between atoms: N_24  and  C_26
REMARK   10  A    between atoms: C_29  and  O_33
REMARK   11  A    between atoms: O_33  and  C_34
REMARK                            x       y       z     vdW  Elec       q    Type
REMARK                         _______ _______ _______ _____ _____    ______ ____
ROOT
ATOM      1  C   UNL     1       6.471   6.190  -0.021  0.00  0.00    +0.038 A 
ATOM      2  C   UNL     1       5.849   5.050   0.401  0.00  0.00    +0.055 A 
ATOM      3  C   UNL     1       4.446   4.997   0.426  0.00  0.00    +0.115 A 
ATOM      4  C   UNL     1       3.683   6.179  -0.004  0.00  0.00    +0.114 A 
ATOM      5  C   UNL     1       4.384   7.322  -0.427  0.00  0.00    +0.037 A 
ATOM      6  C   UNL     1       5.741   7.314  -0.430  0.00  0.00    -0.027 A 
ATOM      7  C   UNL     1       6.483   8.545  -0.884  0.00  0.00    +0.046 C 
ATOM      8  N   UNL     1       2.414   5.826   0.126  0.00  0.00    -0.147 NA
ATOM      9  N   UNL     1       2.360   4.620   0.574  0.00  0.00    -0.149 N 
ATOM     10  N   UNL     1       3.526   4.105   0.758  0.00  0.00    -0.147 NA
ENDROOT
BRANCH   9  11
ATOM     11  C   UNL     1       1.163   3.940   0.828  0.00  0.00    +0.088 A 
ATOM     12  C   UNL     1      -0.055   4.569   0.602  0.00  0.00    +0.033 A 
ATOM     13  C   UNL     1      -1.236   3.899   0.852  0.00  0.00    +0.049 A 
ATOM     14  C   UNL     1      -1.206   2.595   1.325  0.00  0.00    +0.138 A 
ATOM     15  C   UNL     1       0.010   1.967   1.557  0.00  0.00    +0.085 A 
ATOM     16  C   UNL     1       1.192   2.637   1.307  0.00  0.00    +0.053 A 
ATOM     17 CL   UNL     1       0.046   0.337   2.155  0.00  0.00    -0.080 Cl
BRANCH  14  18
ATOM     18  O   UNL     1      -2.369   1.933   1.565  0.00  0.00    -0.494 OA
ATOM     19  C   UNL     1      -3.583   2.640   1.304  0.00  0.00    +0.277 C 
ENDBRANCH  14  18
ENDBRANCH   9  11
BRANCH   1  20
ATOM     20  N   UNL     1       7.869   6.237  -0.045  0.00  0.00    -0.296 N 
ATOM     21  H   UNL     1       8.334   7.014   0.303  0.00  0.00    +0.154 HD
BRANCH  20  22
ATOM     22  C   UNL     1       8.569   5.203  -0.551  0.00  0.00    +0.141 C 
ATOM     23  S   UNL     1       7.750   3.895  -1.292  0.00  0.00    -0.018 S 
BRANCH  22  26
ATOM     24  C   UNL     1      10.615   4.164  -0.980  0.00  0.00    +0.253 C 
ATOM     25  O   UNL     1      10.033   3.235  -1.506  0.00  0.00    -0.270 OA
ATOM     26  N   UNL     1       9.915   5.198  -0.474  0.00  0.00    -0.263 N 
ATOM     27  H   UNL     1      10.379   5.939  -0.054  0.00  0.00    +0.157 HD
BRANCH  24  33
ATOM     28  C   UNL     1      14.997   1.940  -1.900  0.00  0.00    +0.047 C 
ATOM     29  C   UNL     1      14.204   3.091  -1.337  0.00  0.00    -0.008 A 
ATOM     30  C   UNL     1      14.856   4.150  -0.738  0.00  0.00    +0.007 A 
ATOM     31  C   UNL     1      14.136   5.213  -0.217  0.00  0.00    +0.001 A 
ATOM     32  C   UNL     1      12.760   5.224  -0.293  0.00  0.00    +0.017 A 
ATOM     33  C   UNL     1      12.087   4.159  -0.896  0.00  0.00    +0.079 A 
ATOM     34  C   UNL     1      12.819   3.082  -1.416  0.00  0.00    +0.135 A 
BRANCH  34  35
ATOM     35  O   UNL     1      12.177   2.039  -2.000  0.00  0.00    -0.494 OA
ATOM     36  C   UNL     1      11.936   2.130  -3.405  0.00  0.00    +0.277 C 
ENDBRANCH  34  35
ENDBRANCH  24  33
ENDBRANCH  22  26
ENDBRANCH  20  22
ENDBRANCH   1  20
TORSDOF 7
