REMARK  Name = ZINC20383758
REMARK  8 active torsions:
REMARK  status: ('A' for Active; 'I' for Inactive)
REMARK    1  A    between atoms: C_1  and  C_2
REMARK    2  A    between atoms: C_4  and  C_35
REMARK    3  A    between atoms: C_14  and  C_17
REMARK    4  A    between atoms: N_19  and  C_20
REMARK    5  A    between atoms: C_20  and  C_21
REMARK    6  A    between atoms: C_21  and  C_22
REMARK    7  A    between atoms: C_22  and  N_23
REMARK    8  A    between atoms: N_26  and  C_29
REMARK                            x       y       z     vdW  Elec       q    Type
REMARK                         _______ _______ _______ _____ _____    ______ ____
ROOT
ATOM      1  C   UNL     1      -4.094   5.071  -0.793  0.00  0.00    +0.216 C 
ATOM      2  O   UNL     1      -4.188   5.806   0.168  0.00  0.00    -0.276 OA
ATOM      3  N   UNL     1      -5.091   5.015  -1.698  0.00  0.00    -0.315 N 
ATOM      4  H   UNL     1      -5.006   4.349  -2.570  0.00  0.00    +0.149 HD
ENDROOT
BRANCH   1  18
ATOM      5  C   UNL     1       5.067  -2.551  -0.062  0.00  0.00    +0.044 C 
ATOM      6  C   UNL     1       3.706  -1.903  -0.044  0.00  0.00    -0.049 A 
ATOM      7  C   UNL     1       2.559  -2.683  -0.038  0.00  0.00    +0.009 A 
ATOM      8  C   UNL     1       1.310  -2.119  -0.022  0.00  0.00    -0.024 A 
ATOM      9  C   UNL     1       1.152  -0.714  -0.013  0.00  0.00    +0.083 A 
ATOM     10  C   UNL     1       2.342   0.048  -0.020  0.00  0.00    +0.041 A 
ATOM     11  C   UNL     1       3.589  -0.525  -0.035  0.00  0.00    +0.020 A 
ATOM     12  S   UNL     1       1.725   1.714  -0.005  0.00  0.00    -0.052 S 
ATOM     13  C   UNL     1      -0.016   1.309   0.009  0.00  0.00    +0.162 A 
ATOM     14  N   UNL     1       0.002  -0.004   0.002  0.00  0.00    -0.224 NA
ATOM     15  N   UNL     1      -1.102   2.160   0.019  0.00  0.00    -0.310 N 
ATOM     16  C   UNL     1      -1.997   1.884  -1.111  0.00  0.00    +0.108 C 
ATOM     17  C   UNL     1      -3.258   2.743  -0.988  0.00  0.00    +0.032 C 
ATOM     18  C   UNL     1      -2.862   4.222  -0.975  0.00  0.00    +0.078 C 
ATOM     19  C   UNL     1      -1.892   4.473   0.182  0.00  0.00    +0.032 C 
ATOM     20  C   UNL     1      -0.671   3.564   0.025  0.00  0.00    +0.108 C 
ATOM     21  C   UNL     1       0.092  -3.006  -0.015  0.00  0.00    +0.046 C 
ENDBRANCH   1  18
BRANCH   3  22
ATOM     22  C   UNL     1      -6.288   5.840  -1.521  0.00  0.00    +0.105 C 
BRANCH  22  23
ATOM     23  C   UNL     1      -7.257   5.589  -2.679  0.00  0.00    +0.034 C 
BRANCH  23  24
ATOM     24  C   UNL     1      -8.508   6.451  -2.494  0.00  0.00    +0.086 C 
BRANCH  24  25
ATOM     25  N   UNL     1      -9.437   6.209  -3.605  0.00  0.00    -0.306 NA
ATOM     26  C   UNL     1      -8.874   6.684  -4.876  0.00  0.00    +0.066 C 
ATOM     27  C   UNL     1      -9.836   6.343  -6.017  0.00  0.00    -0.063 C 
ATOM     28  N   UNL     1     -11.141   6.967  -5.757  0.00  0.00    +0.383 N 
ATOM     29  C   UNL     1     -11.704   6.492  -4.485  0.00  0.00    -0.063 C 
ATOM     30  C   UNL     1     -10.742   6.833  -3.345  0.00  0.00    +0.066 C 
ATOM     31  H   UNL     1     -10.988   8.053  -5.676  0.00  0.00    -0.081 HD
BRANCH  28  32
ATOM     32  C   UNL     1     -12.071   6.725  -6.868  0.00  0.00    -0.068 C 
ATOM     33  C   UNL     1     -12.250   5.219  -7.064  0.00  0.00    -0.015 C 
ATOM     34  C   UNL     1     -13.219   4.967  -8.221  0.00  0.00    -0.002 C 
ATOM     35  C   UNL     1     -12.654   5.584  -9.502  0.00  0.00    -0.000 C 
ATOM     36  C   UNL     1     -12.475   7.091  -9.306  0.00  0.00    -0.002 C 
ATOM     37  C   UNL     1     -11.506   7.343  -8.149  0.00  0.00    -0.015 C 
ENDBRANCH  28  32
ENDBRANCH  24  25
ENDBRANCH  23  24
ENDBRANCH  22  23
ENDBRANCH   3  22
TORSDOF 6
