REMARK  Name = ZINC63622963
REMARK  10 active torsions:
REMARK  status: ('A' for Active; 'I' for Inactive)
REMARK    1  A    between atoms: C_1  and  C_2
REMARK    2  A    between atoms: C_5  and  C_8
REMARK    3  A    between atoms: C_8  and  C_10
REMARK    4  A    between atoms: C_10  and  O_11
REMARK    5  A    between atoms: O_11  and  C_12
REMARK    6  A    between atoms: C_12  and  C_14
REMARK    7  A    between atoms: C_14  and  C_16
REMARK    8  A    between atoms: C_14  and  N_26
REMARK    9  A    between atoms: C_16  and  C_17
REMARK   10  A    between atoms: C_27  and  C_29
REMARK                            x       y       z     vdW  Elec       q    Type
REMARK                         _______ _______ _______ _____ _____    ______ ____
ROOT
ATOM      1  C   UNL     1       0.074  -8.758   1.673  0.00  0.00    +0.186 C 
ENDROOT
BRANCH   1   2
ATOM      2  N   UNL     1      -0.025  -9.373   2.999  0.00  0.00    -0.302 N 
ATOM      3  C   UNL     1      -0.353 -10.676   3.115  0.00  0.00    +0.220 C 
ATOM      4  O   UNL     1      -0.566 -11.338   2.122  0.00  0.00    -0.275 OA
ATOM      5  H   UNL     1       0.146  -8.844   3.793  0.00  0.00    +0.150 HD
BRANCH   3   6
ATOM      6  C   UNL     1      -0.454 -11.309   4.479  0.00  0.00    +0.048 C 
ATOM      7  C   UNL     1      -1.523 -10.584   5.299  0.00  0.00    +0.019 C 
ATOM      8  C   UNL     1      -1.626 -11.226   6.684  0.00  0.00    -0.009 C 
ATOM      9  C   UNL     1      -2.010 -12.700   6.535  0.00  0.00    +0.007 C 
ATOM     10  C   UNL     1      -0.941 -13.425   5.715  0.00  0.00    -0.009 C 
ATOM     11  C   UNL     1      -0.837 -12.782   4.330  0.00  0.00    +0.019 C 
ATOM     12  C   UNL     1       0.409 -13.318   6.428  0.00  0.00    +0.007 C 
ATOM     13  C   UNL     1       0.792 -11.845   6.577  0.00  0.00    -0.009 C 
ATOM     14  C   UNL     1      -0.277 -11.120   7.397  0.00  0.00    +0.007 C 
ATOM     15  C   UNL     1       0.895 -11.202   5.192  0.00  0.00    +0.019 C 
ENDBRANCH   3   6
ENDBRANCH   1   2
BRANCH   1  16
ATOM     16  C   UNL     1      -0.987  -7.697   1.531  0.00  0.00    +0.328 C 
ATOM     17  O   UNL     1      -1.748  -7.478   2.444  0.00  0.00    -0.249 OA
BRANCH  16  18
ATOM     18  O   UNL     1      -1.087  -6.997   0.391  0.00  0.00    -0.455 OA
BRANCH  18  19
ATOM     19  C   UNL     1      -2.116  -6.007   0.326  0.00  0.00    +0.311 C 
BRANCH  19  20
ATOM     20  C   UNL     1      -2.075  -5.328  -1.019  0.00  0.00    +0.200 C 
ATOM     21  O   UNL     1      -1.247  -5.659  -1.840  0.00  0.00    -0.288 OA
BRANCH  20  26
ATOM     22  C   UNL     1      -5.848  -1.169  -2.254  0.00  0.00    +0.044 C 
ATOM     23  C   UNL     1      -4.859  -2.259  -1.930  0.00  0.00    -0.050 A 
ATOM     24  C   UNL     1      -3.914  -2.633  -2.870  0.00  0.00    +0.004 A 
ATOM     25  C   UNL     1      -3.006  -3.630  -2.582  0.00  0.00    +0.012 A 
ATOM     26  C   UNL     1      -3.041  -4.263  -1.335  0.00  0.00    +0.021 A 
ATOM     27  C   UNL     1      -3.997  -3.878  -0.390  0.00  0.00    +0.012 A 
ATOM     28  C   UNL     1      -4.895  -2.877  -0.692  0.00  0.00    +0.004 A 
ENDBRANCH  20  26
ENDBRANCH  19  20
ENDBRANCH  18  19
ENDBRANCH  16  18
ENDBRANCH   1  16
BRANCH   1  29
ATOM     29  C   UNL     1       1.456  -8.123   1.507  0.00  0.00    +0.067 C 
BRANCH  29  30
ATOM     30  C   UNL     1       2.510  -9.200   1.527  0.00  0.00    -0.039 C 
ATOM     31  C   UNL     1       3.023  -9.855   0.461  0.00  0.00    -0.001 A 
ATOM     32  C   UNL     1       2.763  -9.765  -0.981  0.00  0.00    +0.010 A 
ATOM     33  C   UNL     1       3.450 -10.570  -1.823  0.00  0.00    +0.001 A 
ATOM     34  C   UNL     1       4.401 -11.488  -1.354  0.00  0.00    +0.002 A 
ATOM     35  C   UNL     1       4.694 -11.628  -0.044  0.00  0.00    +0.026 A 
ATOM     36  C   UNL     1       4.032 -10.831   0.930  0.00  0.00    +0.043 A 
ATOM     37  N   UNL     1       4.138 -10.782   2.236  0.00  0.00    -0.380 N 
ATOM     38  C   UNL     1       3.212  -9.763   2.742  0.00  0.00    +0.144 C 
ATOM     39  H   UNL     1       4.733 -11.325   2.777  0.00  0.00    +0.160 HD
ENDBRANCH  29  30
ENDBRANCH   1  29
TORSDOF 9
