REMARK  Name = ZINC36659698
REMARK  8 active torsions:
REMARK  status: ('A' for Active; 'I' for Inactive)
REMARK    1  A    between atoms: C_1  and  C_2
REMARK    2  A    between atoms: C_2  and  S_3
REMARK    3  A    between atoms: S_3  and  C_4
REMARK    4  A    between atoms: C_7  and  C_10
REMARK    5  A    between atoms: C_10  and  C_11
REMARK    6  A    between atoms: C_17  and  C_19
REMARK    7  A    between atoms: C_22  and  S_25
REMARK    8  A    between atoms: S_25  and  N_28
REMARK                            x       y       z     vdW  Elec       q    Type
REMARK                         _______ _______ _______ _____ _____    ______ ____
ROOT
ATOM      1  C   UNL     1       1.878  -7.095   0.183  0.00  0.00    +0.223 A 
ATOM      2  N   UNL     1       3.021  -7.443   0.698  0.00  0.00    -0.111 NA
ATOM      3  N   UNL     1       3.825  -7.799  -0.242  0.00  0.00    -0.092 NA
ATOM      4  C   UNL     1       3.217  -7.689  -1.397  0.00  0.00    +0.314 A 
ATOM      5  O   UNL     1       1.970  -7.247  -1.152  0.00  0.00    -0.409 OA
ATOM      6  N   UNL     1       3.756  -7.980  -2.640  0.00  0.00    -0.234 N 
ATOM      7  C   UNL     1       5.025  -8.424  -2.738  0.00  0.00    +0.252 C 
ATOM      8  O   UNL     1       5.697  -8.569  -1.735  0.00  0.00    -0.270 OA
ATOM      9  H   UNL     1       3.220  -7.865  -3.441  0.00  0.00    +0.160 HD
ENDROOT
BRANCH   7  10
ATOM     10  C   UNL     1       5.600  -8.734  -4.063  0.00  0.00    +0.037 A 
ATOM     11  C   UNL     1       4.833  -8.563  -5.217  0.00  0.00    +0.015 A 
ATOM     12  C   UNL     1       5.376  -8.855  -6.452  0.00  0.00    +0.029 A 
ATOM     13  C   UNL     1       6.677  -9.316  -6.547  0.00  0.00    +0.109 A 
ATOM     14  C   UNL     1       7.442  -9.487  -5.407  0.00  0.00    +0.029 A 
ATOM     15  C   UNL     1       6.914  -9.194  -4.167  0.00  0.00    +0.015 A 
BRANCH  13  16
ATOM     16  S   UNL     1       7.362  -9.687  -8.128  0.00  0.00    +0.075 S 
ATOM     17  O   UNL     1       8.412 -10.619  -7.907  0.00  0.00    -0.150 OA
ATOM     18  O   UNL     1       6.267  -9.963  -8.990  0.00  0.00    -0.150 OA
BRANCH  16  19
ATOM     19  N   UNL     1       8.071  -8.301  -8.692  0.00  0.00    -0.202 N 
ATOM     20  C   UNL     1       7.395  -7.279  -9.495  0.00  0.00    +0.136 C 
ATOM     21  C   UNL     1       8.463  -6.206  -9.764  0.00  0.00    +0.058 C 
ATOM     22  C   UNL     1       9.702  -6.721  -9.068  0.00  0.00    -0.023 A 
ATOM     23  C   UNL     1       9.398  -7.932  -8.466  0.00  0.00    +0.054 A 
ATOM     24  C   UNL     1      10.394  -8.603  -7.752  0.00  0.00    +0.025 A 
ATOM     25  C   UNL     1      11.658  -8.062  -7.646  0.00  0.00    +0.002 A 
ATOM     26  C   UNL     1      11.949  -6.851  -8.247  0.00  0.00    +0.000 A 
ATOM     27  C   UNL     1      10.971  -6.186  -8.963  0.00  0.00    +0.005 A 
ENDBRANCH  16  19
ENDBRANCH  13  16
ENDBRANCH   7  10
BRANCH   1  28
ATOM     28  C   UNL     1       0.668  -6.614   0.943  0.00  0.00    +0.132 C 
BRANCH  28  32
ATOM     29  C   UNL     1       0.818  -2.359   1.317  0.00  0.00    +0.008 A 
ATOM     30  C   UNL     1       0.189  -2.940   0.223  0.00  0.00    +0.015 A 
ATOM     31  C   UNL     1       0.142  -4.315   0.105  0.00  0.00    +0.005 A 
ATOM     32  C   UNL     1       0.721  -5.114   1.075  0.00  0.00    -0.038 A 
ATOM     33  C   UNL     1       1.348  -4.539   2.166  0.00  0.00    +0.005 A 
ATOM     34  C   UNL     1       1.403  -3.165   2.287  0.00  0.00    +0.015 A 
BRANCH  29  35
ATOM     35  S   UNL     1       0.879  -0.605   1.472  0.00  0.00    -0.125 S 
BRANCH  35  37
ATOM     36  C   UNL     1      -0.019   1.526   0.010  0.00  0.00    +0.015 C 
ATOM     37  C   UNL     1       0.002  -0.004   0.002  0.00  0.00    +0.071 C 
ENDBRANCH  35  37
ENDBRANCH  29  35
ENDBRANCH  28  32
ENDBRANCH   1  28
TORSDOF 7
