REMARK  Name = ZINC10751101
REMARK  9 active torsions:
REMARK  status: ('A' for Active; 'I' for Inactive)
REMARK    1  A    between atoms: C_1  and  C_2
REMARK    2  A    between atoms: C_2  and  O_3
REMARK    3  A    between atoms: O_3  and  C_4
REMARK    4  A    between atoms: C_4  and  C_6
REMARK    5  A    between atoms: C_10  and  N_11
REMARK    6  A    between atoms: C_12  and  C_14
REMARK    7  A    between atoms: N_19  and  S_21
REMARK    8  A    between atoms: S_21  and  C_24
REMARK    9  A    between atoms: C_32  and  N_59
REMARK                            x       y       z     vdW  Elec       q    Type
REMARK                         _______ _______ _______ _____ _____    ______ ____
ROOT
ATOM      1  N   UNL     1      -3.479   8.513   4.459  0.00  0.00    -0.279 N 
ATOM      2  C   UNL     1      -2.712   7.612   3.814  0.00  0.00    +0.222 C 
ATOM      3  O   UNL     1      -1.505   7.660   3.916  0.00  0.00    -0.275 OA
ATOM      4  H   UNL     1      -4.445   8.475   4.377  0.00  0.00    +0.155 HD
ENDROOT
BRANCH   1   9
ATOM      5  C   UNL     1      -3.504  10.502   5.972  0.00  0.00    +0.091 A 
ATOM      6  C   UNL     1      -2.647  11.410   6.710  0.00  0.00    -0.025 A 
ATOM      7  C   UNL     1      -1.320  11.172   6.600  0.00  0.00    -0.021 A 
ATOM      8  S   UNL     1      -1.202   9.760   5.541  0.00  0.00    -0.079 S 
ATOM      9  C   UNL     1      -2.888   9.495   5.238  0.00  0.00    +0.086 A 
ATOM     10  C   UNL     1      -0.220  11.950   7.250  0.00  0.00    -0.036 C 
ATOM     11  C   UNL     1      -2.012  12.991   8.505  0.00  0.00    -0.074 C 
ATOM     12  C   UNL     1      -3.146  12.567   7.568  0.00  0.00    +0.018 C 
ATOM     13  C   UNL     1       0.205  13.965   8.533  0.00  0.00    -0.096 C 
ATOM     14  N   UNL     1      -0.789  13.239   7.714  0.00  0.00    +0.381 N 
ATOM     15  H   UNL     1      -1.030  13.811   6.897  0.00  0.00    -0.082 HD
BRANCH   5  16
ATOM     16  C   UNL     1      -4.961  10.642   5.997  0.00  0.00    +0.342 C 
ATOM     17  O   UNL     1      -5.613  10.063   6.845  0.00  0.00    -0.245 OA
BRANCH  16  18
ATOM     18  O   UNL     1      -5.581  11.414   5.081  0.00  0.00    -0.461 OA
BRANCH  18  20
ATOM     19  C   UNL     1      -7.548  12.417   4.053  0.00  0.00    +0.048 C 
ATOM     20  C   UNL     1      -7.028  11.506   5.167  0.00  0.00    +0.229 C 
ENDBRANCH  18  20
ENDBRANCH  16  18
ENDBRANCH   5  16
ENDBRANCH   1   9
BRANCH   2  21
ATOM     21  C   UNL     1      -3.355   6.545   2.966  0.00  0.00    +0.091 C 
ATOM     22  C   UNL     1      -4.275   5.686   3.837  0.00  0.00    +0.015 C 
ATOM     23  C   UNL     1      -4.954   4.622   2.971  0.00  0.00    +0.018 C 
ATOM     24  C   UNL     1      -3.889   3.717   2.353  0.00  0.00    +0.109 C 
ATOM     25  N   UNL     1      -2.913   4.548   1.635  0.00  0.00    -0.175 NA
ATOM     26  C   UNL     1      -2.268   5.658   2.350  0.00  0.00    +0.122 C 
BRANCH  25  27
ATOM     27  S   UNL     1      -2.551   4.243   0.049  0.00  0.00    +0.067 S 
ATOM     28  O   UNL     1      -2.072   5.463  -0.500  0.00  0.00    -0.152 OA
ATOM     29  O   UNL     1      -3.664   3.547  -0.496  0.00  0.00    -0.152 OA
BRANCH  27  30
ATOM     30  C   UNL     1      -1.196   3.116   0.030  0.00  0.00    +0.143 A 
ATOM     31  C   UNL     1      -1.213   1.761   0.017  0.00  0.00    +0.036 A 
ATOM     32  C   UNL     1      -0.013   1.076   0.008  0.00  0.00    +0.010 A 
ATOM     33  C   UNL     1       1.146   1.780   0.001  0.00  0.00    +0.047 A 
ATOM     34  S   UNL     1       0.555   3.464   0.015  0.00  0.00    -0.077 S 
ENDBRANCH  27  30
ENDBRANCH  25  27
ENDBRANCH   2  21
TORSDOF 7
