REMARK  Name = ZINC09583358
REMARK  7 active torsions:
REMARK  status: ('A' for Active; 'I' for Inactive)
REMARK    1  A    between atoms: C_1  and  C_2
REMARK    2  A    between atoms: C_2  and  C_4
REMARK    3  A    between atoms: C_2  and  N_68
REMARK    4  A    between atoms: N_6  and  C_7
REMARK    5  A    between atoms: C_10  and  S_13
REMARK    6  A    between atoms: S_13  and  N_16
REMARK    7  A    between atoms: C_24  and  C_26
REMARK                            x       y       z     vdW  Elec       q    Type
REMARK                         _______ _______ _______ _____ _____    ______ ____
ROOT
ATOM      1  C   UNL     1       1.244   2.227  -0.223  0.00  0.00    -0.004 C 
ATOM      2  C   UNL     1       1.341   1.611   1.174  0.00  0.00    +0.017 C 
ENDROOT
BRANCH   2   7
ATOM      3  C   UNL     1       2.556  -0.081   2.424  0.00  0.00    -0.077 C 
ATOM      4  C   UNL     1       4.000  -0.109   2.985  0.00  0.00    -0.020 C 
ATOM      5  C   UNL     1       4.425   1.375   2.831  0.00  0.00    -0.013 C 
ATOM      6  C   UNL     1       3.735   1.800   1.518  0.00  0.00    -0.037 C 
ATOM      7  N   UNL     1       2.620   0.863   1.293  0.00  0.00    +0.392 N 
ATOM      8  H   UNL     1       2.785   0.341   0.424  0.00  0.00    -0.080 HD
BRANCH   6   9
ATOM      9  C   UNL     1       3.225   3.213   1.637  0.00  0.00    -0.057 A 
ATOM     10  C   UNL     1       3.485   4.127   0.633  0.00  0.00    +0.006 A 
ATOM     11  C   UNL     1       3.015   5.424   0.733  0.00  0.00    +0.049 A 
ATOM     12  C   UNL     1       2.292   5.808   1.849  0.00  0.00    +0.162 A 
ATOM     13  C   UNL     1       2.035   4.892   2.860  0.00  0.00    +0.162 A 
ATOM     14  C   UNL     1       2.502   3.593   2.754  0.00  0.00    +0.051 A 
ATOM     15  O   UNL     1       1.323   5.281   3.957  0.00  0.00    -0.488 OA
ATOM     16  C   UNL     1      -0.057   5.577   3.733  0.00  0.00    +0.232 C 
ATOM     17  C   UNL     1      -0.230   7.009   3.251  0.00  0.00    +0.082 C 
ATOM     18  C   UNL     1       0.409   7.243   1.891  0.00  0.00    +0.232 C 
ATOM     19  O   UNL     1       1.827   7.086   1.964  0.00  0.00    -0.488 OA
ENDBRANCH   6   9
ENDBRANCH   2   7
BRANCH   2  20
ATOM     20  C   UNL     1       0.188   0.665   1.387  0.00  0.00    +0.203 C 
ATOM     21  O   UNL     1       0.301  -0.506   1.090  0.00  0.00    -0.277 OA
ATOM     22  N   UNL     1      -0.971   1.120   1.903  0.00  0.00    -0.287 N 
ATOM     23  H   UNL     1      -1.083   2.067   2.084  0.00  0.00    +0.155 HD
BRANCH  22  24
ATOM     24  C   UNL     1      -2.013   0.228   2.178  0.00  0.00    +0.033 A 
ATOM     25  C   UNL     1      -2.251  -0.847   1.331  0.00  0.00    +0.025 A 
ATOM     26  C   UNL     1      -3.276  -1.730   1.609  0.00  0.00    +0.030 A 
ATOM     27  C   UNL     1      -4.073  -1.538   2.723  0.00  0.00    +0.106 A 
ATOM     28  C   UNL     1      -3.842  -0.465   3.565  0.00  0.00    +0.030 A 
ATOM     29  C   UNL     1      -2.815   0.417   3.296  0.00  0.00    +0.025 A 
BRANCH  27  30
ATOM     30  S   UNL     1      -5.385  -2.662   3.069  0.00  0.00    +0.061 S 
ATOM     31  O   UNL     1      -5.049  -3.887   2.432  0.00  0.00    -0.153 OA
ATOM     32  O   UNL     1      -5.638  -2.573   4.465  0.00  0.00    -0.153 OA
BRANCH  30  33
ATOM     33  N   UNL     1      -6.737  -2.086   2.305  0.00  0.00    -0.177 NA
ATOM     34  C   UNL     1      -7.722  -1.163   2.888  0.00  0.00    +0.109 C 
ATOM     35  C   UNL     1      -8.815  -0.929   1.823  0.00  0.00    +0.018 C 
ATOM     36  C   UNL     1      -8.685  -2.179   0.914  0.00  0.00    +0.018 C 
ATOM     37  C   UNL     1      -7.155  -2.420   0.932  0.00  0.00    +0.109 C 
ENDBRANCH  30  33
ENDBRANCH  27  30
ENDBRANCH  22  24
ENDBRANCH   2  20
TORSDOF 6
