REMARK  Name = ZINC19878072
REMARK  13 active torsions:
REMARK  status: ('A' for Active; 'I' for Inactive)
REMARK    1  A    between atoms: C_1  and  C_2
REMARK    2  A    between atoms: C_2  and  C_3
REMARK    3  A    between atoms: C_5  and  N_23
REMARK    4  A    between atoms: C_6  and  N_10
REMARK    5  A    between atoms: N_10  and  C_11
REMARK    6  A    between atoms: C_11  and  C_12
REMARK    7  A    between atoms: C_12  and  C_14
REMARK    8  A    between atoms: C_12  and  O_22
REMARK    9  A    between atoms: C_14  and  C_16
REMARK   10  A    between atoms: C_14  and  O_21
REMARK   11  A    between atoms: C_16  and  C_18
REMARK   12  A    between atoms: C_16  and  O_20
REMARK   13  A    between atoms: C_18  and  O_19
REMARK                            x       y       z     vdW  Elec       q    Type
REMARK                         _______ _______ _______ _____ _____    ______ ____
ROOT
ATOM      1  N   UNL     1      -0.012   0.969   0.044  0.00  0.00    -0.339 N 
ATOM      2  H   UNL     1       0.001  -0.131   0.029  0.00  0.00    +0.146 HD
ENDROOT
BRANCH   1   6
ATOM      3  C   UNL     1       3.568   3.094  -0.033  0.00  0.00    -0.031 A 
ATOM      4  C   UNL     1       3.586   1.715   0.070  0.00  0.00    +0.039 A 
ATOM      5  C   UNL     1       2.401   1.008   0.101  0.00  0.00    +0.147 A 
ATOM      6  C   UNL     1       1.188   1.682   0.018  0.00  0.00    +0.059 A 
ATOM      7  C   UNL     1       1.173   3.067  -0.085  0.00  0.00    +0.040 A 
ATOM      8  C   UNL     1       2.363   3.769  -0.111  0.00  0.00    +0.023 A 
ATOM      9 BR   UNL     1       2.344   5.655  -0.250  0.00  0.00    -0.050 Br
BRANCH   5  10
ATOM     10  N   UNL     1       2.421  -0.467   0.217  0.00  0.00    +0.058 N 
ATOM     11  O   UNL     1       3.476  -1.049   0.397  0.00  0.00    -0.126 OA
ATOM     12  O   UNL     1       1.383  -1.099   0.132  0.00  0.00    -0.126 OA
ENDBRANCH   5  10
BRANCH   3  14
ATOM     13  C   UNL     1       5.206   4.233  -1.506  0.00  0.00    +0.009 C 
ATOM     14  C   UNL     1       4.864   3.863  -0.061  0.00  0.00    +0.033 C 
ENDBRANCH   3  14
ENDBRANCH   1   6
BRANCH   1  15
ATOM     15  C   UNL     1      -1.289   1.685   0.090  0.00  0.00    +0.135 C 
BRANCH  15  16
ATOM     16  C   UNL     1      -2.440   0.677   0.104  0.00  0.00    +0.162 C 
BRANCH  16  17
ATOM     17  O   UNL     1      -2.385  -0.124  -1.079  0.00  0.00    -0.388 OA
ATOM     18  H   UNL     1      -3.137  -0.909  -1.246  0.00  0.00    +0.210 HD
ENDBRANCH  16  17
BRANCH  16  19
ATOM     19  C   UNL     1      -3.773   1.425   0.152  0.00  0.00    +0.175 C 
BRANCH  19  20
ATOM     20  O   UNL     1      -3.840   2.351  -0.934  0.00  0.00    -0.387 OA
ATOM     21  H   UNL     1      -4.731   2.983  -1.064  0.00  0.00    +0.210 HD
ENDBRANCH  19  20
BRANCH  19  22
ATOM     22  C   UNL     1      -4.925   0.424   0.040  0.00  0.00    +0.171 C 
BRANCH  22  23
ATOM     23  O   UNL     1      -4.858  -0.502   1.127  0.00  0.00    -0.387 OA
ATOM     24  H   UNL     1      -5.608  -1.302   1.215  0.00  0.00    +0.210 HD
ENDBRANCH  22  23
BRANCH  22  25
ATOM     25  C   UNL     1      -6.258   1.172   0.089  0.00  0.00    +0.189 C 
BRANCH  25  26
ATOM     26  O   UNL     1      -7.329   0.252  -0.132  0.00  0.00    -0.392 OA
ATOM     27  H   UNL     1      -8.370   0.609  -0.133  0.00  0.00    +0.210 HD
ENDBRANCH  25  26
ENDBRANCH  22  25
ENDBRANCH  19  22
ENDBRANCH  16  19
ENDBRANCH  15  16
ENDBRANCH   1  15
TORSDOF 12
