REMARK  Name = ZINC63737476
REMARK  6 active torsions:
REMARK  status: ('A' for Active; 'I' for Inactive)
REMARK    1  A    between atoms: C_1  and  C_2
REMARK    2  A    between atoms: C_8  and  S_13
REMARK    3  A    between atoms: S_13  and  N_16
REMARK    4  A    between atoms: N_16  and  C_17
REMARK    5  A    between atoms: C_21  and  C_23
REMARK    6  A    between atoms: C_33  and  C_35
REMARK                            x       y       z     vdW  Elec       q    Type
REMARK                         _______ _______ _______ _____ _____    ______ ____
ROOT
ATOM      1  N   UNL     1       1.236  -7.207   1.387  0.00  0.00    -0.216 N 
ATOM      2  H   UNL     1       2.034  -7.703   1.628  0.00  0.00    +0.174 HD
ENDROOT
BRANCH   1   3
ATOM      3  C   UNL     1       0.873  -7.076   0.044  0.00  0.00    +0.048 A 
ATOM      4  C   UNL     1      -0.444  -7.287  -0.345  0.00  0.00    +0.024 A 
ATOM      5  C   UNL     1      -0.799  -7.156  -1.673  0.00  0.00    +0.002 A 
ATOM      6  C   UNL     1       0.155  -6.816  -2.615  0.00  0.00    +0.006 A 
ATOM      7  C   UNL     1       1.466  -6.606  -2.231  0.00  0.00    -0.020 A 
ATOM      8  C   UNL     1       1.827  -6.729  -0.903  0.00  0.00    +0.030 A 
BRANCH   7   9
ATOM      9  C   UNL     1       2.502  -6.237  -3.261  0.00  0.00    +0.133 C 
ATOM     10  C   UNL     1       2.923  -7.462  -4.041  0.00  0.00    +0.012 C 
ATOM     11  C   UNL     1       2.602  -7.214  -5.331  0.00  0.00    -0.004 A 
ATOM     12  C   UNL     1       2.753  -8.000  -6.562  0.00  0.00    +0.010 A 
ATOM     13  C   UNL     1       2.328  -7.472  -7.733  0.00  0.00    +0.001 A 
ATOM     14  C   UNL     1       1.748  -6.198  -7.800  0.00  0.00    +0.002 A 
ATOM     15  C   UNL     1       1.576  -5.417  -6.713  0.00  0.00    +0.026 A 
ATOM     16  C   UNL     1       1.987  -5.871  -5.429  0.00  0.00    +0.043 A 
ATOM     17  N   UNL     1       1.930  -5.310  -4.244  0.00  0.00    -0.374 N 
ATOM     18  H   UNL     1       1.570  -4.430  -4.050  0.00  0.00    +0.161 HD
ENDBRANCH   7   9
ENDBRANCH   1   3
BRANCH   1  19
ATOM     19  S   UNL     1       0.303  -6.516   2.568  0.00  0.00    +0.072 S 
ATOM     20  O   UNL     1       0.975  -6.739   3.799  0.00  0.00    -0.150 OA
ATOM     21  O   UNL     1      -1.031  -6.949   2.338  0.00  0.00    -0.150 OA
BRANCH  19  28
ATOM     22  C   UNL     1      -0.458   1.367   0.711  0.00  0.00    +0.053 C 
ATOM     23  C   UNL     1      -0.403  -0.158   0.600  0.00  0.00    +0.188 C 
ATOM     24  C   UNL     1      -1.825  -0.732   0.690  0.00  0.00    +0.158 C 
ATOM     25  N   UNL     1      -1.717  -2.200   0.628  0.00  0.00    -0.265 N 
ATOM     26  C   UNL     1      -0.684  -2.810   1.360  0.00  0.00    +0.080 A 
ATOM     27  C   UNL     1      -0.699  -4.179   1.575  0.00  0.00    +0.056 A 
ATOM     28  C   UNL     1       0.321  -4.775   2.293  0.00  0.00    +0.110 A 
ATOM     29  C   UNL     1       1.354  -4.007   2.796  0.00  0.00    +0.032 A 
ATOM     30  C   UNL     1       1.374  -2.641   2.586  0.00  0.00    +0.049 A 
ATOM     31  C   UNL     1       0.354  -2.034   1.869  0.00  0.00    +0.142 A 
ATOM     32  O   UNL     1       0.379  -0.689   1.672  0.00  0.00    -0.486 OA
ATOM     33  C   UNL     1      -2.578  -2.932  -0.106  0.00  0.00    +0.217 C 
ATOM     34  O   UNL     1      -2.407  -4.127  -0.228  0.00  0.00    -0.276 OA
ATOM     35  C   UNL     1      -3.754  -2.267  -0.773  0.00  0.00    +0.109 C 
ENDBRANCH  19  28
ENDBRANCH   1  19
TORSDOF 4
