REMARK  Name = ZINC05285363
REMARK  10 active torsions:
REMARK  status: ('A' for Active; 'I' for Inactive)
REMARK    1  A    between atoms: C_1  and  C_2
REMARK    2  A    between atoms: C_2  and  N_3
REMARK    3  A    between atoms: N_3  and  C_4
REMARK    4  A    between atoms: N_3  and  C_6
REMARK    5  A    between atoms: C_4  and  C_5
REMARK    6  A    between atoms: C_6  and  C_7
REMARK    7  A    between atoms: C_7  and  C_8
REMARK    8  A    between atoms: C_8  and  N_9
REMARK    9  A    between atoms: C_16  and  N_31
REMARK   10  A    between atoms: C_19  and  N_20
REMARK                            x       y       z     vdW  Elec       q    Type
REMARK                         _______ _______ _______ _____ _____    ______ ____
ROOT
ATOM      1  N   UNL     1       2.430  -2.432  -3.751  0.00  0.00    -0.275 N 
ATOM      2  C   UNL     1       1.703  -2.465  -4.882  0.00  0.00    +0.264 A 
ATOM      3  O   UNL     1       0.534  -2.151  -4.983  0.00  0.00    -0.267 OA
ATOM      4  C   UNL     1       2.564  -2.945  -5.980  0.00  0.00    +0.075 A 
ATOM      5  C   UNL     1       3.826  -3.184  -5.405  0.00  0.00    +0.075 A 
ATOM      6  C   UNL     1       3.692  -2.837  -3.977  0.00  0.00    +0.264 A 
ATOM      7  O   UNL     1       4.574  -2.906  -3.144  0.00  0.00    -0.267 OA
ATOM      8  C   UNL     1       4.880  -3.654  -6.194  0.00  0.00    +0.050 A 
ATOM      9  C   UNL     1       4.676  -3.888  -7.565  0.00  0.00    +0.056 A 
ATOM     10  C   UNL     1       3.416  -3.649  -8.139  0.00  0.00    +0.056 A 
ATOM     11  C   UNL     1       2.358  -3.176  -7.343  0.00  0.00    +0.050 A 
ATOM     12  C   UNL     1       3.200  -3.894  -9.578  0.00  0.00    +0.196 A 
ATOM     13  O   UNL     1       2.110  -3.687 -10.073  0.00  0.00    -0.287 OA
ATOM     14  C   UNL     1       4.311  -4.390 -10.416  0.00  0.00    +0.033 A 
ATOM     15  C   UNL     1       4.116  -4.624 -11.774  0.00  0.00    +0.012 A 
ATOM     16  C   UNL     1       5.163  -5.090 -12.550  0.00  0.00    +0.001 A 
ATOM     17  C   UNL     1       6.403  -5.324 -11.986  0.00  0.00    +0.001 A 
ATOM     18  C   UNL     1       6.614  -5.097 -10.638  0.00  0.00    +0.012 A 
ATOM     19  C   UNL     1       5.572  -4.629  -9.842  0.00  0.00    +0.033 A 
ATOM     20  C   UNL     1       5.786  -4.383  -8.400  0.00  0.00    +0.196 A 
ATOM     21  O   UNL     1       6.876  -4.590  -7.903  0.00  0.00    -0.287 OA
ENDROOT
BRANCH  11  22
ATOM     22  N   UNL     1       1.120  -2.941  -7.906  0.00  0.00    -0.357 N 
ATOM     23  H   UNL     1       0.511  -2.308  -7.493  0.00  0.00    +0.142 HD
ATOM     24  H   UNL     1       0.858  -3.408  -8.715  0.00  0.00    +0.142 HD
ENDBRANCH  11  22
BRANCH   8  25
ATOM     25  N   UNL     1       6.118  -3.888  -5.629  0.00  0.00    -0.357 N 
ATOM     26  H   UNL     1       6.717  -4.539  -6.026  0.00  0.00    +0.142 HD
ATOM     27  H   UNL     1       6.388  -3.401  -4.834  0.00  0.00    +0.142 HD
ENDBRANCH   8  25
BRANCH   1  28
ATOM     28  C   UNL     1       1.916  -2.007  -2.446  0.00  0.00    +0.127 C 
BRANCH  28  29
ATOM     29  C   UNL     1       2.120  -0.499  -2.284  0.00  0.00    +0.003 C 
BRANCH  29  30
ATOM     30  C   UNL     1       1.583  -0.055  -0.922  0.00  0.00    -0.077 C 
BRANCH  30  31
ATOM     31  N   UNL     1       1.895   1.365  -0.712  0.00  0.00    +0.379 N 
ATOM     32  H   UNL     1       2.888   1.510  -0.817  0.00  0.00    -0.082 HD
BRANCH  31  34
ATOM     33  C   UNL     1       1.595   3.641  -1.564  0.00  0.00    -0.017 C 
ATOM     34  C   UNL     1       1.174   2.176  -1.702  0.00  0.00    -0.082 C 
ENDBRANCH  31  34
BRANCH  31  35
ATOM     35  C   UNL     1       1.483   1.762   0.641  0.00  0.00    -0.082 C 
ATOM     36  C   UNL     1       2.323   1.006   1.672  0.00  0.00    -0.017 C 
ENDBRANCH  31  35
ENDBRANCH  30  31
ENDBRANCH  29  30
ENDBRANCH  28  29
ENDBRANCH   1  28
TORSDOF 8
