REMARK  Name = ZINC37256107
REMARK  4 active torsions:
REMARK  status: ('A' for Active; 'I' for Inactive)
REMARK    1  A    between atoms: C_1  and  C_2
REMARK    2  A    between atoms: C_7  and  N_10
REMARK    3  A    between atoms: C_11  and  C_13
REMARK    4  A    between atoms: C_16  and  O_20
REMARK                            x       y       z     vdW  Elec       q    Type
REMARK                         _______ _______ _______ _____ _____    ______ ____
ROOT
ATOM      1  N   UNL     1       1.471  -2.526   2.420  0.00  0.00    -0.314 N 
ATOM      2  C   UNL     1       1.207  -3.754   2.907  0.00  0.00    +0.199 C 
ATOM      3  O   UNL     1       0.382  -4.458   2.364  0.00  0.00    -0.278 OA
ATOM      4  H   UNL     1       2.131  -1.963   2.855  0.00  0.00    +0.149 HD
ENDROOT
BRANCH   1  10
ATOM      5  C   UNL     1      -0.019   1.526   0.010  0.00  0.00    +0.007 C 
ATOM      6  C   UNL     1       0.002  -0.004   0.002  0.00  0.00    -0.012 C 
ATOM      7  C   UNL     1       0.718  -0.497  -1.257  0.00  0.00    +0.003 C 
ATOM      8  C   UNL     1       0.739  -2.027  -1.265  0.00  0.00    +0.002 C 
ATOM      9  C   UNL     1       1.479  -2.534  -0.026  0.00  0.00    +0.022 C 
ATOM     10  C   UNL     1       0.763  -2.041   1.233  0.00  0.00    +0.073 C 
ATOM     11  C   UNL     1       0.742  -0.511   1.242  0.00  0.00    +0.025 C 
ENDBRANCH   1  10
BRANCH   2  12
ATOM     12  C   UNL     1       1.936  -4.254   4.128  0.00  0.00    +0.018 C 
ATOM     13  C   UNL     1       3.335  -4.769   3.730  0.00  0.00    +0.023 C 
ATOM     14  C   UNL     1       3.518  -6.017   4.634  0.00  0.00    +0.097 C 
ATOM     15  C   UNL     1       2.076  -6.582   4.683  0.00  0.00    -0.050 C 
ATOM     16  N   UNL     1       1.202  -5.386   4.723  0.00  0.00    +0.388 N 
ATOM     17  H   UNL     1       0.961  -5.170   5.678  0.00  0.00    -0.085 HD
ATOM     18  H   UNL     1       0.361  -5.561   4.193  0.00  0.00    -0.085 HD
BRANCH  14  19
ATOM     19  O   UNL     1       4.416  -6.954   4.037  0.00  0.00    -0.394 OA
ATOM     20  H   UNL     1       4.562  -7.751   4.566  0.00  0.00    +0.210 HD
ENDBRANCH  14  19
ENDBRANCH   2  12
TORSDOF 3
