REMARK  Name = ZINC42592821
REMARK  4 active torsions:
REMARK  status: ('A' for Active; 'I' for Inactive)
REMARK    1  A    between atoms: C_3  and  C_6
REMARK    2  A    between atoms: C_6  and  C_7
REMARK    3  A    between atoms: C_7  and  N_8
REMARK    4  A    between atoms: C_13  and  N_17
REMARK                            x       y       z     vdW  Elec       q    Type
REMARK                         _______ _______ _______ _____ _____    ______ ____
ROOT
ATOM      1  N   UNL     1       5.591   0.572   1.393  0.00  0.00    -0.294 NA
ATOM      2  C   UNL     1       6.149   1.896   1.036  0.00  0.00    +0.120 C 
ATOM      3  C   UNL     1       6.367   2.615   2.349  0.00  0.00    -0.029 A 
ATOM      4  C   UNL     1       6.557   3.952   2.644  0.00  0.00    +0.007 A 
ATOM      5  C   UNL     1       6.736   4.354   3.953  0.00  0.00    +0.023 A 
ATOM      6  C   UNL     1       6.725   3.413   4.975  0.00  0.00    +0.025 A 
ATOM      7  C   UNL     1       6.533   2.070   4.676  0.00  0.00    +0.028 A 
ATOM      8  C   UNL     1       6.355   1.674   3.365  0.00  0.00    -0.027 A 
ATOM      9  C   UNL     1       6.130   0.312   2.748  0.00  0.00    +0.120 C 
ENDROOT
BRANCH   6  10
ATOM     10  N   UNL     1       6.906   3.816   6.300  0.00  0.00    -0.358 N 
ATOM     11  H   UNL     1       7.040   4.754   6.507  0.00  0.00    +0.142 HD
ATOM     12  H   UNL     1       6.898   3.158   7.012  0.00  0.00    +0.142 HD
ENDBRANCH   6  10
BRANCH   1  13
ATOM     13  C   UNL     1       4.123   0.606   1.408  0.00  0.00    +0.093 C 
BRANCH  13  14
ATOM     14  C   UNL     1       3.599   0.625  -0.029  0.00  0.00    +0.089 C 
BRANCH  14  17
ATOM     15  C   UNL     1      -0.016   1.341   0.009  0.00  0.00    +0.041 A 
ATOM     16  C   UNL     1       1.331   1.769  -0.001  0.00  0.00    +0.044 A 
ATOM     17  C   UNL     1       2.092   0.660  -0.014  0.00  0.00    +0.106 A 
ATOM     18  O   UNL     1       1.282  -0.411  -0.012  0.00  0.00    -0.468 OA
ATOM     19  C   UNL     1       0.002  -0.004   0.002  0.00  0.00    +0.195 A 
ENDBRANCH  14  17
ENDBRANCH  13  14
ENDBRANCH   1  13
TORSDOF 4
