REMARK  Name = ZINC09108658
REMARK  6 active torsions:
REMARK  status: ('A' for Active; 'I' for Inactive)
REMARK    1  A    between atoms: C_1  and  C_2
REMARK    2  A    between atoms: C_2  and  C_3
REMARK    3  A    between atoms: C_6  and  N_9
REMARK    4  A    between atoms: C_12  and  C_18
REMARK    5  A    between atoms: C_13  and  O_17
REMARK    6  A    between atoms: C_15  and  O_16
REMARK                            x       y       z     vdW  Elec       q    Type
REMARK                         _______ _______ _______ _____ _____    ______ ____
ROOT
ATOM      1  N   UNL     1      -0.016   1.345   0.009  0.00  0.00    -0.231 N 
ATOM      2  C   UNL     1       0.057   0.087   0.491  0.00  0.00    +0.267 A 
ATOM      3  O   UNL     1      -0.935  -0.464   0.943  0.00  0.00    -0.267 OA
ATOM      4  C   UNL     1       1.290  -0.576   0.465  0.00  0.00    +0.071 A 
ATOM      5  C   UNL     1       2.389   0.086  -0.055  0.00  0.00    +0.224 A 
ATOM      6  N   UNL     1       2.255   1.333  -0.518  0.00  0.00    -0.161 NA
ATOM      7  C   UNL     1       1.095   1.950  -0.491  0.00  0.00    +0.306 A 
ENDROOT
BRANCH   4   8
ATOM      8  C   UNL     1       1.418  -1.982   0.992  0.00  0.00    +0.018 C 
ATOM      9  C   UNL     1       1.141  -1.995   2.476  0.00  0.00    +0.011 A 
ATOM     10  C   UNL     1       0.370  -2.938   3.071  0.00  0.00    -0.022 A 
ATOM     11  C   UNL     1       0.326  -2.623   4.482  0.00  0.00    +0.003 A 
ATOM     12  C   UNL     1      -0.303  -3.231   5.573  0.00  0.00    +0.010 A 
ATOM     13  C   UNL     1      -0.124  -2.643   6.800  0.00  0.00    +0.001 A 
ATOM     14  C   UNL     1       0.643  -1.501   6.965  0.00  0.00    +0.002 A 
ATOM     15  C   UNL     1       1.277  -0.879   5.904  0.00  0.00    +0.026 A 
ATOM     16  C   UNL     1       1.112  -1.453   4.645  0.00  0.00    +0.047 A 
ATOM     17  N   UNL     1       1.585  -1.104   3.412  0.00  0.00    -0.359 N 
ATOM     18  H   UNL     1       2.154  -0.341   3.228  0.00  0.00    +0.166 HD
ATOM     19  C   UNL     1      -0.281  -4.074   2.324  0.00  0.00    +0.018 C 
ATOM     20  C   UNL     1       0.388  -4.182   0.947  0.00  0.00    -0.076 C 
ATOM     21  N   UNL     1       0.431  -2.848   0.312  0.00  0.00    +0.388 N 
ATOM     22  H   UNL     1       0.695  -2.953  -0.675  0.00  0.00    -0.084 HD
ATOM     23  H   UNL     1      -0.498  -2.415   0.373  0.00  0.00    -0.084 HD
ENDBRANCH   4   8
BRANCH   1  27
ATOM     24  C   UNL     1      -3.655   3.377   0.038  0.00  0.00    -0.047 A 
ATOM     25  C   UNL     1      -2.801   3.477   1.120  0.00  0.00    +0.005 A 
ATOM     26  C   UNL     1      -1.594   2.805   1.114  0.00  0.00    +0.026 A 
ATOM     27  C   UNL     1      -1.240   2.028   0.019  0.00  0.00    +0.054 A 
ATOM     28  C   UNL     1      -2.097   1.935  -1.069  0.00  0.00    +0.026 A 
ATOM     29  C   UNL     1      -3.305   2.604  -1.054  0.00  0.00    +0.005 A 
BRANCH  24  31
ATOM     30  C   UNL     1      -4.782   5.505  -0.555  0.00  0.00    +0.009 C 
ATOM     31  C   UNL     1      -4.971   4.112   0.048  0.00  0.00    +0.032 C 
ENDBRANCH  24  31
ENDBRANCH   1  27
BRANCH   7  32
ATOM     32  O   UNL     1       1.005   3.208  -0.968  0.00  0.00    -0.479 OA
ATOM     33  H   UNL     1       1.815   3.605  -1.316  0.00  0.00    +0.295 HD
ENDBRANCH   7  32
BRANCH   5  34
ATOM     34  O   UNL     1       3.595  -0.527  -0.094  0.00  0.00    -0.492 OA
ATOM     35  H   UNL     1       4.300   0.015  -0.474  0.00  0.00    +0.294 HD
ENDBRANCH   5  34
TORSDOF 5
