REMARK  Name = ZINC20558383
REMARK  5 active torsions:
REMARK  status: ('A' for Active; 'I' for Inactive)
REMARK    1  A    between atoms: C_1  and  C_2
REMARK    2  A    between atoms: C_2  and  N_3
REMARK    3  A    between atoms: C_15  and  C_23
REMARK    4  A    between atoms: C_17  and  C_21
REMARK    5  A    between atoms: C_18  and  N_20
REMARK                            x       y       z     vdW  Elec       q    Type
REMARK                         _______ _______ _______ _____ _____    ______ ____
ROOT
ATOM      1  N   UNL     1      -2.399   3.876   0.019  0.00  0.00    -0.203 N 
ATOM      2  C   UNL     1      -1.225   3.124   0.150  0.00  0.00    +0.062 A 
ATOM      3  C   UNL     1      -0.014   3.792   0.271  0.00  0.00    +0.025 A 
ATOM      4  C   UNL     1       1.164   3.080   0.380  0.00  0.00    +0.002 A 
ATOM      5  C   UNL     1       1.140   1.696   0.369  0.00  0.00    +0.001 A 
ATOM      6  C   UNL     1      -0.055   1.020   0.254  0.00  0.00    +0.013 A 
ATOM      7  C   UNL     1      -1.258   1.729   0.142  0.00  0.00    +0.042 A 
ATOM      8  C   UNL     1      -2.514   0.948   0.035  0.00  0.00    +0.162 C 
ATOM      9  C   UNL     1      -3.640   1.494  -0.411  0.00  0.00    +0.141 C 
ATOM     10  S   UNL     1      -3.632   3.200  -0.881  0.00  0.00    +0.075 S 
ATOM     11  O   UNL     1      -3.237   3.254  -2.245  0.00  0.00    -0.150 OA
ATOM     12  O   UNL     1      -4.845   3.768  -0.407  0.00  0.00    -0.150 OA
ATOM     13  C   UNL     1      -4.914   0.704  -0.524  0.00  0.00    +0.118 C 
ATOM     14  C   UNL     1      -4.615  -0.770  -0.490  0.00  0.00    +0.099 C 
ATOM     15  C   UNL     1      -3.420  -1.214  -0.025  0.00  0.00    +0.199 C 
ATOM     16  O   UNL     1      -2.482  -0.358   0.413  0.00  0.00    -0.439 OA
ENDROOT
BRANCH  13  17
ATOM     17  C   UNL     1      -5.824   1.056   0.624  0.00  0.00    -0.033 A 
ATOM     18  C   UNL     1      -5.417   0.821   1.925  0.00  0.00    +0.006 A 
ATOM     19  C   UNL     1      -6.250   1.148   2.979  0.00  0.00    +0.015 A 
ATOM     20  C   UNL     1      -7.493   1.701   2.732  0.00  0.00    +0.018 A 
ATOM     21  C   UNL     1      -7.902   1.931   1.430  0.00  0.00    +0.015 A 
ATOM     22  C   UNL     1      -7.067   1.608   0.377  0.00  0.00    +0.006 A 
ATOM     23 BR   UNL     1      -8.636   2.142   4.173  0.00  0.00    -0.050 Br
ENDBRANCH  13  17
BRANCH  15  24
ATOM     24  N   UNL     1      -3.164  -2.562  -0.004  0.00  0.00    -0.328 N 
ATOM     25  H   UNL     1      -2.199  -2.933   0.371  0.00  0.00    +0.145 HD
ATOM     26  H   UNL     1      -3.925  -3.272  -0.361  0.00  0.00    +0.145 HD
ENDBRANCH  15  24
BRANCH   1  28
ATOM     27  C   UNL     1      -2.953   5.041   2.097  0.00  0.00    +0.026 C 
ATOM     28  C   UNL     1      -2.532   5.199   0.635  0.00  0.00    +0.128 C 
ENDBRANCH   1  28
BRANCH  14  29
ATOM     29  C   UNL     1      -5.595  -1.708  -0.949  0.00  0.00    +0.101 C 
ATOM     30  N   UNL     1      -6.372  -2.451  -1.314  0.00  0.00    -0.191 NA
ENDBRANCH  14  29
TORSDOF 4
