REMARK  Name = ZINC61404934
REMARK  6 active torsions:
REMARK  status: ('A' for Active; 'I' for Inactive)
REMARK    1  A    between atoms: C_1  and  C_2
REMARK    2  A    between atoms: C_3  and  C_10
REMARK    3  A    between atoms: C_4  and  N_8
REMARK    4  A    between atoms: N_5  and  C_7
REMARK    5  A    between atoms: N_8  and  N_9
REMARK    6  A    between atoms: C_10  and  N_11
REMARK                            x       y       z     vdW  Elec       q    Type
REMARK                         _______ _______ _______ _____ _____    ______ ____
ROOT
ATOM      1  C   UNL     1      -0.907   1.211   0.352  0.00  0.00    +0.065 C 
ATOM      2  C   UNL     1      -0.564  -0.250   0.219  0.00  0.00    +0.038 A 
ATOM      3  C   UNL     1      -0.164  -0.893  -0.956  0.00  0.00    +0.035 A 
ATOM      4  C   UNL     1       0.050  -2.205  -0.660  0.00  0.00    +0.133 A 
ATOM      5  N   UNL     1      -0.207  -2.374   0.657  0.00  0.00    -0.275 N 
ATOM      6  N   UNL     1      -0.585  -1.133   1.185  0.00  0.00    -0.300 N 
ATOM      7  C   UNL     1      -0.105  -3.632   1.400  0.00  0.00    +0.172 C 
ATOM      8  H   UNL     1      -0.824  -0.958   2.108  0.00  0.00    +0.187 HD
ENDROOT
BRANCH   4   9
ATOM      9  N   UNL     1       0.460  -3.192  -1.552  0.00  0.00    -0.268 N 
ATOM     10  H   UNL     1       0.154  -3.172  -2.472  0.00  0.00    +0.167 HD
BRANCH   9  11
ATOM     11  N   UNL     1       1.293  -4.190  -1.131  0.00  0.00    -0.255 NA
ATOM     12  H   UNL     1       1.435  -4.874  -1.859  0.00  0.00    +0.140 HD
ATOM     13  H   UNL     1       2.173  -3.815  -0.809  0.00  0.00    +0.140 HD
ENDBRANCH   9  11
ENDBRANCH   4   9
BRANCH   3  14
ATOM     14  C   UNL     1       0.000  -0.249  -2.308  0.00  0.00    +0.187 C 
BRANCH  14  15
ATOM     15  N   UNL     1       1.373   0.241  -2.452  0.00  0.00    -0.225 N 
ATOM     16  C   UNL     1       2.309  -0.573  -2.975  0.00  0.00    +0.268 A 
ATOM     17  O   UNL     1       2.017  -1.705  -3.325  0.00  0.00    -0.266 OA
ATOM     18  C   UNL     1       3.633  -0.103  -3.115  0.00  0.00    +0.073 A 
ATOM     19  C   UNL     1       3.903   1.172  -2.707  0.00  0.00    +0.027 A 
ATOM     20  C   UNL     1       2.853   1.938  -2.175  0.00  0.00    +0.133 A 
ATOM     21  N   UNL     1       1.652   1.438  -2.081  0.00  0.00    -0.176 NA
ENDBRANCH  14  15
ENDBRANCH   3  14
TORSDOF 4
