REMARK  Name = ZINC34749975
REMARK  8 active torsions:
REMARK  status: ('A' for Active; 'I' for Inactive)
REMARK    1  A    between atoms: C_1  and  C_2
REMARK    2  A    between atoms: C_2  and  C_3
REMARK    3  A    between atoms: C_3  and  S_4
REMARK    4  A    between atoms: S_4  and  C_5
REMARK    5  A    between atoms: C_16  and  C_18
REMARK    6  A    between atoms: C_16  and  C_19
REMARK    7  A    between atoms: N_23  and  C_26
REMARK    8  A    between atoms: C_26  and  C_27
REMARK                            x       y       z     vdW  Elec       q    Type
REMARK                         _______ _______ _______ _____ _____    ______ ____
ROOT
ATOM      1  C   UNL     1       1.196  -2.491   4.285  0.00  0.00    +0.191 A 
ATOM      2  N   UNL     1       1.412  -3.780   4.523  0.00  0.00    -0.206 NA
ATOM      3  C   UNL     1       2.491  -4.404   4.084  0.00  0.00    +0.134 A 
ATOM      4  C   UNL     1       3.457  -3.680   3.329  0.00  0.00    +0.051 A 
ATOM      5  C   UNL     1       4.712  -4.155   2.749  0.00  0.00    -0.020 A 
ATOM      6  C   UNL     1       5.455  -3.255   2.071  0.00  0.00    +0.021 A 
ATOM      7  S   UNL     1       4.543  -1.741   2.162  0.00  0.00    -0.071 S 
ATOM      8  C   UNL     1       3.162  -2.318   3.114  0.00  0.00    +0.115 A 
ATOM      9  N   UNL     1       2.058  -1.768   3.583  0.00  0.00    -0.215 NA
ATOM     10  C   UNL     1       6.768  -3.516   1.400  0.00  0.00    +0.203 C 
ATOM     11  O   UNL     1       7.256  -4.785   1.862  0.00  0.00    -0.368 OA
ATOM     12  C   UNL     1       6.277  -5.826   1.808  0.00  0.00    +0.068 C 
ATOM     13  C   UNL     1       5.203  -5.595   2.875  0.00  0.00    +0.071 C 
ATOM     14  C   UNL     1       5.624  -5.837   0.425  0.00  0.00    +0.041 C 
ATOM     15  C   UNL     1       6.956  -7.175   2.055  0.00  0.00    +0.041 C 
ATOM     16  N   UNL     1       2.680  -5.747   4.354  0.00  0.00    -0.318 N 
ATOM     17  C   UNL     1       3.487  -6.181   5.505  0.00  0.00    +0.088 C 
ATOM     18  C   UNL     1       2.679  -7.208   6.305  0.00  0.00    -0.059 C 
ATOM     19  N   UNL     1       2.257  -8.298   5.416  0.00  0.00    +0.387 N 
ATOM     20  C   UNL     1       1.337  -7.781   4.394  0.00  0.00    -0.059 C 
ATOM     21  C   UNL     1       2.074  -6.783   3.502  0.00  0.00    +0.088 C 
ATOM     22  H   UNL     1       3.067  -8.697   4.966  0.00  0.00    -0.081 HD
ENDROOT
BRANCH   1  23
ATOM     23  S   UNL     1      -0.267  -1.730   4.905  0.00  0.00    -0.086 S 
BRANCH  23  24
ATOM     24  C   UNL     1      -0.141  -0.011   4.340  0.00  0.00    +0.077 C 
BRANCH  24  26
ATOM     25  C   UNL     1      -1.259   2.223   4.341  0.00  0.00    +0.004 C 
ATOM     26  C   UNL     1      -1.365   0.773   4.817  0.00  0.00    +0.008 C 
ENDBRANCH  24  26
ENDBRANCH  23  24
ENDBRANCH   1  23
BRANCH  19  27
ATOM     27  C   UNL     1       1.578  -9.335   6.204  0.00  0.00    +0.019 C 
BRANCH  27  28
ATOM     28  C   UNL     1       1.252 -10.508   5.316  0.00  0.00    +0.199 C 
ATOM     29  O   UNL     1       1.556 -10.483   4.142  0.00  0.00    -0.278 OA
ATOM     30  N   UNL     1       0.624 -11.586   5.826  0.00  0.00    -0.303 N 
ATOM     31  C   UNL     1       0.244 -11.629   7.245  0.00  0.00    +0.107 C 
ATOM     32  C   UNL     1      -1.251 -11.950   7.345  0.00  0.00    +0.019 C 
ATOM     33  C   UNL     1      -1.544 -13.240   6.577  0.00  0.00    +0.003 C 
ATOM     34  C   UNL     1      -1.190 -13.048   5.100  0.00  0.00    +0.019 C 
ATOM     35  C   UNL     1       0.300 -12.737   4.973  0.00  0.00    +0.107 C 
ENDBRANCH  27  28
ENDBRANCH  19  27
TORSDOF 5
