REMARK  Name = ZINC35427154
REMARK  8 active torsions:
REMARK  status: ('A' for Active; 'I' for Inactive)
REMARK    1  A    between atoms: C_1  and  C_2
REMARK    2  A    between atoms: C_2  and  O_3
REMARK    3  A    between atoms: O_3  and  C_4
REMARK    4  A    between atoms: C_7  and  N_10
REMARK    5  A    between atoms: C_25  and  C_27
REMARK    6  A    between atoms: C_30  and  O_33
REMARK    7  A    between atoms: O_33  and  C_34
REMARK    8  A    between atoms: N_36  and  C_39
REMARK                            x       y       z     vdW  Elec       q    Type
REMARK                         _______ _______ _______ _____ _____    ______ ____
ROOT
ATOM      1  N   UNL     1       1.143  -5.937   1.771  0.00  0.00    -0.269 N 
ATOM      2  C   UNL     1       1.864  -6.458   2.783  0.00  0.00    +0.308 C 
ATOM      3  O   UNL     1       2.349  -5.725   3.624  0.00  0.00    -0.252 OA
ATOM      4  N   UNL     1       2.049  -7.790   2.864  0.00  0.00    -0.268 N 
ATOM      5  C   UNL     1       1.483  -8.710   1.861  0.00  0.00    +0.148 C 
ATOM      6  C   UNL     1       0.943  -9.984   2.473  0.00  0.00    +0.004 A 
ATOM      7  C   UNL     1      -0.429 -10.290   2.527  0.00  0.00    -0.034 A 
ATOM      8  C   UNL     1      -0.794 -11.475   3.088  0.00  0.00    -0.021 A 
ATOM      9  S   UNL     1       0.748 -12.211   3.560  0.00  0.00    -0.077 S 
ATOM     10  C   UNL     1       1.796 -10.901   3.006  0.00  0.00    +0.090 A 
ATOM     11  N   UNL     1       3.173 -10.736   3.074  0.00  0.00    -0.312 N 
ATOM     12  C   UNL     1       4.192 -11.577   2.781  0.00  0.00    +0.092 A 
ATOM     13  C   UNL     1       5.353 -10.903   2.951  0.00  0.00    +0.020 A 
ATOM     14  C   UNL     1       5.028  -9.600   3.386  0.00  0.00    +0.025 A 
ATOM     15  C   UNL     1       3.692  -9.528   3.478  0.00  0.00    +0.049 A 
ATOM     16  C   UNL     1       2.835  -8.401   3.962  0.00  0.00    +0.155 C 
ATOM     17  C   UNL     1      -2.183 -11.998   3.253  0.00  0.00    -0.036 C 
ATOM     18  N   UNL     1      -3.125 -10.881   3.054  0.00  0.00    +0.381 N 
ATOM     19  C   UNL     1      -2.793 -10.177   1.809  0.00  0.00    -0.074 C 
ATOM     20  C   UNL     1      -1.511  -9.359   1.985  0.00  0.00    +0.018 C 
ATOM     21  C   UNL     1      -4.495 -11.405   2.971  0.00  0.00    -0.096 C 
ATOM     22  H   UNL     1       0.704  -6.524   1.136  0.00  0.00    +0.156 HD
ATOM     23  H   UNL     1      -3.057 -10.240   3.831  0.00  0.00    -0.082 HD
ENDROOT
BRANCH   1  27
ATOM     24  C   UNL     1       0.803  -1.800   1.366  0.00  0.00    +0.121 A 
ATOM     25  C   UNL     1       0.854  -2.372   2.629  0.00  0.00    +0.047 A 
ATOM     26  C   UNL     1       0.967  -3.741   2.764  0.00  0.00    +0.027 A 
ATOM     27  C   UNL     1       1.028  -4.547   1.635  0.00  0.00    +0.035 A 
ATOM     28  C   UNL     1       0.977  -3.975   0.371  0.00  0.00    +0.027 A 
ATOM     29  C   UNL     1       0.859  -2.605   0.237  0.00  0.00    +0.047 A 
BRANCH  24  30
ATOM     30  O   UNL     1       0.692  -0.452   1.234  0.00  0.00    -0.492 OA
BRANCH  30  32
ATOM     31  C   UNL     1       0.516   1.801   2.091  0.00  0.00    +0.048 C 
ATOM     32  C   UNL     1       0.640   0.316   2.438  0.00  0.00    +0.225 C 
ENDBRANCH  30  32
ENDBRANCH  24  30
ENDBRANCH   1  27
BRANCH  16  33
ATOM     33  C   UNL     1       1.889  -8.926   5.011  0.00  0.00    -0.021 A 
ATOM     34  C   UNL     1       2.250 -10.013   5.785  0.00  0.00    +0.009 A 
ATOM     35  C   UNL     1       1.384 -10.496   6.747  0.00  0.00    +0.046 A 
ATOM     36  C   UNL     1       0.151  -9.889   6.936  0.00  0.00    +0.120 A 
ATOM     37  C   UNL     1      -0.209  -8.798   6.159  0.00  0.00    +0.046 A 
ATOM     38  C   UNL     1       0.663  -8.315   5.202  0.00  0.00    +0.009 A 
BRANCH  36  39
ATOM     39  O   UNL     1      -0.703 -10.362   7.881  0.00  0.00    -0.495 OA
ATOM     40  C   UNL     1      -1.955  -9.688   8.021  0.00  0.00    +0.277 C 
ENDBRANCH  36  39
ENDBRANCH  16  33
TORSDOF 5
