REMARK  Name = ZINC20701011
REMARK  7 active torsions:
REMARK  status: ('A' for Active; 'I' for Inactive)
REMARK    1  A    between atoms: C_1  and  O_2
REMARK    2  A    between atoms: O_2  and  C_3
REMARK    3  A    between atoms: C_6  and  N_9
REMARK    4  A    between atoms: N_9  and  S_10
REMARK    5  A    between atoms: S_10  and  C_13
REMARK    6  A    between atoms: C_26  and  C_29
REMARK    7  A    between atoms: C_34  and  O_35
REMARK                            x       y       z     vdW  Elec       q    Type
REMARK                         _______ _______ _______ _____ _____    ______ ____
ROOT
ATOM      1  C   UNL     1       0.996   0.446   0.054  0.00  0.00    +0.109 A 
ATOM      2  C   UNL     1      -0.169  -0.272  -0.152  0.00  0.00    +0.030 A 
ATOM      3  C   UNL     1      -0.145  -1.650  -0.074  0.00  0.00    +0.025 A 
ATOM      4  C   UNL     1       1.043  -2.311   0.211  0.00  0.00    +0.031 A 
ATOM      5  C   UNL     1       2.213  -1.596   0.416  0.00  0.00    -0.018 A 
ATOM      6  C   UNL     1       2.178  -0.210   0.331  0.00  0.00    +0.034 A 
ATOM      7  C   UNL     1       3.517  -2.263   0.719  0.00  0.00    +0.049 C 
ATOM      8  C   UNL     1       3.887  -2.116   2.176  0.00  0.00    -0.023 C 
ATOM      9  C   UNL     1       4.480  -3.203   2.606  0.00  0.00    -0.030 C 
ATOM     10  C   UNL     1       4.591  -4.224   1.489  0.00  0.00    +0.033 C 
ATOM     11  C   UNL     1       3.480  -3.787   0.490  0.00  0.00    +0.029 C 
ATOM     12  C   UNL     1       2.155  -4.359   1.002  0.00  0.00    +0.109 C 
ATOM     13  N   UNL     1       1.050  -3.707   0.292  0.00  0.00    -0.336 N 
ATOM     14  H   UNL     1       0.252  -4.315  -0.161  0.00  0.00    +0.147 HD
ENDROOT
BRANCH  12  15
ATOM     15  C   UNL     1       2.029  -4.097   2.480  0.00  0.00    +0.017 A 
ATOM     16  C   UNL     1       1.562  -2.876   2.928  0.00  0.00    +0.029 A 
ATOM     17  C   UNL     1       1.446  -2.634   4.286  0.00  0.00    +0.043 A 
ATOM     18  C   UNL     1       1.799  -3.614   5.197  0.00  0.00    +0.043 A 
ATOM     19  C   UNL     1       2.267  -4.836   4.753  0.00  0.00    +0.084 A 
ATOM     20  C   UNL     1       2.378  -5.082   3.391  0.00  0.00    +0.140 A 
ATOM     21 CL   UNL     1       2.710  -6.064   5.897  0.00  0.00    -0.080 Cl
ATOM     22 CL   UNL     1       0.858  -1.100   4.846  0.00  0.00    -0.083 Cl
BRANCH  20  23
ATOM     23  O   UNL     1       2.833  -6.285   2.952  0.00  0.00    -0.505 OA
ATOM     24  H   UNL     1       3.110  -7.066   3.676  0.00  0.00    +0.292 HD
ENDBRANCH  20  23
ENDBRANCH  12  15
BRANCH   1  25
ATOM     25  S   UNL     1       0.971   2.205  -0.044  0.00  0.00    +0.072 S 
ATOM     26  O   UNL     1       2.313   2.619  -0.258  0.00  0.00    -0.150 OA
ATOM     27  O   UNL     1      -0.083   2.547  -0.934  0.00  0.00    -0.150 OA
BRANCH  25  28
ATOM     28  N   UNL     1       0.532   2.772   1.448  0.00  0.00    -0.216 N 
ATOM     29  H   UNL     1       1.234   3.386   2.032  0.00  0.00    +0.174 HD
BRANCH  28  33
ATOM     30  C   UNL     1      -3.233   1.875   2.996  0.00  0.00    +0.120 A 
ATOM     31  C   UNL     1      -2.107   1.755   3.798  0.00  0.00    +0.047 A 
ATOM     32  C   UNL     1      -0.860   2.053   3.286  0.00  0.00    +0.028 A 
ATOM     33  C   UNL     1      -0.732   2.471   1.968  0.00  0.00    +0.048 A 
ATOM     34  C   UNL     1      -1.860   2.596   1.168  0.00  0.00    +0.028 A 
ATOM     35  C   UNL     1      -3.106   2.294   1.679  0.00  0.00    +0.047 A 
BRANCH  30  37
ATOM     36  C   UNL     1      -5.577   1.729   2.619  0.00  0.00    +0.277 C 
ATOM     37  O   UNL     1      -4.461   1.583   3.501  0.00  0.00    -0.495 OA
ENDBRANCH  30  37
ENDBRANCH  28  33
ENDBRANCH  25  28
ENDBRANCH   1  25
TORSDOF 6
