REMARK  Name = ZINC10266773
REMARK  11 active torsions:
REMARK  status: ('A' for Active; 'I' for Inactive)
REMARK    1  A    between atoms: C_1  and  C_2
REMARK    2  A    between atoms: C_2  and  C_3
REMARK    3  A    between atoms: C_3  and  C_4
REMARK    4  A    between atoms: C_4  and  C_5
REMARK    5  A    between atoms: C_5  and  N_6
REMARK    6  A    between atoms: C_19  and  S_20
REMARK    7  A    between atoms: S_20  and  C_21
REMARK    8  A    between atoms: C_21  and  C_22
REMARK    9  A    between atoms: N_27  and  C_28
REMARK   10  A    between atoms: C_33  and  C_38
REMARK   11  A    between atoms: C_35  and  C_37
REMARK                            x       y       z     vdW  Elec       q    Type
REMARK                         _______ _______ _______ _____ _____    ______ ____
ROOT
ATOM      1  N   UNL     1      -0.745   1.585  -3.677  0.00  0.00    -0.277 N 
ATOM      2  C   UNL     1      -1.727   0.834  -4.217  0.00  0.00    +0.263 A 
ATOM      3  O   UNL     1      -2.027  -0.238  -3.727  0.00  0.00    -0.267 OA
ATOM      4  C   UNL     1      -2.434   1.338  -5.409  0.00  0.00    +0.064 A 
ATOM      5  C   UNL     1      -3.460   0.607  -6.005  0.00  0.00    +0.015 A 
ATOM      6  C   UNL     1      -4.095   1.109  -7.121  0.00  0.00    +0.001 A 
ATOM      7  C   UNL     1      -3.717   2.333  -7.650  0.00  0.00    +0.002 A 
ATOM      8  C   UNL     1      -2.702   3.067  -7.069  0.00  0.00    +0.027 A 
ATOM      9  C   UNL     1      -2.053   2.578  -5.945  0.00  0.00    +0.064 A 
ATOM     10  N   UNL     1      -1.026   3.298  -5.339  0.00  0.00    -0.256 N 
ATOM     11  C   UNL     1      -0.392   2.805  -4.231  0.00  0.00    +0.240 A 
ATOM     12  N   UNL     1       0.524   3.678  -3.872  0.00  0.00    -0.109 NA
ATOM     13  N   UNL     1       0.476   4.753  -4.768  0.00  0.00    -0.120 NA
ATOM     14  C   UNL     1      -0.464   4.507  -5.647  0.00  0.00    +0.198 A 
ENDROOT
BRANCH   1  15
ATOM     15  C   UNL     1      -0.037   1.099  -2.490  0.00  0.00    +0.128 C 
BRANCH  15  16
ATOM     16  C   UNL     1      -0.753   1.593  -1.232  0.00  0.00    +0.022 C 
BRANCH  16  17
ATOM     17  C   UNL     1      -0.013   1.086   0.008  0.00  0.00    +0.001 C 
BRANCH  17  19
ATOM     18  C   UNL     1       0.011   1.072   2.506  0.00  0.00    +0.004 C 
ATOM     19  C   UNL     1      -0.729   1.579   1.267  0.00  0.00    -0.003 C 
ENDBRANCH  17  19
ENDBRANCH  16  17
ENDBRANCH  15  16
ENDBRANCH   1  15
BRANCH  14  20
ATOM     20  S   UNL     1      -0.925   5.551  -6.990  0.00  0.00    -0.076 S 
BRANCH  20  21
ATOM     21  C   UNL     1       0.188   6.976  -6.839  0.00  0.00    +0.173 C 
BRANCH  21  22
ATOM     22  C   UNL     1      -0.104   7.960  -7.942  0.00  0.00    +0.231 C 
ATOM     23  O   UNL     1      -0.976   7.724  -8.751  0.00  0.00    -0.274 OA
ATOM     24  N   UNL     1       0.604   9.103  -8.031  0.00  0.00    -0.239 N 
ATOM     25  C   UNL     1       0.344   9.983  -9.018  0.00  0.00    +0.306 C 
ATOM     26  O   UNL     1      -0.531   9.746  -9.828  0.00  0.00    -0.252 OA
ATOM     27  N   UNL     1       1.052  11.126  -9.106  0.00  0.00    -0.296 N 
ATOM     28  H   UNL     1       1.302   9.293  -7.384  0.00  0.00    +0.159 HD
ATOM     29  H   UNL     1       1.750  11.316  -8.460  0.00  0.00    +0.151 HD
BRANCH  27  30
ATOM     30  C   UNL     1       0.768  12.083 -10.179  0.00  0.00    +0.078 C 
ATOM     31  C   UNL     1       1.539  11.680 -11.438  0.00  0.00    +0.022 C 
ATOM     32  C   UNL     1       1.243  12.679 -12.559  0.00  0.00    +0.002 C 
ATOM     33  C   UNL     1       1.677  14.080 -12.121  0.00  0.00    +0.003 C 
ATOM     34  C   UNL     1       0.906  14.482 -10.862  0.00  0.00    -0.009 C 
ATOM     35  C   UNL     1       1.202  13.483  -9.742  0.00  0.00    +0.009 C 
ATOM     36  C   UNL     1       2.703  13.482  -9.443  0.00  0.00    +0.009 C 
ATOM     37  C   UNL     1       1.340  15.883 -10.425  0.00  0.00    +0.008 C 
ENDBRANCH  27  30
ENDBRANCH  21  22
ENDBRANCH  20  21
ENDBRANCH  14  20
TORSDOF 8
