REMARK  Name = ZINC01126975
REMARK  7 active torsions:
REMARK  status: ('A' for Active; 'I' for Inactive)
REMARK    1  A    between atoms: C_1  and  C_2
REMARK    2  A    between atoms: C_3  and  C_20
REMARK    3  A    between atoms: C_4  and  C_10
REMARK    4  A    between atoms: C_13  and  O_18
REMARK    5  A    between atoms: C_14  and  O_17
REMARK    6  A    between atoms: O_18  and  C_19
REMARK    7  A    between atoms: N_22  and  C_23
REMARK                            x       y       z     vdW  Elec       q    Type
REMARK                         _______ _______ _______ _____ _____    ______ ____
ROOT
ATOM      1  C   UNL     1      -2.133   3.053   3.030  0.00  0.00    +0.061 C 
ATOM      2  C   UNL     1      -1.952   3.011   1.534  0.00  0.00    +0.019 C 
ATOM      3  C   UNL     1      -1.761   1.824   0.922  0.00  0.00    +0.056 C 
ATOM      4  C   UNL     1      -1.584   1.826  -0.583  0.00  0.00    +0.143 C 
ATOM      5  N   UNL     1      -1.635   3.134  -1.258  0.00  0.00    -0.288 N 
ATOM      6  C   UNL     1      -1.835   4.236  -0.509  0.00  0.00    +0.304 C 
ATOM      7  O   UNL     1      -1.879   5.320  -1.057  0.00  0.00    -0.252 OA
ATOM      8  N   UNL     1      -1.985   4.176   0.820  0.00  0.00    -0.273 N 
ATOM      9  H   UNL     1      -1.528   3.201  -2.220  0.00  0.00    +0.151 HD
ATOM     10  H   UNL     1      -2.125   5.005   1.303  0.00  0.00    +0.156 HD
ENDROOT
BRANCH   4  11
ATOM     11  C   UNL     1      -0.252   1.194  -0.895  0.00  0.00    -0.006 A 
ATOM     12  C   UNL     1       0.886   1.977  -0.953  0.00  0.00    +0.010 A 
ATOM     13  C   UNL     1       2.110   1.404  -1.244  0.00  0.00    +0.050 A 
ATOM     14  C   UNL     1       2.198   0.041  -1.479  0.00  0.00    +0.162 A 
ATOM     15  C   UNL     1       1.053  -0.748  -1.421  0.00  0.00    +0.172 A 
ATOM     16  C   UNL     1      -0.171  -0.166  -1.129  0.00  0.00    +0.064 A 
ATOM     17  I   UNL     1      -1.898  -1.349  -1.039  0.00  0.00    -0.040 I 
BRANCH  15  18
ATOM     18  O   UNL     1       1.134  -2.086  -1.651  0.00  0.00    -0.503 OA
ATOM     19  H   UNL     1       1.018  -2.333  -2.579  0.00  0.00    +0.292 HD
ENDBRANCH  15  18
BRANCH  14  20
ATOM     20  O   UNL     1       3.401  -0.525  -1.766  0.00  0.00    -0.491 OA
ATOM     21  C   UNL     1       4.533   0.345  -1.808  0.00  0.00    +0.277 C 
ENDBRANCH  14  20
ENDBRANCH   4  11
BRANCH   3  22
ATOM     22  C   UNL     1      -1.727   0.616   1.661  0.00  0.00    +0.248 C 
ATOM     23  O   UNL     1      -0.668   0.045   1.847  0.00  0.00    -0.270 OA
ATOM     24  N   UNL     1      -2.868   0.098   2.159  0.00  0.00    -0.282 N 
ATOM     25  H   UNL     1      -3.693   0.604   2.106  0.00  0.00    +0.155 HD
BRANCH  24  26
ATOM     26  C   UNL     1      -2.860  -1.170   2.752  0.00  0.00    +0.034 A 
ATOM     27  C   UNL     1      -1.733  -1.613   3.432  0.00  0.00    +0.026 A 
ATOM     28  C   UNL     1      -1.730  -2.862   4.021  0.00  0.00    +0.040 A 
ATOM     29  C   UNL     1      -2.846  -3.677   3.925  0.00  0.00    +0.124 A 
ATOM     30  C   UNL     1      -3.969  -3.239   3.243  0.00  0.00    +0.040 A 
ATOM     31  C   UNL     1      -3.978  -1.988   2.657  0.00  0.00    +0.026 A 
ATOM     32  F   UNL     1      -2.839  -4.900   4.498  0.00  0.00    -0.205 F 
ENDBRANCH  24  26
ENDBRANCH   3  22
TORSDOF 5
