REMARK  Name = ZINC34756744
REMARK  6 active torsions:
REMARK  status: ('A' for Active; 'I' for Inactive)
REMARK    1  A    between atoms: C_4  and  N_7
REMARK    2  A    between atoms: C_8  and  C_10
REMARK    3  A    between atoms: C_10  and  S_11
REMARK    4  A    between atoms: S_11  and  C_12
REMARK    5  A    between atoms: N_28  and  C_31
REMARK    6  A    between atoms: C_31  and  C_32
REMARK                            x       y       z     vdW  Elec       q    Type
REMARK                         _______ _______ _______ _____ _____    ______ ____
ROOT
ATOM      1  C   UNL     1       6.300  -5.216   0.173  0.00  0.00    +0.191 A 
ATOM      2  N   UNL     1       6.434  -6.534   0.271  0.00  0.00    -0.206 NA
ATOM      3  C   UNL     1       7.596  -7.104   0.543  0.00  0.00    +0.134 A 
ATOM      4  C   UNL     1       8.743  -6.285   0.739  0.00  0.00    +0.051 A 
ATOM      5  C   UNL     1      10.116  -6.691   1.049  0.00  0.00    -0.025 A 
ATOM      6  C   UNL     1      11.028  -5.709   1.187  0.00  0.00    -0.004 A 
ATOM      7  S   UNL     1      10.132  -4.203   0.917  0.00  0.00    -0.073 S 
ATOM      8  C   UNL     1       8.527  -4.898   0.620  0.00  0.00    +0.115 A 
ATOM      9  N   UNL     1       7.335  -4.405   0.341  0.00  0.00    -0.214 NA
ATOM     10  C   UNL     1      12.485  -5.861   1.502  0.00  0.00    +0.043 C 
ATOM     11  C   UNL     1      12.724  -7.289   2.014  0.00  0.00    +0.005 C 
ATOM     12  C   UNL     1      12.033  -8.273   1.066  0.00  0.00    +0.005 C 
ATOM     13  C   UNL     1      10.515  -8.155   1.212  0.00  0.00    +0.037 C 
ATOM     14  N   UNL     1       7.695  -8.480   0.636  0.00  0.00    -0.318 N 
ATOM     15  C   UNL     1       7.587  -9.159   1.937  0.00  0.00    +0.088 C 
ATOM     16  C   UNL     1       6.561 -10.290   1.810  0.00  0.00    -0.059 C 
ATOM     17  N   UNL     1       6.938 -11.170   0.696  0.00  0.00    +0.387 N 
ATOM     18  C   UNL     1       6.869 -10.430  -0.570  0.00  0.00    -0.059 C 
ATOM     19  C   UNL     1       7.905  -9.306  -0.562  0.00  0.00    +0.088 C 
ATOM     20  H   UNL     1       7.880 -11.505   0.838  0.00  0.00    -0.081 HD
ENDROOT
BRANCH   1  21
ATOM     21  S   UNL     1       4.717  -4.533  -0.193  0.00  0.00    -0.077 S 
BRANCH  21  22
ATOM     22  C   UNL     1       5.010  -2.744  -0.234  0.00  0.00    +0.173 C 
BRANCH  22  24
ATOM     23  N   UNL     1       3.695  -0.685  -0.624  0.00  0.00    -0.285 N 
ATOM     24  C   UNL     1       3.719  -2.030  -0.542  0.00  0.00    +0.227 C 
ATOM     25  O   UNL     1       2.701  -2.666  -0.716  0.00  0.00    -0.275 OA
ATOM     26  H   UNL     1       4.520  -0.180  -0.550  0.00  0.00    +0.155 HD
BRANCH  23  30
ATOM     27  C   UNL     1       0.079   1.304  -1.192  0.00  0.00    +0.000 A 
ATOM     28  C   UNL     1       0.114   0.132  -0.460  0.00  0.00    +0.002 A 
ATOM     29  C   UNL     1       1.311  -0.530  -0.269  0.00  0.00    +0.023 A 
ATOM     30  C   UNL     1       2.481  -0.017  -0.815  0.00  0.00    +0.033 A 
ATOM     31  C   UNL     1       2.442   1.160  -1.551  0.00  0.00    +0.023 A 
ATOM     32  C   UNL     1       1.242   1.817  -1.737  0.00  0.00    +0.002 A 
ENDBRANCH  23  30
ENDBRANCH  22  24
ENDBRANCH  21  22
ENDBRANCH   1  21
BRANCH  17  33
ATOM     33  C   UNL     1       6.018 -12.313   0.644  0.00  0.00    +0.019 C 
BRANCH  33  34
ATOM     34  C   UNL     1       6.476 -13.279  -0.419  0.00  0.00    +0.199 C 
ATOM     35  O   UNL     1       7.471 -13.037  -1.069  0.00  0.00    -0.278 OA
ATOM     36  N   UNL     1       5.780 -14.410  -0.647  0.00  0.00    -0.300 N 
ATOM     37  C   UNL     1       4.634 -15.260  -0.314  0.00  0.00    +0.126 C 
ATOM     38  C   UNL     1       5.631 -15.653  -1.407  0.00  0.00    +0.126 C 
ENDBRANCH  33  34
ENDBRANCH  17  33
TORSDOF 6
