REMARK  Name = ZINC41584760
REMARK  8 active torsions:
REMARK  status: ('A' for Active; 'I' for Inactive)
REMARK    1  A    between atoms: C_1  and  O_2
REMARK    2  A    between atoms: O_2  and  C_3
REMARK    3  A    between atoms: C_6  and  O_38
REMARK    4  A    between atoms: C_7  and  C_9
REMARK    5  A    between atoms: C_16  and  O_37
REMARK    6  A    between atoms: C_17  and  C_20
REMARK    7  A    between atoms: C_20  and  N_21
REMARK    8  A    between atoms: O_38  and  C_39
REMARK                            x       y       z     vdW  Elec       q    Type
REMARK                         _______ _______ _______ _____ _____    ______ ____
ROOT
ATOM      1  C   UNL     1       1.331  -4.070  -2.303  0.00  0.00    +0.062 C 
ATOM      2  C   UNL     1       0.870  -4.827  -1.274  0.00  0.00    +0.176 C 
ATOM      3  C   UNL     1       0.192  -4.332  -0.067  0.00  0.00    +0.231 C 
ATOM      4  O   UNL     1      -0.071  -3.177   0.220  0.00  0.00    -0.283 OA
ATOM      5  C   UNL     1      -0.098  -5.546   0.718  0.00  0.00    +0.068 A 
ATOM      6  C   UNL     1      -0.718  -5.760   1.949  0.00  0.00    +0.019 A 
ATOM      7  C   UNL     1      -0.846  -7.031   2.435  0.00  0.00    +0.046 A 
ATOM      8  C   UNL     1      -0.359  -8.111   1.704  0.00  0.00    +0.122 A 
ATOM      9  C   UNL     1       0.259  -7.913   0.481  0.00  0.00    +0.020 A 
ATOM     10  C   UNL     1       0.397  -6.628  -0.028  0.00  0.00    +0.144 A 
ATOM     11  O   UNL     1       0.944  -6.176  -1.177  0.00  0.00    -0.451 OA
ENDROOT
BRANCH   1  16
ATOM     12  C   UNL     1      -0.530  -0.821  -2.079  0.00  0.00    +0.121 A 
ATOM     13  C   UNL     1       0.462   0.083  -2.443  0.00  0.00    +0.049 A 
ATOM     14  C   UNL     1       1.730  -0.362  -2.760  0.00  0.00    +0.050 A 
ATOM     15  C   UNL     1       2.025  -1.715  -2.718  0.00  0.00    +0.128 A 
ATOM     16  C   UNL     1       1.029  -2.635  -2.350  0.00  0.00    +0.024 A 
ATOM     17  C   UNL     1      -0.252  -2.174  -2.025  0.00  0.00    +0.057 A 
BRANCH  12  19
ATOM     18  C   UNL     1      -1.994   1.038  -1.845  0.00  0.00    +0.277 C 
ATOM     19  O   UNL     1      -1.775  -0.372  -1.768  0.00  0.00    -0.495 OA
ENDBRANCH  12  19
BRANCH  15  20
ATOM     20  O   UNL     1       3.272  -2.151  -3.030  0.00  0.00    -0.495 OA
ATOM     21  C   UNL     1       4.234  -1.158  -3.395  0.00  0.00    +0.277 C 
ENDBRANCH  15  20
ENDBRANCH   1  16
BRANCH   8  22
ATOM     22  O   UNL     1      -0.491  -9.370   2.196  0.00  0.00    -0.506 OA
ATOM     23  H   UNL     1      -1.310  -9.812   1.931  0.00  0.00    +0.292 HD
ENDBRANCH   8  22
BRANCH   9  24
ATOM     24  C   UNL     1       0.782  -9.092  -0.299  0.00  0.00    -0.036 C 
BRANCH  24  25
ATOM     25  N   UNL     1      -0.272  -9.596  -1.190  0.00  0.00    +0.383 N 
ATOM     26  C   UNL     1       0.194 -10.818  -1.853  0.00  0.00    -0.073 C 
ATOM     27  C   UNL     1      -0.868 -11.374  -2.789  0.00  0.00    -0.007 C 
ATOM     28  C   UNL     1      -1.288 -10.321  -3.819  0.00  0.00    +0.011 C 
ATOM     29  C   UNL     1      -1.766  -9.087  -3.044  0.00  0.00    +0.020 C 
ATOM     30  C   UNL     1      -0.590  -8.573  -2.197  0.00  0.00    -0.069 C 
ATOM     31  C   UNL     1      -2.876  -9.496  -2.102  0.00  0.00    +0.023 A 
ATOM     32  C   UNL     1      -3.809  -8.559  -1.786  0.00  0.00    +0.022 A 
ATOM     33  C   UNL     1      -4.827  -8.850  -0.870  0.00  0.00    +0.007 A 
ATOM     34  C   UNL     1      -4.851 -10.080  -0.281  0.00  0.00    +0.070 A 
ATOM     35  C   UNL     1      -3.872 -11.022  -0.627  0.00  0.00    +0.251 A 
ATOM     36  O   UNL     1      -3.848 -12.103  -0.061  0.00  0.00    -0.268 OA
ATOM     37  N   UNL     1      -2.952 -10.744  -1.583  0.00  0.00    -0.312 N 
ATOM     38  C   UNL     1      -2.100 -11.841  -2.032  0.00  0.00    +0.126 C 
ATOM     39  H   UNL     1      -1.098  -9.803  -0.649  0.00  0.00    -0.081 HD
ENDBRANCH  24  25
ENDBRANCH   9  24
TORSDOF 6
