REMARK  Name = ZINC63686713
REMARK  7 active torsions:
REMARK  status: ('A' for Active; 'I' for Inactive)
REMARK    1  A    between atoms: C_7  and  C_10
REMARK    2  A    between atoms: C_10  and  C_11
REMARK    3  A    between atoms: C_11  and  N_12
REMARK    4  A    between atoms: C_13  and  C_15
REMARK    5  A    between atoms: C_15  and  C_16
REMARK    6  A    between atoms: C_20  and  N_23
REMARK    7  A    between atoms: N_26  and  C_27
REMARK                            x       y       z     vdW  Elec       q    Type
REMARK                         _______ _______ _______ _____ _____    ______ ____
ROOT
ATOM      1  C   UNL     1      -1.998  -7.029  -4.066  0.00  0.00    +0.075 C 
ATOM      2  C   UNL     1      -3.111  -8.106  -4.053  0.00  0.00    +0.091 C 
ATOM      3  S   UNL     1      -2.460  -9.258  -5.343  0.00  0.00    -0.121 S 
ATOM      4  C   UNL     1      -0.670  -8.897  -5.061  0.00  0.00    +0.203 C 
ATOM      5  N   UNL     1      -0.729  -7.488  -4.615  0.00  0.00    -0.286 NA
ATOM      6  H   UNL     1      -0.404  -6.868  -5.342  0.00  0.00    +0.125 HD
ENDROOT
BRANCH   4   7
ATOM      7  N   UNL     1       0.096  -9.029  -6.303  0.00  0.00    -0.275 N 
ATOM      8  C   UNL     1       0.404 -10.252  -6.778  0.00  0.00    +0.306 C 
ATOM      9  O   UNL     1       0.046 -11.246  -6.176  0.00  0.00    -0.252 OA
ATOM     10  N   UNL     1       1.108 -10.374  -7.920  0.00  0.00    -0.269 N 
ATOM     11  H   UNL     1       0.381  -8.236  -6.783  0.00  0.00    +0.153 HD
ATOM     12  H   UNL     1       1.336  -9.585  -8.435  0.00  0.00    +0.156 HD
BRANCH  10  13
ATOM     13  C   UNL     1       1.511 -11.639  -8.362  0.00  0.00    +0.036 A 
ATOM     14  C   UNL     1       2.733 -11.795  -9.004  0.00  0.00    +0.023 A 
ATOM     15  C   UNL     1       3.129 -13.044  -9.439  0.00  0.00    +0.003 A 
ATOM     16  C   UNL     1       2.310 -14.140  -9.237  0.00  0.00    +0.020 A 
ATOM     17  C   UNL     1       1.092 -13.989  -8.599  0.00  0.00    +0.043 A 
ATOM     18  C   UNL     1       0.693 -12.741  -8.156  0.00  0.00    +0.043 A 
ATOM     19 CL   UNL     1       0.066 -15.367  -8.348  0.00  0.00    -0.083 Cl
ENDBRANCH  10  13
ENDBRANCH   4   7
BRANCH   1  20
ATOM     20  C   UNL     1      -1.764  -6.554  -2.631  0.00  0.00    +0.115 C 
BRANCH  20  22
ATOM     21  N   UNL     1      -0.479  -4.782  -1.479  0.00  0.00    -0.315 N 
ATOM     22  C   UNL     1      -0.831  -5.371  -2.639  0.00  0.00    +0.215 C 
ATOM     23  O   UNL     1      -0.395  -4.950  -3.689  0.00  0.00    -0.276 OA
ATOM     24  H   UNL     1      -0.828  -5.119  -0.639  0.00  0.00    +0.149 HD
BRANCH  21  25
ATOM     25  C   UNL     1       0.428  -3.632  -1.487  0.00  0.00    +0.108 C 
BRANCH  25  26
ATOM     26  C   UNL     1       0.662  -3.157  -0.051  0.00  0.00    +0.052 C 
BRANCH  26  33
ATOM     27  C   UNL     1      -0.072   1.372  -0.034  0.00  0.00    +0.001 A 
ATOM     28  C   UNL     1       1.105   2.133  -0.047  0.00  0.00    +0.002 A 
ATOM     29  C   UNL     1       2.334   1.574  -0.062  0.00  0.00    +0.026 A 
ATOM     30  C   UNL     1       2.481   0.159  -0.066  0.00  0.00    +0.043 A 
ATOM     31  N   UNL     1       3.543  -0.608  -0.080  0.00  0.00    -0.380 N 
ATOM     32  C   UNL     1       3.108  -2.010  -0.078  0.00  0.00    +0.144 C 
ATOM     33  C   UNL     1       1.596  -1.974  -0.059  0.00  0.00    -0.040 C 
ATOM     34  C   UNL     1       1.252  -0.666  -0.053  0.00  0.00    -0.001 A 
ATOM     35  C   UNL     1      -0.045   0.020  -0.036  0.00  0.00    +0.010 A 
ATOM     36  H   UNL     1       4.463  -0.301  -0.091  0.00  0.00    +0.160 HD
ENDBRANCH  26  33
ENDBRANCH  25  26
ENDBRANCH  21  25
ENDBRANCH  20  22
ENDBRANCH   1  20
TORSDOF 7
