REMARK  Name = ZINC44672334
REMARK  12 active torsions:
REMARK  status: ('A' for Active; 'I' for Inactive)
REMARK    1  A    between atoms: C_1  and  C_2
REMARK    2  A    between atoms: C_4  and  O_43
REMARK    3  A    between atoms: C_6  and  N_42
REMARK    4  A    between atoms: C_9  and  O_12
REMARK    5  A    between atoms: O_12  and  C_13
REMARK    6  A    between atoms: C_16  and  C_38
REMARK    7  A    between atoms: C_16  and  O_41
REMARK    8  A    between atoms: C_20  and  O_37
REMARK    9  A    between atoms: C_23  and  O_24
REMARK   10  A    between atoms: C_31  and  O_35
REMARK   11  A    between atoms: O_35  and  C_36
REMARK   12  A    between atoms: C_38  and  C_40
REMARK                            x       y       z     vdW  Elec       q    Type
REMARK                         _______ _______ _______ _____ _____    ______ ____
ROOT
ATOM      1  C   UNL     1       1.985   0.074   3.603  0.00  0.00    +0.158 C 
ATOM      2  C   UNL     1       2.090  -0.878   4.792  0.00  0.00    +0.079 C 
ATOM      3  C   UNL     1       1.611  -0.137   6.046  0.00  0.00    +0.130 C 
ATOM      4  C   UNL     1       2.645   0.931   6.395  0.00  0.00    +0.082 C 
ATOM      5  C   UNL     1       2.961   1.780   5.190  0.00  0.00    +0.007 A 
ATOM      6  C   UNL     1       2.662   1.384   3.911  0.00  0.00    +0.030 A 
ATOM      7  C   UNL     1       2.986   2.212   2.828  0.00  0.00    +0.134 A 
ATOM      8  C   UNL     1       3.609   3.440   3.036  0.00  0.00    +0.078 A 
ATOM      9  C   UNL     1       3.913   3.847   4.351  0.00  0.00    +0.078 A 
ATOM     10  C   UNL     1       3.585   3.014   5.416  0.00  0.00    +0.132 A 
ATOM     11  C   UNL     1       4.570   5.144   4.588  0.00  0.00    +0.198 C 
ATOM     12  O   UNL     1       4.833   5.496   5.722  0.00  0.00    -0.286 OA
ATOM     13  C   UNL     1       4.910   6.017   3.445  0.00  0.00    +0.037 A 
ATOM     14  C   UNL     1       5.529   7.244   3.658  0.00  0.00    +0.012 A 
ATOM     15  C   UNL     1       5.845   8.058   2.583  0.00  0.00    +0.004 A 
ATOM     16  C   UNL     1       5.550   7.664   1.294  0.00  0.00    +0.046 A 
ATOM     17  C   UNL     1       4.930   6.441   1.057  0.00  0.00    +0.132 A 
ATOM     18  C   UNL     1       4.606   5.609   2.133  0.00  0.00    +0.075 A 
ATOM     19  C   UNL     1       3.950   4.310   1.896  0.00  0.00    +0.202 C 
ATOM     20  O   UNL     1       3.688   3.957   0.762  0.00  0.00    -0.286 OA
ENDROOT
BRANCH   3  21
ATOM     21  C   UNL     1       1.478  -1.108   7.191  0.00  0.00    +0.162 C 
ATOM     22  O   UNL     1       2.193  -2.080   7.244  0.00  0.00    -0.295 OA
ATOM     23  C   UNL     1       0.454  -0.867   8.269  0.00  0.00    +0.089 C 
ENDBRANCH   3  21
BRANCH  10  24
ATOM     24  O   UNL     1       3.874   3.398   6.684  0.00  0.00    -0.506 OA
ATOM     25  H   UNL     1       4.749   3.121   6.989  0.00  0.00    +0.292 HD
ENDBRANCH  10  24
BRANCH  17  26
ATOM     26  O   UNL     1       4.641   6.058  -0.211  0.00  0.00    -0.494 OA
ATOM     27  C   UNL     1       5.002   6.961  -1.259  0.00  0.00    +0.277 C 
ENDBRANCH  17  26
BRANCH   7  28
ATOM     28  O   UNL     1       2.690   1.813   1.565  0.00  0.00    -0.506 OA
ATOM     29  H   UNL     1       1.844   2.146   1.236  0.00  0.00    +0.292 HD
ENDBRANCH   7  28
BRANCH   3  30
ATOM     30  O   UNL     1       0.349   0.480   5.788  0.00  0.00    -0.381 OA
ATOM     31  H   UNL     1      -0.012   0.967   6.542  0.00  0.00    +0.211 HD
ENDBRANCH   3  30
BRANCH   1  32
ATOM     32  O   UNL     1       2.610  -0.523   2.465  0.00  0.00    -0.343 OA
BRANCH  32  38
ATOM     33  C   UNL     1      -0.847  -2.497   1.288  0.00  0.00    +0.040 C 
ATOM     34  C   UNL     1       0.428  -3.293   1.575  0.00  0.00    +0.145 C 
ATOM     35  C   UNL     1       1.072  -3.721   0.254  0.00  0.00    +0.129 C 
ATOM     36  C   UNL     1       1.473  -2.473  -0.537  0.00  0.00    -0.039 C 
ATOM     37  C   UNL     1       2.414  -1.619   0.319  0.00  0.00    +0.048 C 
ATOM     38  C   UNL     1       1.718  -1.273   1.638  0.00  0.00    +0.250 C 
ATOM     39  O   UNL     1       1.344  -2.478   2.309  0.00  0.00    -0.346 OA
BRANCH  36  40
ATOM     40  N   UNL     1       2.158  -2.873  -1.773  0.00  0.00    +0.382 N 
ATOM     41  H   UNL     1       1.539  -3.441  -2.332  0.00  0.00    -0.090 HD
ATOM     42  H   UNL     1       2.422  -2.050  -2.294  0.00  0.00    -0.090 HD
ATOM     43  H   UNL     1       2.985  -3.405  -1.543  0.00  0.00    -0.090 HD
ENDBRANCH  36  40
BRANCH  35  44
ATOM     44  O   UNL     1       0.138  -4.490  -0.506  0.00  0.00    -0.391 OA
ATOM     45  H   UNL     1      -0.163  -5.295  -0.062  0.00  0.00    +0.210 HD
ENDBRANCH  35  44
ENDBRANCH  32  38
ENDBRANCH   1  32
TORSDOF 9
