REMARK  Name = ZINC26422272
REMARK  6 active torsions:
REMARK  status: ('A' for Active; 'I' for Inactive)
REMARK    1  A    between atoms: C_1  and  C_2
REMARK    2  A    between atoms: C_7  and  C_10
REMARK    3  A    between atoms: C_11  and  C_13
REMARK    4  A    between atoms: C_13  and  N_14
REMARK    5  A    between atoms: C_16  and  S_23
REMARK    6  A    between atoms: S_23  and  C_24
REMARK                            x       y       z     vdW  Elec       q    Type
REMARK                         _______ _______ _______ _____ _____    ______ ____
ROOT
ATOM      1  N   UNL     1       2.963  -0.405  -0.188  0.00  0.00    -0.337 N 
ATOM      2  C   UNL     1       2.679  -1.750  -0.167  0.00  0.00    +0.102 A 
ATOM      3  C   UNL     1       1.348  -1.932  -0.079  0.00  0.00    +0.040 A 
ATOM      4  C   UNL     1       0.735  -0.599  -0.040  0.00  0.00    +0.014 A 
ATOM      5  C   UNL     1       1.796   0.322  -0.112  0.00  0.00    +0.051 A 
ATOM      6  C   UNL     1       1.519   1.685  -0.095  0.00  0.00    +0.026 A 
ATOM      7  C   UNL     1       0.213   2.116  -0.008  0.00  0.00    +0.002 A 
ATOM      8  C   UNL     1      -0.831   1.203   0.062  0.00  0.00    +0.001 A 
ATOM      9  C   UNL     1      -0.580  -0.140   0.047  0.00  0.00    +0.011 A 
ENDROOT
BRANCH   1  10
ATOM     10  C   UNL     1       4.308   0.170  -0.278  0.00  0.00    +0.217 C 
BRANCH  10  19
ATOM     11  C   UNL     1       7.780   3.077   3.926  0.00  0.00    +0.039 C 
ATOM     12  C   UNL     1       7.065   2.783   2.607  0.00  0.00    +0.133 C 
ATOM     13  C   UNL     1       6.554   1.338   2.612  0.00  0.00    +0.139 C 
ATOM     14  N   UNL     1       6.038   1.023   1.270  0.00  0.00    -0.295 N 
ATOM     15  C   UNL     1       6.901   1.310   0.113  0.00  0.00    +0.139 C 
ATOM     16  C   UNL     1       7.392   2.761   0.229  0.00  0.00    +0.133 C 
ATOM     17  O   UNL     1       7.976   2.957   1.519  0.00  0.00    -0.371 OA
ATOM     18  C   UNL     1       6.214   3.720   0.051  0.00  0.00    +0.039 C 
ATOM     19  C   UNL     1       4.814   0.483   1.106  0.00  0.00    +0.235 C 
ATOM     20  O   UNL     1       4.120   0.250   2.073  0.00  0.00    -0.274 OA
ENDBRANCH  10  19
ENDBRANCH   1  10
BRANCH   3  21
ATOM     21  S   UNL     1       0.503  -3.477  -0.019  0.00  0.00    -0.055 S 
BRANCH  21  22
ATOM     22  C   UNL     1       0.092  -3.536   1.693  0.00  0.00    +0.127 C 
ATOM     23  N   UNL     1       0.530  -2.610   2.501  0.00  0.00    -0.382 N 
ATOM     24  N   UNL     1      -0.690  -4.559   2.178  0.00  0.00    -0.339 N 
ATOM     25  H   UNL     1       0.274  -2.647   3.570  0.00  0.00    +0.158 HD
ATOM     26  H   UNL     1      -0.946  -4.595   3.248  0.00  0.00    +0.144 HD
ATOM     27  H   UNL     1      -1.060  -5.339   1.497  0.00  0.00    +0.144 HD
ATOM     28  H   UNL     1       1.156  -1.792   2.113  0.00  0.00    +0.158 HD
ENDBRANCH  21  22
ENDBRANCH   3  21
TORSDOF 4
