REMARK  Name = ZINC36384899
REMARK  16 active torsions:
REMARK  status: ('A' for Active; 'I' for Inactive)
REMARK    1  A    between atoms: C_1  and  C_2
REMARK    2  A    between atoms: C_13  and  C_22
REMARK    3  A    between atoms: C_15  and  O_21
REMARK    4  A    between atoms: C_17  and  O_20
REMARK    5  A    between atoms: C_23  and  O_40
REMARK    6  A    between atoms: C_26  and  C_28
REMARK    7  A    between atoms: C_28  and  C_29
REMARK    8  A    between atoms: C_28  and  C_30
REMARK    9  A    between atoms: C_28  and  O_39
REMARK   10  A    between atoms: C_30  and  C_32
REMARK   11  A    between atoms: C_30  and  O_38
REMARK   12  A    between atoms: C_32  and  C_33
REMARK   13  A    between atoms: C_33  and  C_34
REMARK   14  A    between atoms: C_34  and  C_35
REMARK   15  A    between atoms: C_34  and  C_36
REMARK   16  A    between atoms: C_34  and  O_37
REMARK                            x       y       z     vdW  Elec       q    Type
REMARK                         _______ _______ _______ _____ _____    ______ ____
ROOT
ATOM      1  C   UNL     1      -1.879   3.488  -1.138  0.00  0.00    +0.015 C 
ATOM      2  C   UNL     1      -1.493   2.038  -0.839  0.00  0.00    +0.006 C 
ATOM      3  C   UNL     1      -2.732   1.144  -0.774  0.00  0.00    +0.011 C 
ATOM      4  C   UNL     1      -3.758   1.645   0.237  0.00  0.00    +0.009 C 
ATOM      5  C   UNL     1      -3.053   2.196   1.473  0.00  0.00    +0.025 C 
ATOM      6  C   UNL     1      -1.691   1.563   1.574  0.00  0.00    -0.031 C 
ATOM      7  C   UNL     1      -1.355   0.699   2.522  0.00  0.00    +0.049 C 
ATOM      8  C   UNL     1      -2.342   0.276   3.522  0.00  0.00    +0.160 C 
ATOM      9  O   UNL     1      -2.007  -0.274   4.550  0.00  0.00    -0.292 OA
ATOM     10  C   UNL     1      -3.800   0.557   3.212  0.00  0.00    +0.069 C 
ATOM     11  C   UNL     1      -3.877   1.993   2.731  0.00  0.00    -0.013 C 
ATOM     12  C   UNL     1      -5.343   2.334   2.460  0.00  0.00    +0.041 C 
ATOM     13  C   UNL     1      -6.155   2.159   3.745  0.00  0.00    +0.144 C 
ATOM     14  C   UNL     1      -6.050   0.709   4.221  0.00  0.00    +0.144 C 
ATOM     15  C   UNL     1      -4.622   0.379   4.490  0.00  0.00    +0.046 C 
ATOM     16  C   UNL     1      -3.355   2.921   3.830  0.00  0.00    +0.012 C 
ATOM     17  C   UNL     1      -0.713   1.934   0.492  0.00  0.00    +0.093 C 
ATOM     18  C   UNL     1       0.268   0.763   0.264  0.00  0.00    +0.040 C 
ATOM     19  C   UNL     1       0.727   0.999  -1.198  0.00  0.00    +0.010 C 
ATOM     20  C   UNL     1      -0.545   1.481  -1.924  0.00  0.00    +0.032 C 
ENDROOT
BRANCH  14  21
ATOM     21  O   UNL     1      -6.807   0.546   5.422  0.00  0.00    -0.389 OA
ATOM     22  H   UNL     1      -7.748   0.747   5.324  0.00  0.00    +0.210 HD
ENDBRANCH  14  21
BRANCH  13  23
ATOM     23  O   UNL     1      -5.641   3.030   4.755  0.00  0.00    -0.389 OA
ATOM     24  H   UNL     1      -6.109   2.973   5.599  0.00  0.00    +0.210 HD
ENDBRANCH  13  23
BRANCH  20  25
ATOM     25  C   UNL     1      -0.191   2.583  -2.925  0.00  0.00    +0.092 C 
ATOM     26  C   UNL     1       0.855   3.514  -2.309  0.00  0.00    +0.044 C 
BRANCH  25  27
ATOM     27  O   UNL     1      -1.366   3.331  -3.245  0.00  0.00    -0.386 OA
ATOM     28  H   UNL     1      -2.073   2.803  -3.640  0.00  0.00    +0.210 HD
ENDBRANCH  25  27
BRANCH  25  29
ATOM     29  C   UNL     1       0.374   1.952  -4.199  0.00  0.00    +0.146 C 
BRANCH  29  30
ATOM     30  O   UNL     1       1.479   1.110  -3.863  0.00  0.00    -0.389 OA
ATOM     31  H   UNL     1       2.208   1.572  -3.426  0.00  0.00    +0.210 HD
ENDBRANCH  29  30
BRANCH  29  32
ATOM     32  C   UNL     1       0.844   3.055  -5.149  0.00  0.00    +0.037 C 
BRANCH  32  33
ATOM     33  C   UNL     1       1.294   2.431  -6.472  0.00  0.00    +0.037 C 
BRANCH  33  34
ATOM     34  C   UNL     1       1.763   3.534  -7.422  0.00  0.00    +0.061 C 
ATOM     35  C   UNL     1       2.095   2.925  -8.786  0.00  0.00    +0.041 C 
ATOM     36  C   UNL     1       0.653   4.574  -7.585  0.00  0.00    +0.041 C 
BRANCH  34  37
ATOM     37  O   UNL     1       2.929   4.162  -6.885  0.00  0.00    -0.389 OA
ATOM     38  H   UNL     1       3.675   3.561  -6.755  0.00  0.00    +0.210 HD
ENDBRANCH  34  37
ENDBRANCH  33  34
ENDBRANCH  32  33
ENDBRANCH  29  32
ENDBRANCH  25  29
ENDBRANCH  20  25
BRANCH  17  39
ATOM     39  O   UNL     1      -0.035   3.154   0.797  0.00  0.00    -0.384 OA
ATOM     40  H   UNL     1       0.466   3.129   1.624  0.00  0.00    +0.211 HD
ENDBRANCH  17  39
TORSDOF 11
