REMARK  Name = ZINC41026312
REMARK  10 active torsions:
REMARK  status: ('A' for Active; 'I' for Inactive)
REMARK    1  A    between atoms: C_1  and  C_2
REMARK    2  A    between atoms: C_2  and  N_3
REMARK    3  A    between atoms: N_3  and  C_4
REMARK    4  A    between atoms: N_3  and  C_6
REMARK    5  A    between atoms: C_4  and  C_5
REMARK    6  A    between atoms: C_6  and  C_7
REMARK    7  A    between atoms: C_7  and  N_8
REMARK    8  A    between atoms: N_15  and  C_18
REMARK    9  A    between atoms: N_24  and  C_25
REMARK   10  A    between atoms: C_26  and  C_33
REMARK                            x       y       z     vdW  Elec       q    Type
REMARK                         _______ _______ _______ _____ _____    ______ ____
ROOT
ATOM      1  N   UNL     1      -0.804  -3.594   2.130  0.00  0.00    -0.315 N 
ATOM      2  C   UNL     1      -0.260  -4.059   3.314  0.00  0.00    +0.219 A 
ATOM      3  N   UNL     1       0.293  -3.188   4.150  0.00  0.00    -0.199 NA
ATOM      4  C   UNL     1       0.828  -3.583   5.299  0.00  0.00    +0.139 A 
ATOM      5  C   UNL     1       0.797  -4.955   5.617  0.00  0.00    +0.079 A 
ATOM      6  C   UNL     1       1.248  -5.730   6.709  0.00  0.00    +0.148 A 
ATOM      7  N   UNL     1       0.953  -6.978   6.480  0.00  0.00    -0.172 NA
ATOM      8  N   UNL     1       0.302  -7.091   5.245  0.00  0.00    -0.214 N 
ATOM      9  C   UNL     1       0.199  -5.843   4.701  0.00  0.00    +0.170 A 
ATOM     10  N   UNL     1      -0.316  -5.355   3.575  0.00  0.00    -0.195 NA
ATOM     11  N   UNL     1       1.402  -2.670   6.163  0.00  0.00    -0.293 N 
ATOM     12  H   UNL     1      -1.216  -4.214   1.508  0.00  0.00    +0.149 HD
ATOM     13  H   UNL     1       1.790  -2.970   6.999  0.00  0.00    +0.154 HD
ENDROOT
BRANCH  11  14
ATOM     14  C   UNL     1       1.424  -1.325   5.834  0.00  0.00    +0.083 A 
ATOM     15  C   UNL     1       1.956  -0.279   6.566  0.00  0.00    +0.068 A 
ATOM     16  C   UNL     1       1.851   1.062   5.991  0.00  0.00    -0.023 A 
ATOM     17  C   UNL     1       1.233   1.100   4.797  0.00  0.00    -0.004 A 
ATOM     18  S   UNL     1       0.819  -0.591   4.452  0.00  0.00    -0.077 S 
ATOM     19  C   UNL     1       1.147   2.501   4.254  0.00  0.00    +0.043 C 
ATOM     20  C   UNL     1       1.420   3.409   5.473  0.00  0.00    +0.010 C 
ATOM     21  C   UNL     1       2.260   2.482   6.375  0.00  0.00    +0.037 C 
BRANCH  15  22
ATOM     22  C   UNL     1       2.598  -0.504   7.863  0.00  0.00    +0.244 C 
ATOM     23  O   UNL     1       3.793  -0.732   7.920  0.00  0.00    -0.270 OA
ATOM     24  N   UNL     1       1.867  -0.460   8.994  0.00  0.00    -0.325 N 
ATOM     25  H   UNL     1       0.915  -0.279   8.949  0.00  0.00    +0.145 HD
ATOM     26  H   UNL     1       2.292  -0.609   9.853  0.00  0.00    +0.145 HD
ENDBRANCH  15  22
ENDBRANCH  11  14
BRANCH   8  27
ATOM     27  C   UNL     1      -0.163  -8.280   4.668  0.00  0.00    +0.068 A 
ATOM     28  C   UNL     1      -1.327  -8.277   3.911  0.00  0.00    +0.028 A 
ATOM     29  C   UNL     1      -1.783  -9.450   3.343  0.00  0.00    +0.002 A 
ATOM     30  C   UNL     1      -1.081 -10.627   3.527  0.00  0.00    +0.000 A 
ATOM     31  C   UNL     1       0.078 -10.634   4.281  0.00  0.00    +0.002 A 
ATOM     32  C   UNL     1       0.542  -9.463   4.847  0.00  0.00    +0.028 A 
ENDBRANCH   8  27
BRANCH   1  33
ATOM     33  C   UNL     1      -0.757  -2.164   1.814  0.00  0.00    +0.086 C 
BRANCH  33  34
ATOM     34  C   UNL     1      -1.421  -1.919   0.458  0.00  0.00    -0.060 C 
BRANCH  34  35
ATOM     35  N   UNL     1      -1.374  -0.485   0.142  0.00  0.00    +0.380 N 
ATOM     36  H   UNL     1      -1.792   0.040   0.895  0.00  0.00    -0.082 HD
BRANCH  35  38
ATOM     37  C   UNL     1       0.083   1.450  -0.218  0.00  0.00    -0.017 C 
ATOM     38  C   UNL     1       0.024  -0.067  -0.029  0.00  0.00    -0.082 C 
ENDBRANCH  35  38
BRANCH  35  39
ATOM     39  C   UNL     1      -2.116  -0.233  -1.101  0.00  0.00    -0.082 C 
ATOM     40  C   UNL     1      -3.600  -0.533  -0.879  0.00  0.00    -0.017 C 
ENDBRANCH  35  39
ENDBRANCH  34  35
ENDBRANCH  33  34
ENDBRANCH   1  33
TORSDOF 8
