REMARK  Name = ZINC02316099
REMARK  5 active torsions:
REMARK  status: ('A' for Active; 'I' for Inactive)
REMARK    1  A    between atoms: C_3  and  C_6
REMARK    2  A    between atoms: N_8  and  C_9
REMARK    3  A    between atoms: C_9  and  N_11
REMARK    4  A    between atoms: N_11  and  C_12
REMARK    5  A    between atoms: C_13  and  C_21
REMARK                            x       y       z     vdW  Elec       q    Type
REMARK                         _______ _______ _______ _____ _____    ______ ____
ROOT
ATOM      1  C   UNL     1       7.162   2.250  -0.052  0.00  0.00    +0.084 A 
ATOM      2  C   UNL     1       8.327   3.004  -0.065  0.00  0.00    +0.068 A 
ATOM      3  C   UNL     1       9.591   2.287  -0.074  0.00  0.00    -0.023 A 
ATOM      4  C   UNL     1       9.488   0.940  -0.081  0.00  0.00    -0.004 A 
ATOM      5  S   UNL     1       7.747   0.619  -0.066  0.00  0.00    -0.077 S 
ATOM      6  C   UNL     1      10.610  -0.052  -0.097  0.00  0.00    +0.043 C 
ATOM      7  C   UNL     1      11.900   0.684  -0.484  0.00  0.00    +0.005 C 
ATOM      8  C   UNL     1      12.013   1.959   0.358  0.00  0.00    +0.005 C 
ATOM      9  C   UNL     1      10.953   2.969  -0.083  0.00  0.00    +0.037 C 
ENDROOT
BRANCH   2  10
ATOM     10  C   UNL     1       8.285   4.469  -0.064  0.00  0.00    +0.244 C 
ATOM     11  O   UNL     1       8.279   5.078   0.990  0.00  0.00    -0.270 OA
ATOM     12  N   UNL     1       8.252   5.143  -1.231  0.00  0.00    -0.325 N 
ATOM     13  H   UNL     1       8.256   4.658  -2.071  0.00  0.00    +0.145 HD
ATOM     14  H   UNL     1       8.224   6.112  -1.231  0.00  0.00    +0.145 HD
ENDBRANCH   2  10
BRANCH   1  15
ATOM     15  N   UNL     1       5.849   2.694  -0.038  0.00  0.00    -0.291 N 
ATOM     16  H   UNL     1       5.659   3.645  -0.032  0.00  0.00    +0.154 HD
BRANCH  15  17
ATOM     17  C   UNL     1       4.837   1.804  -0.033  0.00  0.00    +0.141 C 
ATOM     18  S   UNL     1       5.173   0.126  -0.044  0.00  0.00    -0.018 S 
BRANCH  17  21
ATOM     19  C   UNL     1       2.548   1.346  -0.014  0.00  0.00    +0.256 C 
ATOM     20  O   UNL     1       2.787   0.153  -0.022  0.00  0.00    -0.269 OA
ATOM     21  N   UNL     1       3.560   2.236  -0.019  0.00  0.00    -0.263 N 
ATOM     22  H   UNL     1       3.370   3.187  -0.013  0.00  0.00    +0.157 HD
BRANCH  19  25
ATOM     23  C   UNL     1      -1.193   1.776   0.017  0.00  0.00    +0.008 A 
ATOM     24  C   UNL     1      -0.013   1.076   0.008  0.00  0.00    +0.021 A 
ATOM     25  C   UNL     1       1.160   1.816   0.001  0.00  0.00    +0.074 A 
ATOM     26  S   UNL     1       0.539   3.488   0.015  0.00  0.00    -0.092 S 
ATOM     27  C   UNL     1      -1.158   3.135   0.029  0.00  0.00    +0.046 A 
ENDBRANCH  19  25
ENDBRANCH  17  21
ENDBRANCH  15  17
ENDBRANCH   1  15
TORSDOF 5
