REMARK  Name = ZINC53113509
REMARK  7 active torsions:
REMARK  status: ('A' for Active; 'I' for Inactive)
REMARK    1  A    between atoms: C_1  and  C_2
REMARK    2  A    between atoms: C_7  and  C_9
REMARK    3  A    between atoms: C_7  and  N_11
REMARK    4  A    between atoms: C_9  and  O_10
REMARK    5  A    between atoms: N_11  and  S_12
REMARK    6  A    between atoms: S_12  and  C_15
REMARK    7  A    between atoms: C_17  and  N_20
REMARK                            x       y       z     vdW  Elec       q    Type
REMARK                         _______ _______ _______ _____ _____    ______ ____
ROOT
ATOM      1  N   UNL     1       0.174   1.546   2.518  0.00  0.00    -0.181 NA
ATOM      2  H   UNL     1      -0.604   2.081   2.294  0.00  0.00    +0.149 HD
ENDROOT
BRANCH   1   8
ATOM      3  C   UNL     1       0.402   2.325   0.154  0.00  0.00    +0.007 C 
ATOM      4  C   UNL     1       0.474   0.860  -0.279  0.00  0.00    -0.012 C 
ATOM      5  C   UNL     1      -0.937   0.344  -0.572  0.00  0.00    +0.003 C 
ATOM      6  C   UNL     1      -1.794   0.461   0.691  0.00  0.00    +0.002 C 
ATOM      7  C   UNL     1      -1.168  -0.372   1.811  0.00  0.00    +0.026 C 
ATOM      8  C   UNL     1       0.242   0.143   2.103  0.00  0.00    +0.063 C 
ATOM      9  C   UNL     1       1.100   0.026   0.841  0.00  0.00    +0.029 C 
BRANCH   8  10
ATOM     10  C   UNL     1       0.868  -0.690   3.223  0.00  0.00    +0.179 C 
BRANCH  10  11
ATOM     11  O   UNL     1       0.084  -0.557   4.410  0.00  0.00    -0.393 OA
ATOM     12  H   UNL     1       0.378  -1.119   5.141  0.00  0.00    +0.209 HD
ENDBRANCH  10  11
ENDBRANCH   8  10
ENDBRANCH   1   8
BRANCH   1  13
ATOM     13  S   UNL     1       1.424   2.220   3.370  0.00  0.00    +0.065 S 
ATOM     14  O   UNL     1       1.139   3.608   3.481  0.00  0.00    -0.153 OA
ATOM     15  O   UNL     1       1.634   1.393   4.506  0.00  0.00    -0.153 OA
BRANCH  13  16
ATOM     16  C   UNL     1       2.869   2.081   2.372  0.00  0.00    +0.144 A 
ATOM     17  C   UNL     1       3.365   2.955   1.462  0.00  0.00    +0.059 A 
ATOM     18  C   UNL     1       4.531   2.632   0.787  0.00  0.00    +0.034 A 
ATOM     19  C   UNL     1       5.139   1.447   1.058  0.00  0.00    +0.069 A 
ATOM     20  S   UNL     1       4.063   0.755   2.303  0.00  0.00    -0.075 S 
BRANCH  18  21
ATOM     21  N   UNL     1       5.076   3.515  -0.165  0.00  0.00    -0.358 N 
ATOM     22  H   UNL     1       4.634   4.358  -0.353  0.00  0.00    +0.142 HD
ATOM     23  H   UNL     1       5.892   3.280  -0.633  0.00  0.00    +0.142 HD
ENDBRANCH  18  21
ENDBRANCH  13  16
ENDBRANCH   1  13
TORSDOF 6
