REMARK  Name = ZINC40758481
REMARK  6 active torsions:
REMARK  status: ('A' for Active; 'I' for Inactive)
REMARK    1  A    between atoms: C_1  and  N_2
REMARK    2  A    between atoms: C_5  and  N_8
REMARK    3  A    between atoms: N_8  and  C_9
REMARK    4  A    between atoms: C_11  and  N_27
REMARK    5  A    between atoms: C_12  and  N_16
REMARK    6  A    between atoms: N_16  and  C_17
REMARK                            x       y       z     vdW  Elec       q    Type
REMARK                         _______ _______ _______ _____ _____    ______ ____
ROOT
ATOM      1  N   UNL     1       1.229  -4.026  -0.086  0.00  0.00    -0.314 N 
ATOM      2  C   UNL     1       0.625  -3.607  -1.354  0.00  0.00    +0.131 C 
ATOM      3  C   UNL     1       2.376  -4.811  -0.089  0.00  0.00    +0.147 A 
ATOM      4  C   UNL     1       2.283  -6.200  -0.199  0.00  0.00    +0.106 A 
ATOM      5  C   UNL     1       3.466  -6.942  -0.197  0.00  0.00    +0.149 A 
ATOM      6  N   UNL     1       4.628  -6.301  -0.092  0.00  0.00    -0.219 NA
ATOM      7  C   UNL     1       4.671  -4.988   0.009  0.00  0.00    +0.225 A 
ATOM      8  N   UNL     1       3.579  -4.251   0.007  0.00  0.00    -0.219 NA
ENDROOT
BRANCH   1  13
ATOM      9  C   UNL     1      -2.168  -1.701   3.770  0.00  0.00    -0.096 C 
ATOM     10  N   UNL     1      -1.474  -2.174   2.565  0.00  0.00    +0.378 N 
ATOM     11  C   UNL     1      -0.098  -1.665   2.563  0.00  0.00    -0.077 C 
ATOM     12  C   UNL     1       0.606  -2.087   1.271  0.00  0.00    +0.004 C 
ATOM     13  C   UNL     1       0.626  -3.615   1.184  0.00  0.00    +0.071 C 
ATOM     14  C   UNL     1      -0.811  -4.141   1.261  0.00  0.00    +0.004 C 
ATOM     15  C   UNL     1      -1.461  -3.642   2.553  0.00  0.00    -0.077 C 
ATOM     16  H   UNL     1      -1.956  -1.837   1.745  0.00  0.00    -0.082 HD
ENDBRANCH   1  13
BRANCH   4  17
ATOM     17  N   UNL     1       1.035  -6.834  -0.307  0.00  0.00    -0.353 N 
ATOM     18  H   UNL     1       0.226  -6.303  -0.380  0.00  0.00    +0.143 HD
ATOM     19  H   UNL     1       0.981  -7.802  -0.309  0.00  0.00    +0.143 HD
ENDBRANCH   4  17
BRANCH   5  20
ATOM     20  N   UNL     1       3.430  -8.327  -0.303  0.00  0.00    -0.296 N 
ATOM     21  H   UNL     1       2.580  -8.793  -0.292  0.00  0.00    +0.154 HD
BRANCH  20  22
ATOM     22  C   UNL     1       4.618  -9.048  -0.426  0.00  0.00    +0.059 A 
ATOM     23  C   UNL     1       5.746  -8.446  -0.942  0.00  0.00    +0.025 A 
ATOM     24  C   UNL     1       6.937  -9.153  -1.070  0.00  0.00    +0.003 A 
ATOM     25  C   UNL     1       7.021 -10.459  -0.689  0.00  0.00    +0.010 A 
ATOM     26  C   UNL     1       5.895 -11.108  -0.159  0.00  0.00    +0.002 A 
ATOM     27  C   UNL     1       4.677 -10.399  -0.018  0.00  0.00    +0.092 A 
ATOM     28  N   UNL     1       3.605 -11.012   0.490  0.00  0.00    -0.253 NA
ATOM     29  C   UNL     1       3.652 -12.265   0.871  0.00  0.00    +0.111 A 
ATOM     30  C   UNL     1       4.819 -13.019   0.765  0.00  0.00    +0.020 A 
ATOM     31  C   UNL     1       5.949 -12.456   0.244  0.00  0.00    +0.011 A 
ENDBRANCH  20  22
ENDBRANCH   5  20
TORSDOF 4
