REMARK  Name = ZINC44462189
REMARK  13 active torsions:
REMARK  status: ('A' for Active; 'I' for Inactive)
REMARK    1  A    between atoms: C_1  and  C_2
REMARK    2  A    between atoms: C_2  and  O_3
REMARK    3  A    between atoms: O_3  and  C_4
REMARK    4  A    between atoms: C_6  and  C_23
REMARK    5  A    between atoms: C_9  and  O_10
REMARK    6  A    between atoms: O_10  and  C_11
REMARK    7  A    between atoms: C_11  and  C_12
REMARK    8  A    between atoms: N_14  and  C_15
REMARK    9  A    between atoms: C_17  and  C_22
REMARK   10  A    between atoms: C_20  and  C_21
REMARK   11  A    between atoms: C_23  and  C_24
REMARK   12  A    between atoms: C_24  and  C_26
REMARK   13  A    between atoms: C_24  and  N_27
REMARK                            x       y       z     vdW  Elec       q    Type
REMARK                         _______ _______ _______ _____ _____    ______ ____
ROOT
ATOM      1  C   UNL     1      -1.498  -1.851   0.035  0.00  0.00    +0.162 A 
ATOM      2  C   UNL     1      -0.389  -2.681   0.036  0.00  0.00    +0.053 A 
ATOM      3  C   UNL     1      -0.554  -4.054   0.040  0.00  0.00    -0.045 A 
ATOM      4  C   UNL     1      -1.823  -4.601   0.041  0.00  0.00    +0.007 A 
ATOM      5  C   UNL     1      -2.934  -3.778   0.039  0.00  0.00    +0.050 A 
ATOM      6  C   UNL     1      -2.776  -2.401   0.043  0.00  0.00    +0.163 A 
ENDROOT
BRANCH   1   7
ATOM      7  O   UNL     1      -1.338  -0.500   0.033  0.00  0.00    -0.489 OA
BRANCH   7   9
ATOM      8  C   UNL     1      -0.018   1.524   0.023  0.00  0.00    +0.048 C 
ATOM      9  C   UNL     1       0.003  -0.006   0.025  0.00  0.00    +0.226 C 
ENDBRANCH   7   9
ENDBRANCH   1   7
BRANCH   6  10
ATOM     10  O   UNL     1      -3.868  -1.590   0.047  0.00  0.00    -0.479 OA
BRANCH  10  11
ATOM     11  C   UNL     1      -5.148  -2.225   0.054  0.00  0.00    +0.325 C 
BRANCH  11  12
ATOM     12  C   UNL     1      -6.229  -1.175   0.058  0.00  0.00    +0.255 C 
ATOM     13  O   UNL     1      -5.933   0.001   0.055  0.00  0.00    -0.272 OA
ATOM     14  N   UNL     1      -7.526  -1.544   0.066  0.00  0.00    -0.282 N 
ATOM     15  H   UNL     1      -7.764  -2.481  -0.013  0.00  0.00    +0.155 HD
BRANCH  14  16
ATOM     16  C   UNL     1      -8.528  -0.575   0.186  0.00  0.00    +0.037 A 
ATOM     17  C   UNL     1      -8.249   0.642   0.796  0.00  0.00    +0.027 A 
ATOM     18  C   UNL     1      -9.241   1.597   0.913  0.00  0.00    -0.049 A 
ATOM     19  C   UNL     1     -10.509   1.342   0.424  0.00  0.00    +0.004 A 
ATOM     20  C   UNL     1     -10.789   0.132  -0.183  0.00  0.00    +0.005 A 
ATOM     21  C   UNL     1      -9.801  -0.824  -0.309  0.00  0.00    -0.029 A 
ATOM     22  C   UNL     1     -10.105  -2.140  -0.978  0.00  0.00    +0.045 C 
ATOM     23  C   UNL     1      -8.940   2.917   1.575  0.00  0.00    +0.044 C 
ENDBRANCH  14  16
ENDBRANCH  11  12
ENDBRANCH  10  11
ENDBRANCH   6  10
BRANCH   3  24
ATOM     24  C   UNL     1       0.653  -4.956   0.041  0.00  0.00    +0.019 C 
BRANCH  24  25
ATOM     25  C   UNL     1       1.063  -5.258   1.484  0.00  0.00    -0.074 C 
ATOM     26  C   UNL     1       2.209  -6.271   1.488  0.00  0.00    -0.014 C 
BRANCH  25  27
ATOM     27  N   UNL     1       1.503  -4.018   2.138  0.00  0.00    +0.380 N 
ATOM     28  H   UNL     1       0.747  -3.350   2.135  0.00  0.00    -0.090 HD
ATOM     29  H   UNL     1       1.773  -4.217   3.089  0.00  0.00    -0.090 HD
ATOM     30  H   UNL     1       2.292  -3.636   1.637  0.00  0.00    -0.090 HD
ENDBRANCH  25  27
ENDBRANCH  24  25
ENDBRANCH   3  24
TORSDOF 9
