REMARK  Name = ZINC02546412
REMARK  10 active torsions:
REMARK  status: ('A' for Active; 'I' for Inactive)
REMARK    1  A    between atoms: C_1  and  C_2
REMARK    2  A    between atoms: C_3  and  C_32
REMARK    3  A    between atoms: C_5  and  N_23
REMARK    4  A    between atoms: C_6  and  C_7
REMARK    5  A    between atoms: C_7  and  C_9
REMARK    6  A    between atoms: C_7  and  N_17
REMARK    7  A    between atoms: C_12  and  S_15
REMARK    8  A    between atoms: S_15  and  C_16
REMARK    9  A    between atoms: N_17  and  C_18
REMARK   10  A    between atoms: C_24  and  C_26
REMARK                            x       y       z     vdW  Elec       q    Type
REMARK                         _______ _______ _______ _____ _____    ______ ____
ROOT
ATOM      1  C   UNL     1       7.565   1.332  -0.200  0.00  0.00    +0.135 C 
ENDROOT
BRANCH   1   7
ATOM      2  C   UNL     1      10.080  -0.134  -0.073  0.00  0.00    +0.045 C 
ATOM      3  C   UNL     1       8.764  -0.869  -0.051  0.00  0.00    -0.033 A 
ATOM      4  C   UNL     1       8.734  -2.221   0.023  0.00  0.00    -0.008 A 
ATOM      5  S   UNL     1       6.980  -2.556   0.018  0.00  0.00    -0.078 S 
ATOM      6  C   UNL     1       6.401  -0.870  -0.083  0.00  0.00    +0.078 A 
ATOM      7  C   UNL     1       7.571  -0.172  -0.111  0.00  0.00    +0.009 A 
ATOM      8  C   UNL     1       9.884  -3.193   0.093  0.00  0.00    +0.052 C 
BRANCH   6   9
ATOM      9  N   UNL     1       5.090  -0.391  -0.128  0.00  0.00    -0.276 N 
ATOM     10  C   UNL     1       4.056  -1.251  -0.042  0.00  0.00    +0.249 C 
ATOM     11  O   UNL     1       4.261  -2.431   0.169  0.00  0.00    -0.270 OA
ATOM     12  H   UNL     1       4.924   0.560  -0.221  0.00  0.00    +0.156 HD
BRANCH  10  13
ATOM     13  C   UNL     1       2.671  -0.760  -0.205  0.00  0.00    +0.037 A 
ATOM     14  C   UNL     1       1.606  -1.662  -0.232  0.00  0.00    +0.013 A 
ATOM     15  C   UNL     1       0.316  -1.196  -0.384  0.00  0.00    +0.001 A 
ATOM     16  C   UNL     1       0.077   0.161  -0.510  0.00  0.00    +0.000 A 
ATOM     17  C   UNL     1       1.129   1.060  -0.485  0.00  0.00    +0.001 A 
ATOM     18  C   UNL     1       2.423   0.608  -0.333  0.00  0.00    +0.013 A 
ENDBRANCH  10  13
ENDBRANCH   6   9
ENDBRANCH   1   7
BRANCH   1  19
ATOM     19  C   UNL     1       7.287   1.750  -1.622  0.00  0.00    -0.023 A 
ATOM     20  C   UNL     1       5.983   1.922  -2.048  0.00  0.00    +0.007 A 
ATOM     21  C   UNL     1       5.725   2.308  -3.348  0.00  0.00    +0.015 A 
ATOM     22  C   UNL     1       6.777   2.515  -4.231  0.00  0.00    +0.008 A 
ATOM     23  C   UNL     1       8.087   2.336  -3.801  0.00  0.00    +0.015 A 
ATOM     24  C   UNL     1       8.338   1.954  -2.498  0.00  0.00    +0.007 A 
BRANCH  22  25
ATOM     25  S   UNL     1       6.453   3.002  -5.894  0.00  0.00    -0.129 S 
ATOM     26  C   UNL     1       4.644   3.103  -5.976  0.00  0.00    +0.090 C 
ENDBRANCH  22  25
ENDBRANCH   1  19
BRANCH   1  27
ATOM     27  N   UNL     1       6.524   1.870   0.679  0.00  0.00    -0.320 N 
ATOM     28  H   UNL     1       5.663   2.124   0.312  0.00  0.00    +0.148 HD
BRANCH  27  29
ATOM     29  C   UNL     1       6.770   2.016   2.039  0.00  0.00    +0.097 A 
ATOM     30  C   UNL     1       8.032   1.724   2.547  0.00  0.00    +0.041 A 
ATOM     31  C   UNL     1       8.265   1.880   3.901  0.00  0.00    +0.005 A 
ATOM     32  C   UNL     1       7.220   2.313   4.707  0.00  0.00    +0.018 A 
ATOM     33  C   UNL     1       5.992   2.579   4.138  0.00  0.00    +0.084 A 
ATOM     34  N   UNL     1       5.729   2.443   2.810  0.00  0.00    -0.350 N 
ATOM     35  H   UNL     1       4.804   2.649   2.413  0.00  0.00    +0.166 HD
ENDBRANCH  27  29
ENDBRANCH   1  27
TORSDOF 7
