REMARK  Name = ZINC43328758
REMARK  8 active torsions:
REMARK  status: ('A' for Active; 'I' for Inactive)
REMARK    1  A    between atoms: C_1  and  N_2
REMARK    2  A    between atoms: N_2  and  C_3
REMARK    3  A    between atoms: C_6  and  O_35
REMARK    4  A    between atoms: C_15  and  N_32
REMARK    5  A    between atoms: C_18  and  C_28
REMARK    6  A    between atoms: C_21  and  O_27
REMARK    7  A    between atoms: N_32  and  C_33
REMARK    8  A    between atoms: N_32  and  C_34
REMARK                            x       y       z     vdW  Elec       q    Type
REMARK                         _______ _______ _______ _____ _____    ______ ____
ROOT
ATOM      1  C   UNL     1      -2.718  -0.918  -4.602  0.00  0.00    +0.031 A 
ATOM      2  C   UNL     1      -4.077  -0.628  -4.552  0.00  0.00    +0.027 A 
ATOM      3  C   UNL     1      -4.849  -1.063  -3.495  0.00  0.00    +0.048 A 
ATOM      4  C   UNL     1      -4.269  -1.798  -2.471  0.00  0.00    +0.128 A 
ATOM      5  C   UNL     1      -2.899  -2.096  -2.516  0.00  0.00    +0.064 A 
ATOM      6  C   UNL     1      -2.121  -1.656  -3.591  0.00  0.00    -0.012 A 
ATOM      7  C   UNL     1      -0.649  -1.957  -3.675  0.00  0.00    +0.042 C 
ATOM      8  C   UNL     1      -0.298  -3.185  -2.839  0.00  0.00    +0.012 C 
ATOM      9  C   UNL     1       1.213  -3.411  -2.835  0.00  0.00    +0.011 C 
ATOM     10  C   UNL     1       1.546  -4.691  -2.070  0.00  0.00    +0.030 C 
ATOM     11  C   UNL     1       0.837  -5.881  -2.725  0.00  0.00    +0.010 C 
ATOM     12  C   UNL     1       1.274  -7.133  -1.995  0.00  0.00    +0.159 C 
ATOM     13  C   UNL     1       1.347  -7.078  -0.532  0.00  0.00    +0.123 C 
ATOM     14  C   UNL     1       1.271  -5.869   0.116  0.00  0.00    +0.210 C 
ATOM     15  O   UNL     1       1.351  -5.850   1.454  0.00  0.00    -0.288 OA
ATOM     16  C   UNL     1       1.088  -4.576  -0.618  0.00  0.00    +0.188 C 
ATOM     17  C   UNL     1      -0.368  -4.166  -0.587  0.00  0.00    +0.183 C 
ATOM     18  C   UNL     1      -0.777  -2.960  -1.396  0.00  0.00    +0.133 C 
ATOM     19  C   UNL     1      -2.287  -2.883  -1.431  0.00  0.00    +0.177 C 
ATOM     20  O   UNL     1      -2.967  -3.458  -0.607  0.00  0.00    -0.291 OA
ATOM     21  O   UNL     1      -1.168  -4.774   0.081  0.00  0.00    -0.293 OA
ATOM     22  O   UNL     1       1.555  -8.148  -2.600  0.00  0.00    -0.294 OA
ENDROOT
BRANCH  13  23
ATOM     23  C   UNL     1       1.499  -8.319   0.244  0.00  0.00    +0.248 C 
ATOM     24  O   UNL     1       1.444  -8.287   1.459  0.00  0.00    -0.270 OA
ATOM     25  N   UNL     1       1.701  -9.490  -0.391  0.00  0.00    -0.325 N 
ATOM     26  H   UNL     1       1.830  -9.505  -1.352  0.00  0.00    +0.145 HD
ATOM     27  H   UNL     1       1.718 -10.319   0.113  0.00  0.00    +0.145 HD
ENDBRANCH  13  23
BRANCH  11  28
ATOM     28  N   UNL     1      -0.619  -5.718  -2.611  0.00  0.00    +0.383 N 
ATOM     29  C   UNL     1      -1.217  -5.706  -3.953  0.00  0.00    -0.096 C 
ATOM     30  C   UNL     1      -1.177  -6.835  -1.836  0.00  0.00    -0.096 C 
ATOM     31  H   UNL     1      -0.824  -4.848  -2.143  0.00  0.00    -0.082 HD
ENDBRANCH  11  28
BRANCH   1  33
ATOM     32  C   UNL     1      -2.575   0.312  -6.752  0.00  0.00    +0.125 C 
ATOM     33  N   UNL     1      -1.949  -0.468  -5.682  0.00  0.00    -0.347 N 
ATOM     34  H   UNL     1      -1.001  -0.672  -5.721  0.00  0.00    +0.146 HD
ENDBRANCH   1  33
BRANCH  16  35
ATOM     35  O   UNL     1       1.857  -3.566   0.039  0.00  0.00    -0.373 OA
ATOM     36  H   UNL     1       1.622  -3.435   0.968  0.00  0.00    +0.211 HD
ENDBRANCH  16  35
BRANCH   4  37
ATOM     37  O   UNL     1      -5.025  -2.227  -1.429  0.00  0.00    -0.506 OA
ATOM     38  H   UNL     1      -5.422  -3.099  -1.563  0.00  0.00    +0.292 HD
ENDBRANCH   4  37
TORSDOF 5
