REMARK  Name = ZINC34787592
REMARK  7 active torsions:
REMARK  status: ('A' for Active; 'I' for Inactive)
REMARK    1  A    between atoms: C_1  and  C_2
REMARK    2  A    between atoms: C_4  and  C_37
REMARK    3  A    between atoms: C_11  and  C_16
REMARK    4  A    between atoms: N_22  and  N_23
REMARK    5  A    between atoms: N_22  and  N_30
REMARK    6  A    between atoms: N_23  and  C_24
REMARK    7  A    between atoms: N_30  and  C_31
REMARK                            x       y       z     vdW  Elec       q    Type
REMARK                         _______ _______ _______ _____ _____    ______ ____
ROOT
ATOM      1  C   UNL     1      -0.737  -0.335  -1.979  0.00  0.00    +0.067 C 
ATOM      2  C   UNL     1      -0.233  -1.650  -1.441  0.00  0.00    +0.061 A 
ATOM      3  C   UNL     1       0.600  -2.547  -2.120  0.00  0.00    +0.048 A 
ATOM      4  C   UNL     1       0.826  -3.603  -1.306  0.00  0.00    +0.045 A 
ATOM      5  N   UNL     1       0.155  -3.379  -0.145  0.00  0.00    -0.202 N 
ATOM      6  N   UNL     1      -0.495  -2.143  -0.259  0.00  0.00    -0.169 NA
ATOM      7  C   UNL     1       0.123  -4.226   0.963  0.00  0.00    +0.254 A 
ATOM      8  N   UNL     1      -0.583  -3.876   2.029  0.00  0.00    -0.192 NA
ATOM      9  C   UNL     1      -0.650  -4.638   3.108  0.00  0.00    +0.171 A 
ATOM     10  C   UNL     1       0.053  -5.872   3.133  0.00  0.00    +0.058 A 
ATOM     11  C   UNL     1       0.135  -6.875   4.191  0.00  0.00    +0.002 A 
ATOM     12  C   UNL     1       0.878  -7.986   3.979  0.00  0.00    +0.056 A 
ATOM     13  S   UNL     1       1.519  -7.751   2.333  0.00  0.00    -0.076 S 
ATOM     14  C   UNL     1       0.782  -6.180   1.966  0.00  0.00    +0.116 A 
ATOM     15  N   UNL     1       0.794  -5.367   0.928  0.00  0.00    -0.203 NA
ATOM     16  N   UNL     1      -1.398  -4.237   4.201  0.00  0.00    -0.151 N 
ATOM     17  C   UNL     1       1.670  -4.810  -1.627  0.00  0.00    +0.066 C 
ENDROOT
BRANCH  11  18
ATOM     18  C   UNL     1      -0.583  -6.679   5.473  0.00  0.00    -0.017 A 
ATOM     19  C   UNL     1      -0.005  -5.921   6.490  0.00  0.00    +0.008 A 
ATOM     20  C   UNL     1      -0.678  -5.743   7.681  0.00  0.00    +0.001 A 
ATOM     21  C   UNL     1      -1.924  -6.315   7.868  0.00  0.00    +0.000 A 
ATOM     22  C   UNL     1      -2.502  -7.068   6.862  0.00  0.00    +0.001 A 
ATOM     23  C   UNL     1      -1.842  -7.248   5.664  0.00  0.00    +0.008 A 
ENDBRANCH  11  18
BRANCH  16  24
ATOM     24  N   UNL     1      -2.736  -3.857   4.033  0.00  0.00    -0.246 N 
ATOM     25  H   UNL     1      -2.957  -2.931   3.849  0.00  0.00    +0.172 HD
BRANCH  24  26
ATOM     26  C   UNL     1      -3.751  -4.811   4.131  0.00  0.00    +0.046 A 
ATOM     27  C   UNL     1      -3.436  -6.137   4.400  0.00  0.00    +0.024 A 
ATOM     28  C   UNL     1      -4.441  -7.079   4.497  0.00  0.00    +0.002 A 
ATOM     29  C   UNL     1      -5.761  -6.702   4.326  0.00  0.00    +0.000 A 
ATOM     30  C   UNL     1      -6.078  -5.383   4.057  0.00  0.00    +0.002 A 
ATOM     31  C   UNL     1      -5.078  -4.436   3.965  0.00  0.00    +0.024 A 
ENDBRANCH  24  26
ENDBRANCH  16  24
BRANCH  16  32
ATOM     32  N   UNL     1      -0.817  -4.212   5.475  0.00  0.00    -0.246 N 
ATOM     33  H   UNL     1      -1.116  -4.833   6.157  0.00  0.00    +0.172 HD
BRANCH  32  34
ATOM     34  C   UNL     1       0.193  -3.291   5.764  0.00  0.00    +0.046 A 
ATOM     35  C   UNL     1       0.197  -2.046   5.148  0.00  0.00    +0.024 A 
ATOM     36  C   UNL     1       1.197  -1.138   5.436  0.00  0.00    +0.002 A 
ATOM     37  C   UNL     1       2.193  -1.466   6.337  0.00  0.00    +0.000 A 
ATOM     38  C   UNL     1       2.192  -2.705   6.953  0.00  0.00    +0.002 A 
ATOM     39  C   UNL     1       1.192  -3.615   6.673  0.00  0.00    +0.024 A 
ENDBRANCH  32  34
ENDBRANCH  16  32
TORSDOF 5
