REMARK  Name = ZINC08830061
REMARK  4 active torsions:
REMARK  status: ('A' for Active; 'I' for Inactive)
REMARK    1  A    between atoms: C_4  and  N_7
REMARK    2  A    between atoms: C_16  and  C_26
REMARK    3  A    between atoms: C_16  and  C_30
REMARK    4  A    between atoms: C_18  and  C_20
REMARK                            x       y       z     vdW  Elec       q    Type
REMARK                         _______ _______ _______ _____ _____    ______ ____
ROOT
ATOM      1  N   UNL     1       3.192  -0.869  -0.347  0.00  0.00    -0.250 N 
ATOM      2  C   UNL     1       3.386  -2.207  -0.102  0.00  0.00    +0.124 A 
ATOM      3  C   UNL     1       4.649  -2.722  -0.125  0.00  0.00    +0.100 A 
ATOM      4  C   UNL     1       5.728  -1.868  -0.407  0.00  0.00    +0.262 A 
ATOM      5  O   UNL     1       6.866  -2.305  -0.438  0.00  0.00    -0.267 OA
ATOM      6  N   UNL     1       5.496  -0.561  -0.642  0.00  0.00    -0.274 N 
ATOM      7  H   UNL     1       6.239   0.032  -0.837  0.00  0.00    +0.173 HD
ATOM      8  C   UNL     1       4.243  -0.071  -0.616  0.00  0.00    +0.335 A 
ATOM      9  O   UNL     1       4.058   1.111  -0.833  0.00  0.00    -0.246 OA
ATOM     10  C   UNL     1       4.883  -4.179   0.153  0.00  0.00    +0.285 C 
ATOM     11  N   UNL     1       3.643  -4.940   0.056  0.00  0.00    -0.244 NA
ATOM     12  C   UNL     1       2.481  -4.395   0.064  0.00  0.00    +0.100 C 
ATOM     13  N   UNL     1       2.320  -3.035   0.161  0.00  0.00    -0.288 N 
ATOM     14  H   UNL     1       1.462  -2.662   0.413  0.00  0.00    +0.155 HD
ENDROOT
BRANCH   1  18
ATOM     15  C   UNL     1      -0.660   0.722  -0.273  0.00  0.00    +0.000 A 
ATOM     16  C   UNL     1       0.103   0.707   0.881  0.00  0.00    +0.002 A 
ATOM     17  C   UNL     1       1.380   0.180   0.859  0.00  0.00    +0.026 A 
ATOM     18  C   UNL     1       1.897  -0.335  -0.322  0.00  0.00    +0.053 A 
ATOM     19  C   UNL     1       1.129  -0.318  -1.478  0.00  0.00    +0.026 A 
ATOM     20  C   UNL     1      -0.147   0.210  -1.450  0.00  0.00    +0.002 A 
ENDBRANCH   1  18
BRANCH  12  21
ATOM     21  C   UNL     1       1.260  -5.273  -0.035  0.00  0.00    +0.052 C 
ATOM     22  C   UNL     1       0.734  -5.575   1.370  0.00  0.00    +0.011 C 
ATOM     23  C   UNL     1      -0.506  -6.465   1.270  0.00  0.00    +0.001 C 
ATOM     24  C   UNL     1      -0.137  -7.776   0.571  0.00  0.00    +0.000 C 
ATOM     25  C   UNL     1       0.389  -7.474  -0.834  0.00  0.00    +0.001 C 
ATOM     26  C   UNL     1       1.629  -6.583  -0.734  0.00  0.00    +0.011 C 
ENDBRANCH  12  21
BRANCH  10  27
ATOM     27  C   UNL     1       5.889  -4.728  -0.860  0.00  0.00    +0.428 C 
ATOM     28  F   UNL     1       7.175  -4.289  -0.524  0.00  0.00    -0.167 F 
ATOM     29  F   UNL     1       5.854  -6.126  -0.842  0.00  0.00    -0.167 F 
ATOM     30  F   UNL     1       5.559  -4.269  -2.140  0.00  0.00    -0.167 F 
ENDBRANCH  10  27
BRANCH  10  31
ATOM     31  C   UNL     1       5.457  -4.335   1.563  0.00  0.00    +0.428 C 
ATOM     32  F   UNL     1       4.551  -3.818   2.495  0.00  0.00    -0.167 F 
ATOM     33  F   UNL     1       5.678  -5.690   1.830  0.00  0.00    -0.167 F 
ATOM     34  F   UNL     1       6.667  -3.638   1.653  0.00  0.00    -0.167 F 
ENDBRANCH  10  31
TORSDOF 4
