REMARK  Name = ZINC13095615
REMARK  11 active torsions:
REMARK  status: ('A' for Active; 'I' for Inactive)
REMARK    1  A    between atoms: C_1  and  C_2
REMARK    2  A    between atoms: C_2  and  C_4
REMARK    3  A    between atoms: C_2  and  N_59
REMARK    4  A    between atoms: C_7  and  S_10
REMARK    5  A    between atoms: S_10  and  N_13
REMARK    6  A    between atoms: C_14  and  C_15
REMARK    7  A    between atoms: C_14  and  N_59
REMARK    8  A    between atoms: N_17  and  C_18
REMARK    9  A    between atoms: C_25  and  C_26
REMARK   10  A    between atoms: C_25  and  N_59
REMARK   11  A    between atoms: N_28  and  C_29
REMARK                            x       y       z     vdW  Elec       q    Type
REMARK                         _______ _______ _______ _____ _____    ______ ____
ROOT
ATOM      1  N   UNL     1      -1.730   4.296   5.416  0.00  0.00    +0.395 N 
ATOM      2  H   UNL     1      -1.347   4.494   4.484  0.00  0.00    -0.080 HD
ENDROOT
BRANCH   1   4
ATOM      3  C   UNL     1      -3.184   2.401   4.856  0.00  0.00    -0.008 C 
ATOM      4  C   UNL     1      -3.138   3.872   5.277  0.00  0.00    -0.040 C 
BRANCH   4   5
ATOM      5  C   UNL     1      -3.872   4.043   6.582  0.00  0.00    -0.061 A 
ATOM      6  C   UNL     1      -5.117   4.643   6.602  0.00  0.00    +0.004 A 
ATOM      7  C   UNL     1      -5.789   4.800   7.800  0.00  0.00    +0.029 A 
ATOM      8  C   UNL     1      -5.217   4.356   8.977  0.00  0.00    +0.105 A 
ATOM      9  C   UNL     1      -3.970   3.761   8.958  0.00  0.00    +0.029 A 
ATOM     10  C   UNL     1      -3.299   3.600   7.760  0.00  0.00    +0.004 A 
BRANCH   8  11
ATOM     11  S   UNL     1      -6.074   4.557  10.504  0.00  0.00    +0.056 S 
ATOM     12  O   UNL     1      -6.892   5.710  10.362  0.00  0.00    -0.153 OA
ATOM     13  O   UNL     1      -5.104   4.433  11.534  0.00  0.00    -0.153 OA
BRANCH  11  14
ATOM     14  N   UNL     1      -7.100   3.266  10.662  0.00  0.00    -0.204 NA
ATOM     15  H   UNL     1      -8.056   3.412  10.735  0.00  0.00    +0.144 HD
ATOM     16  H   UNL     1      -6.744   2.364  10.682  0.00  0.00    +0.144 HD
ENDBRANCH  11  14
ENDBRANCH   8  11
ENDBRANCH   4   5
ENDBRANCH   1   4
BRANCH   1  17
ATOM     17  C   UNL     1      -1.651   5.523   6.238  0.00  0.00    +0.020 C 
BRANCH  17  18
ATOM     18  C   UNL     1      -2.055   6.700   5.388  0.00  0.00    +0.201 C 
ATOM     19  O   UNL     1      -2.414   6.526   4.243  0.00  0.00    -0.278 OA
ATOM     20  N   UNL     1      -2.019   7.946   5.901  0.00  0.00    -0.287 N 
ATOM     21  H   UNL     1      -1.671   8.092   6.795  0.00  0.00    +0.155 HD
BRANCH  20  22
ATOM     22  C   UNL     1      -2.483   9.028   5.145  0.00  0.00    +0.033 A 
ATOM     23  C   UNL     1      -2.221   9.088   3.782  0.00  0.00    +0.026 A 
ATOM     24  C   UNL     1      -2.685  10.154   3.037  0.00  0.00    +0.040 A 
ATOM     25  C   UNL     1      -3.400  11.169   3.649  0.00  0.00    +0.124 A 
ATOM     26  C   UNL     1      -3.658  11.115   5.008  0.00  0.00    +0.040 A 
ATOM     27  C   UNL     1      -3.201  10.047   5.757  0.00  0.00    +0.026 A 
ATOM     28  F   UNL     1      -3.849  12.213   2.919  0.00  0.00    -0.205 F 
ENDBRANCH  20  22
ENDBRANCH  17  18
ENDBRANCH   1  17
BRANCH   1  29
ATOM     29  C   UNL     1      -0.936   3.218   6.041  0.00  0.00    +0.020 C 
BRANCH  29  30
ATOM     30  C   UNL     1      -0.386   2.334   4.952  0.00  0.00    +0.201 C 
ATOM     31  O   UNL     1      -0.636   2.576   3.790  0.00  0.00    -0.278 OA
ATOM     32  N   UNL     1       0.384   1.274   5.268  0.00  0.00    -0.287 N 
ATOM     33  H   UNL     1       0.546   1.053   6.198  0.00  0.00    +0.155 HD
BRANCH  32  34
ATOM     34  C   UNL     1       0.950   0.492   4.253  0.00  0.00    +0.033 A 
ATOM     35  C   UNL     1       0.270   0.308   3.057  0.00  0.00    +0.026 A 
ATOM     36  C   UNL     1       0.833  -0.459   2.055  0.00  0.00    +0.040 A 
ATOM     37  C   UNL     1       2.068  -1.054   2.248  0.00  0.00    +0.124 A 
ATOM     38  C   UNL     1       2.745  -0.876   3.443  0.00  0.00    +0.040 A 
ATOM     39  C   UNL     1       2.189  -0.105   4.445  0.00  0.00    +0.026 A 
ATOM     40  F   UNL     1       2.614  -1.808   1.269  0.00  0.00    -0.205 F 
ENDBRANCH  32  34
ENDBRANCH  29  30
ENDBRANCH   1  29
TORSDOF 10
