REMARK  Name = ZINC50417270
REMARK  6 active torsions:
REMARK  status: ('A' for Active; 'I' for Inactive)
REMARK    1  A    between atoms: C_1  and  C_2
REMARK    2  A    between atoms: C_2  and  C_4
REMARK    3  A    between atoms: C_2  and  N_10
REMARK    4  A    between atoms: N_8  and  C_9
REMARK    5  A    between atoms: N_10  and  C_11
REMARK    6  A    between atoms: C_20  and  N_21
REMARK                            x       y       z     vdW  Elec       q    Type
REMARK                         _______ _______ _______ _____ _____    ______ ____
ROOT
ATOM      1  C   UNL     1      -2.184  -0.398  -1.058  0.00  0.00    +0.059 A 
ATOM      2  C   UNL     1      -3.591  -0.452  -0.946  0.00  0.00    +0.022 A 
ATOM      3  C   UNL     1      -4.245  -0.056   0.230  0.00  0.00    +0.027 A 
ATOM      4  C   UNL     1      -5.604  -0.122   0.300  0.00  0.00    +0.019 A 
ATOM      5  C   UNL     1      -6.354  -0.579  -0.783  0.00  0.00    +0.017 A 
ATOM      6  C   UNL     1      -5.751  -0.970  -1.938  0.00  0.00    +0.027 A 
ATOM      7  C   UNL     1      -4.350  -0.916  -2.048  0.00  0.00    +0.048 A 
ATOM      8  N   UNL     1      -3.735  -1.295  -3.174  0.00  0.00    -0.359 N 
ATOM      9  C   UNL     1      -2.428  -1.251  -3.295  0.00  0.00    +0.107 A 
ATOM     10  C   UNL     1      -1.611  -0.802  -2.259  0.00  0.00    +0.063 A 
ATOM     11 BR   UNL     1      -6.484   0.411   1.887  0.00  0.00    -0.050 Br
ATOM     12  H   UNL     1      -4.268  -1.610  -3.920  0.00  0.00    +0.165 HD
ENDROOT
BRANCH  10  13
ATOM     13  N   UNL     1      -0.219  -0.762  -2.425  0.00  0.00    -0.355 N 
ATOM     14  H   UNL     1       0.355  -0.565  -1.668  0.00  0.00    +0.142 HD
ATOM     15  H   UNL     1       0.171  -0.932  -3.297  0.00  0.00    +0.142 HD
ENDBRANCH  10  13
BRANCH   1  16
ATOM     16  N   UNL     1      -1.397   0.050  -0.002  0.00  0.00    -0.332 N 
ATOM     17  H   UNL     1      -1.447   0.977   0.281  0.00  0.00    +0.147 HD
BRANCH  16  19
ATOM     18  C   UNL     1       0.518  -0.082   1.513  0.00  0.00    +0.036 C 
ATOM     19  C   UNL     1      -0.491  -0.876   0.682  0.00  0.00    +0.135 C 
BRANCH  19  20
ATOM     20  C   UNL     1      -1.287  -1.780   1.587  0.00  0.00    +0.153 A 
ATOM     21  N   UNL     1      -2.247  -1.417   2.394  0.00  0.00    -0.133 NA
ATOM     22  N   UNL     1      -2.705  -2.446   3.014  0.00  0.00    -0.138 NA
ATOM     23  C   UNL     1      -2.058  -3.513   2.631  0.00  0.00    +0.224 A 
ATOM     24  N   UNL     1      -1.144  -3.122   1.711  0.00  0.00    -0.319 N 
ATOM     25  C   UNL     1      -0.190  -3.975   0.998  0.00  0.00    +0.151 C 
ENDBRANCH  19  20
ENDBRANCH  16  19
ENDBRANCH   1  16
TORSDOF 4
