REMARK  Name = ZINC33732588
REMARK  15 active torsions:
REMARK  status: ('A' for Active; 'I' for Inactive)
REMARK    1  A    between atoms: C_1  and  C_2
REMARK    2  A    between atoms: C_2  and  C_3
REMARK    3  A    between atoms: C_3  and  O_4
REMARK    4  A    between atoms: O_4  and  C_5
REMARK    5  A    between atoms: C_5  and  C_7
REMARK    6  A    between atoms: C_8  and  C_37
REMARK    7  A    between atoms: C_12  and  C_14
REMARK    8  A    between atoms: C_16  and  O_22
REMARK    9  A    between atoms: C_17  and  O_21
REMARK   10  A    between atoms: O_22  and  C_23
REMARK   11  A    between atoms: C_23  and  C_24
REMARK   12  A    between atoms: C_27  and  C_33
REMARK   13  A    between atoms: C_29  and  C_32
REMARK   14  A    between atoms: C_33  and  O_35
REMARK   15  A    between atoms: O_35  and  C_36
REMARK                            x       y       z     vdW  Elec       q    Type
REMARK                         _______ _______ _______ _____ _____    ______ ____
ROOT
ATOM      1  C   UNL     1       0.068   2.215   4.878  0.00  0.00    +0.065 C 
ATOM      2  C   UNL     1       1.398   2.026   4.830  0.00  0.00    +0.016 C 
ATOM      3  N   UNL     1       2.045   1.957   3.627  0.00  0.00    -0.321 N 
ATOM      4  C   UNL     1       1.353   1.677   2.479  0.00  0.00    +0.016 C 
ATOM      5  C   UNL     1       0.016   1.854   2.425  0.00  0.00    +0.025 C 
ATOM      6  C   UNL     1      -0.743   2.364   3.624  0.00  0.00    +0.092 C 
ATOM      7  C   UNL     1      -0.706   1.573   1.251  0.00  0.00    +0.176 C 
ATOM      8  O   UNL     1      -1.911   1.727   1.241  0.00  0.00    -0.291 OA
ATOM      9  C   UNL     1      -0.013   1.086   0.008  0.00  0.00    +0.171 C 
ATOM     10  C   UNL     1       1.424   1.618  -0.003  0.00  0.00    +0.013 C 
ATOM     11  C   UNL     1       2.119   1.166   1.284  0.00  0.00    +0.055 C 
ATOM     12  C   UNL     1       2.171   1.057  -1.215  0.00  0.00    +0.009 C 
ATOM     13  C   UNL     1       2.182   1.891   6.110  0.00  0.00    +0.061 C 
ATOM     14  H   UNL     1       3.130   2.126   3.575  0.00  0.00    +0.152 HD
ENDROOT
BRANCH   6  15
ATOM     15  C   UNL     1      -1.073   3.820   3.417  0.00  0.00    -0.030 A 
ATOM     16  C   UNL     1      -2.393   4.228   3.371  0.00  0.00    +0.054 A 
ATOM     17  C   UNL     1      -2.698   5.566   3.181  0.00  0.00    +0.163 A 
ATOM     18  C   UNL     1      -1.674   6.497   3.037  0.00  0.00    +0.177 A 
ATOM     19  C   UNL     1      -0.352   6.081   3.085  0.00  0.00    +0.086 A 
ATOM     20  C   UNL     1      -0.054   4.744   3.280  0.00  0.00    +0.028 A 
ATOM     21 CL   UNL     1       0.929   7.239   2.906  0.00  0.00    -0.080 Cl
BRANCH  18  22
ATOM     22  O   UNL     1      -1.968   7.812   2.850  0.00  0.00    -0.502 OA
ATOM     23  H   UNL     1      -1.158   8.546   2.736  0.00  0.00    +0.292 HD
ENDBRANCH  18  22
BRANCH  17  24
ATOM     24  O   UNL     1      -3.996   5.969   3.136  0.00  0.00    -0.489 OA
BRANCH  24  25
ATOM     25  C   UNL     1      -4.995   4.959   3.292  0.00  0.00    +0.226 C 
ATOM     26  C   UNL     1      -6.383   5.598   3.214  0.00  0.00    +0.048 C 
ENDBRANCH  24  25
ENDBRANCH  17  24
ENDBRANCH   6  15
BRANCH   1  27
ATOM     27  C   UNL     1      -0.579   2.275   6.134  0.00  0.00    +0.338 C 
ATOM     28  O   UNL     1       0.068   2.156   7.158  0.00  0.00    -0.245 OA
BRANCH  27  29
ATOM     29  O   UNL     1      -1.913   2.465   6.197  0.00  0.00    -0.461 OA
BRANCH  29  30
ATOM     30  C   UNL     1      -2.501   2.515   7.499  0.00  0.00    +0.232 C 
BRANCH  30  32
ATOM     31  C   UNL     1      -4.638   2.788   8.763  0.00  0.00    +0.007 C 
ATOM     32  C   UNL     1      -4.010   2.734   7.370  0.00  0.00    +0.038 C 
ENDBRANCH  30  32
ENDBRANCH  29  30
ENDBRANCH  27  29
ENDBRANCH   1  27
BRANCH   9  33
ATOM     33  C   UNL     1      -0.745   1.587  -1.210  0.00  0.00    +0.318 C 
ATOM     34  O   UNL     1      -0.178   2.294  -2.008  0.00  0.00    -0.250 OA
BRANCH  33  35
ATOM     35  O   UNL     1      -2.029   1.248  -1.408  0.00  0.00    -0.467 OA
ATOM     36  C   UNL     1      -2.671   1.766  -2.602  0.00  0.00    +0.280 C 
ENDBRANCH  33  35
ENDBRANCH   9  33
TORSDOF 10
