REMARK  Name = ZINC52094689
REMARK  7 active torsions:
REMARK  status: ('A' for Active; 'I' for Inactive)
REMARK    1  A    between atoms: C_1  and  C_2
REMARK    2  A    between atoms: C_2  and  C_3
REMARK    3  A    between atoms: C_3  and  N_4
REMARK    4  A    between atoms: N_4  and  C_5
REMARK    5  A    between atoms: C_5  and  C_7
REMARK    6  A    between atoms: C_5  and  C_20
REMARK    7  A    between atoms: C_23  and  C_25
REMARK                            x       y       z     vdW  Elec       q    Type
REMARK                         _______ _______ _______ _____ _____    ______ ____
ROOT
ATOM      1  C   UNL     1       0.866  -2.789  -1.687  0.00  0.00    -0.045 A 
ATOM      2  C   UNL     1      -0.127  -3.491  -1.032  0.00  0.00    +0.031 A 
ATOM      3  C   UNL     1       0.129  -4.768  -0.558  0.00  0.00    +0.067 A 
ATOM      4  C   UNL     1       1.389  -5.341  -0.746  0.00  0.00    +0.068 A 
ATOM      5  C   UNL     1       2.379  -4.630  -1.405  0.00  0.00    +0.043 A 
ATOM      6  C   UNL     1       2.114  -3.359  -1.879  0.00  0.00    +0.022 A 
ATOM      7 BR   UNL     1       3.462  -2.391  -2.785  0.00  0.00    -0.050 Br
ATOM      8  N   UNL     1       1.344  -6.609  -0.172  0.00  0.00    -0.306 N 
ATOM      9  H   UNL     1       2.074  -7.247  -0.146  0.00  0.00    +0.170 HD
ATOM     10  C   UNL     1       0.114  -6.799   0.342  0.00  0.00    +0.325 A 
ATOM     11  O   UNL     1      -0.258  -7.806   0.916  0.00  0.00    -0.247 OA
ATOM     12  N   UNL     1      -0.642  -5.707   0.125  0.00  0.00    -0.306 N 
ATOM     13  H   UNL     1      -1.566  -5.592   0.397  0.00  0.00    +0.170 HD
ENDROOT
BRANCH   1  14
ATOM     14  C   UNL     1       0.589  -1.400  -2.202  0.00  0.00    -0.036 C 
BRANCH  14  15
ATOM     15  C   UNL     1       0.559  -1.420  -3.732  0.00  0.00    -0.018 C 
ATOM     16  C   UNL     1      -0.729  -0.959  -4.419  0.00  0.00    +0.006 C 
ATOM     17  C   UNL     1      -0.356  -2.444  -4.407  0.00  0.00    -0.012 C 
ATOM     18  C   UNL     1      -1.170  -3.370  -3.501  0.00  0.00    +0.008 C 
ENDBRANCH  14  15
BRANCH  14  19
ATOM     19  N   UNL     1      -0.710  -0.939  -1.692  0.00  0.00    +0.384 N 
ATOM     20  H   UNL     1      -0.935  -1.439  -0.846  0.00  0.00    -0.085 HD
ATOM     21  H   UNL     1      -1.423  -1.112  -2.385  0.00  0.00    -0.085 HD
BRANCH  19  22
ATOM     22  C   UNL     1      -0.641   0.500  -1.408  0.00  0.00    -0.082 C 
BRANCH  22  24
ATOM     23  C   UNL     1      -1.964   2.514  -0.745  0.00  0.00    +0.002 C 
ATOM     24  C   UNL     1      -2.035   1.014  -1.042  0.00  0.00    -0.022 C 
ENDBRANCH  22  24
ENDBRANCH  19  22
ENDBRANCH  14  19
ENDBRANCH   1  14
TORSDOF 5
