REMARK  Name = ZINC19962535
REMARK  4 active torsions:
REMARK  status: ('A' for Active; 'I' for Inactive)
REMARK    1  A    between atoms: C_1  and  C_2
REMARK    2  A    between atoms: CA_6  and  C_23
REMARK    3  A    between atoms: C_8  and  C_12
REMARK    4  A    between atoms: C_21  and  O_22
REMARK                            x       y       z     vdW  Elec       q    Type
REMARK                         _______ _______ _______ _____ _____    ______ ____
ROOT
ATOM      1  C   UNL     1       0.242   1.582   0.376  0.00  0.00    +0.082 C 
ATOM      2  C   UNL     1       0.181   0.081   0.257  0.00  0.00    +0.088 C 
ATOM      3  N   UNL     1       0.143  -0.584  -0.864  0.00  0.00    -0.319 N 
ATOM      4  C   UNL     1       0.093  -1.913  -0.621  0.00  0.00    +0.192 C 
ATOM      5  N   UNL     1       0.044  -2.950  -1.420  0.00  0.00    -0.322 N 
ATOM      6  CA  UNL     1      -0.002  -4.243  -1.000  0.00  0.00    +0.129 C 
ATOM      7  C   UNL     1      -0.001  -4.567   0.310  0.00  0.00    +0.035 C 
ATOM      8  C   UNL     1       0.055  -3.427   1.311  0.00  0.00    +0.156 C 
ATOM      9  N   UNL     1       0.102  -2.072   0.751  0.00  0.00    -0.211 N 
ATOM     10  N   UNL     1       0.164  -0.790   1.304  0.00  0.00    -0.250 N 
ATOM     11  H   UNL     1       0.188  -0.565   2.247  0.00  0.00    +0.171 HD
ATOM     12  H   UNL     1       0.040  -2.785  -2.376  0.00  0.00    +0.169 HD
ATOM     13  H   UNL     1       0.148  -0.183  -1.747  0.00  0.00    +0.169 HD
ENDROOT
BRANCH   8  14
ATOM     14  C   UNL     1      -1.161  -3.521   2.196  0.00  0.00    +0.028 A 
ATOM     15  C   UNL     1      -1.038  -3.983   3.517  0.00  0.00    -0.009 A 
ATOM     16  C   UNL     1       0.208  -4.367   4.043  0.00  0.00    +0.009 A 
ATOM     17  C   UNL     1       0.289  -4.810   5.327  0.00  0.00    +0.001 A 
ATOM     18  C   UNL     1      -0.846  -4.890   6.131  0.00  0.00    +0.001 A 
ATOM     19  C   UNL     1      -2.069  -4.528   5.657  0.00  0.00    +0.008 A 
ATOM     20  C   UNL     1      -2.193  -4.065   4.336  0.00  0.00    -0.017 A 
ATOM     21  C   UNL     1      -3.440  -3.682   3.812  0.00  0.00    +0.012 A 
ATOM     22  C   UNL     1      -3.525  -3.238   2.529  0.00  0.00    +0.046 A 
ATOM     23  C   UNL     1      -2.387  -3.152   1.721  0.00  0.00    +0.123 A 
BRANCH  23  24
ATOM     24  O   UNL     1      -2.503  -2.699   0.445  0.00  0.00    -0.506 OA
ATOM     25  H   UNL     1      -2.677  -3.394  -0.204  0.00  0.00    +0.292 HD
ENDBRANCH  23  24
ENDBRANCH   8  14
BRANCH   6  26
ATOM     26  C   UNL     1      -0.055  -5.322  -2.005  0.00  0.00    +0.402 C 
ATOM     27  O   UNL     1      -0.097  -6.491  -1.646  0.00  0.00    -0.239 OA
ATOM     28  OXT UNL     1      -0.058  -5.048  -3.197  0.00  0.00    -0.239 OA
ENDBRANCH   6  26
TORSDOF 3
