REMARK  Name = ZINC02857252
REMARK  10 active torsions:
REMARK  status: ('A' for Active; 'I' for Inactive)
REMARK    1  A    between atoms: C_1  and  N_63
REMARK    2  A    between atoms: C_2  and  N_63
REMARK    3  A    between atoms: C_3  and  C_4
REMARK    4  A    between atoms: C_3  and  N_63
REMARK    5  A    between atoms: C_4  and  C_5
REMARK    6  A    between atoms: C_5  and  N_6
REMARK    7  A    between atoms: C_7  and  C_23
REMARK    8  A    between atoms: C_27  and  O_29
REMARK    9  A    between atoms: O_29  and  C_30
REMARK   10  A    between atoms: C_30  and  C_31
REMARK                            x       y       z     vdW  Elec       q    Type
REMARK                         _______ _______ _______ _____ _____    ______ ____
ROOT
ATOM      1  N   UNL     1      -0.755   3.484   1.277  0.00  0.00    -0.284 N 
ATOM      2  C   UNL     1      -1.800   4.337   0.698  0.00  0.00    +0.145 C 
ATOM      3  C   UNL     1      -1.370   5.756   0.960  0.00  0.00    +0.072 A 
ATOM      4  C   UNL     1      -1.973   7.053   0.636  0.00  0.00    +0.199 A 
ATOM      5  O   UNL     1      -3.032   7.134   0.039  0.00  0.00    -0.287 OA
ATOM      6  C   UNL     1      -1.233   8.254   1.069  0.00  0.00    +0.066 A 
ATOM      7  C   UNL     1      -1.716   9.537   0.812  0.00  0.00    +0.035 A 
ATOM      8  C   UNL     1      -0.993  10.631   1.236  0.00  0.00    +0.042 A 
ATOM      9  C   UNL     1       0.209  10.456   1.911  0.00  0.00    +0.023 A 
ATOM     10  C   UNL     1       0.695   9.194   2.169  0.00  0.00    +0.048 A 
ATOM     11  C   UNL     1      -0.019   8.073   1.752  0.00  0.00    +0.140 A 
ATOM     12  O   UNL     1       0.447   6.836   1.999  0.00  0.00    -0.450 OA
ATOM     13  C   UNL     1      -0.190   5.709   1.625  0.00  0.00    +0.199 A 
ATOM     14  C   UNL     1       0.178   4.284   1.821  0.00  0.00    +0.283 C 
ATOM     15  O   UNL     1       1.180   3.897   2.390  0.00  0.00    -0.267 OA
ATOM     16 CL   UNL     1      -1.584  12.233   0.923  0.00  0.00    -0.084 Cl
ENDROOT
BRANCH   2  17
ATOM     17  C   UNL     1      -3.123   4.063   1.367  0.00  0.00    -0.019 A 
ATOM     18  C   UNL     1      -3.175   3.847   2.732  0.00  0.00    +0.006 A 
ATOM     19  C   UNL     1      -4.387   3.600   3.349  0.00  0.00    +0.004 A 
ATOM     20  C   UNL     1      -5.548   3.560   2.602  0.00  0.00    +0.045 A 
ATOM     21  C   UNL     1      -5.498   3.771   1.232  0.00  0.00    +0.121 A 
ATOM     22  C   UNL     1      -4.281   4.023   0.616  0.00  0.00    +0.051 A 
BRANCH  21  23
ATOM     23  O   UNL     1      -6.639   3.732   0.495  0.00  0.00    -0.487 OA
BRANCH  23  24
ATOM     24  C   UNL     1      -7.856   3.467   1.197  0.00  0.00    +0.264 C 
BRANCH  24  25
ATOM     25  C   UNL     1      -9.006   3.462   0.223  0.00  0.00    -0.010 A 
ATOM     26  C   UNL     1      -9.691   4.633  -0.043  0.00  0.00    +0.007 A 
ATOM     27  C   UNL     1     -10.743   4.629  -0.940  0.00  0.00    +0.000 A 
ATOM     28  C   UNL     1     -11.116   3.453  -1.563  0.00  0.00    +0.000 A 
ATOM     29  C   UNL     1     -10.434   2.281  -1.293  0.00  0.00    +0.000 A 
ATOM     30  C   UNL     1      -9.379   2.286  -0.400  0.00  0.00    +0.007 A 
ENDBRANCH  24  25
ENDBRANCH  23  24
ENDBRANCH  21  23
ENDBRANCH   2  17
BRANCH   1  31
ATOM     31  C   UNL     1      -0.735   2.019   1.269  0.00  0.00    +0.107 C 
BRANCH  31  32
ATOM     32  C   UNL     1      -0.019   1.526   0.010  0.00  0.00    +0.000 C 
BRANCH  32  33
ATOM     33  C   UNL     1       0.002  -0.004   0.002  0.00  0.00    -0.078 C 
BRANCH  33  36
ATOM     34  C   UNL     1       0.939  -1.924  -1.138  0.00  0.00    -0.097 C 
ATOM     35  C   UNL     1      -0.071  -0.132  -2.415  0.00  0.00    -0.097 C 
ATOM     36  N   UNL     1       0.715  -0.465  -1.208  0.00  0.00    +0.376 N 
ATOM     37  H   UNL     1       1.624   0.010  -1.261  0.00  0.00    -0.083 HD
ENDBRANCH  33  36
ENDBRANCH  32  33
ENDBRANCH  31  32
ENDBRANCH   1  31
TORSDOF 8
