REMARK  Name = ZINC08928005
REMARK  9 active torsions:
REMARK  status: ('A' for Active; 'I' for Inactive)
REMARK    1  A    between atoms: C_1  and  C_2
REMARK    2  A    between atoms: C_2  and  N_58
REMARK    3  A    between atoms: C_10  and  O_33
REMARK    4  A    between atoms: C_12  and  C_15
REMARK    5  A    between atoms: C_18  and  O_23
REMARK    6  A    between atoms: C_19  and  O_21
REMARK    7  A    between atoms: O_21  and  C_22
REMARK    8  A    between atoms: O_23  and  C_24
REMARK    9  A    between atoms: C_24  and  C_26
REMARK                            x       y       z     vdW  Elec       q    Type
REMARK                         _______ _______ _______ _____ _____    ______ ____
ROOT
ATOM      1  C   UNL     1      -6.784  -4.964   6.569  0.00  0.00    -0.074 C 
ATOM      2  C   UNL     1      -6.942  -5.584   5.178  0.00  0.00    +0.018 C 
ATOM      3  C   UNL     1      -7.242  -4.463   4.189  0.00  0.00    -0.027 A 
ATOM      4  C   UNL     1      -7.672  -3.260   4.640  0.00  0.00    -0.021 A 
ATOM      5  S   UNL     1      -7.890  -2.278   3.181  0.00  0.00    -0.080 S 
ATOM      6  C   UNL     1      -7.427  -3.437   2.010  0.00  0.00    +0.080 A 
ATOM      7  C   UNL     1      -7.097  -4.580   2.750  0.00  0.00    +0.067 A 
ATOM      8  C   UNL     1      -6.639  -5.772   1.992  0.00  0.00    +0.220 C 
ATOM      9  N   UNL     1      -6.382  -5.623   0.724  0.00  0.00    -0.223 NA
ATOM     10  C   UNL     1      -6.413  -4.352   0.011  0.00  0.00    +0.224 C 
ATOM     11  N   UNL     1      -7.347  -3.400   0.638  0.00  0.00    -0.313 N 
ATOM     12  C   UNL     1      -7.904  -2.876   6.067  0.00  0.00    -0.035 C 
ATOM     13  H   UNL     1      -7.877  -2.780   0.112  0.00  0.00    +0.149 HD
ATOM     14  N   UNL     1      -7.960  -4.123   6.869  0.00  0.00    +0.383 N 
ATOM     15  H   UNL     1      -8.812  -4.640   6.624  0.00  0.00    -0.081 HD
ENDROOT
BRANCH  10  16
ATOM     16  C   UNL     1      -5.030  -3.755   0.009  0.00  0.00    -0.002 A 
ATOM     17  C   UNL     1      -4.871  -2.383  -0.039  0.00  0.00    +0.011 A 
ATOM     18  C   UNL     1      -3.604  -1.830  -0.036  0.00  0.00    +0.050 A 
ATOM     19  C   UNL     1      -2.489  -2.652   0.004  0.00  0.00    +0.173 A 
ATOM     20  C   UNL     1      -2.649  -4.034   0.052  0.00  0.00    +0.163 A 
ATOM     21  C   UNL     1      -3.922  -4.581   0.054  0.00  0.00    +0.056 A 
BRANCH  20  22
ATOM     22  O   UNL     1      -1.559  -4.845   0.097  0.00  0.00    -0.491 OA
ATOM     23  C   UNL     1      -1.799  -6.253   0.144  0.00  0.00    +0.277 C 
ENDBRANCH  20  22
BRANCH  19  24
ATOM     24  O   UNL     1      -1.242  -2.110   0.002  0.00  0.00    -0.419 OA
BRANCH  24  25
ATOM     25  C   UNL     1      -0.631  -1.986  -1.192  0.00  0.00    +0.346 C 
ATOM     26  O   UNL     1      -1.155  -2.434  -2.192  0.00  0.00    -0.244 OA
BRANCH  25  27
ATOM     27  C   UNL     1       0.675  -1.304  -1.285  0.00  0.00    +0.078 A 
ATOM     28  C   UNL     1       1.281  -0.788  -0.138  0.00  0.00    +0.016 A 
ATOM     29  C   UNL     1       2.502  -0.153  -0.232  0.00  0.00    +0.001 A 
ATOM     30  C   UNL     1       3.127  -0.027  -1.460  0.00  0.00    +0.001 A 
ATOM     31  C   UNL     1       2.535  -0.535  -2.601  0.00  0.00    +0.021 A 
ATOM     32  C   UNL     1       1.312  -1.173  -2.522  0.00  0.00    +0.055 A 
ATOM     33 CL   UNL     1       0.572  -1.818  -3.955  0.00  0.00    -0.083 Cl
ENDBRANCH  25  27
ENDBRANCH  24  25
ENDBRANCH  19  24
ENDBRANCH  10  16
BRANCH  14  35
ATOM     34  C   UNL     1      -9.325  -3.112   8.632  0.00  0.00    -0.017 C 
ATOM     35  C   UNL     1      -7.995  -3.796   8.311  0.00  0.00    -0.082 C 
ENDBRANCH  14  35
BRANCH   8  36
ATOM     36  O   UNL     1      -6.494  -6.973   2.599  0.00  0.00    -0.492 OA
ATOM     37  H   UNL     1      -6.191  -7.677   2.010  0.00  0.00    +0.294 HD
ENDBRANCH   8  36
TORSDOF 7
