REMARK  Name = ZINC22966174
REMARK  9 active torsions:
REMARK  status: ('A' for Active; 'I' for Inactive)
REMARK    1  A    between atoms: C_1  and  N_2
REMARK    2  A    between atoms: N_2  and  C_3
REMARK    3  A    between atoms: N_2  and  C_14
REMARK    4  A    between atoms: C_3  and  C_4
REMARK    5  A    between atoms: C_9  and  C_10
REMARK    6  A    between atoms: C_14  and  C_15
REMARK    7  A    between atoms: N_21  and  C_22
REMARK    8  A    between atoms: C_27  and  O_28
REMARK    9  A    between atoms: O_28  and  C_29
REMARK                            x       y       z     vdW  Elec       q    Type
REMARK                         _______ _______ _______ _____ _____    ______ ____
ROOT
ATOM      1  C   UNL     1      -3.303  -2.602  -2.283  0.00  0.00    +0.120 A 
ATOM      2  N   UNL     1      -4.015  -1.741  -2.990  0.00  0.00    -0.202 NA
ATOM      3  C   UNL     1      -4.199  -1.939  -4.293  0.00  0.00    +0.217 A 
ATOM      4  N   UNL     1      -3.675  -3.009  -4.881  0.00  0.00    -0.181 NA
ATOM      5  C   UNL     1      -2.964  -3.874  -4.167  0.00  0.00    +0.224 A 
ATOM      6  N   UNL     1      -2.780  -3.667  -2.864  0.00  0.00    -0.201 NA
ATOM      7  N   UNL     1      -2.416  -4.987  -4.773  0.00  0.00    -0.281 N 
ATOM      8  N   UNL     1      -4.938  -1.037  -5.032  0.00  0.00    -0.327 N 
ATOM      9  H   UNL     1      -1.741  -5.646  -4.207  0.00  0.00    +0.155 HD
ATOM     10  H   UNL     1      -5.090  -1.202  -6.109  0.00  0.00    +0.145 HD
ATOM     11  H   UNL     1      -5.376  -0.154  -4.543  0.00  0.00    +0.145 HD
ENDROOT
BRANCH   7  12
ATOM     12  C   UNL     1      -2.720  -5.277  -6.109  0.00  0.00    +0.076 A 
ATOM     13  C   UNL     1      -3.909  -4.828  -6.665  0.00  0.00    +0.027 A 
ATOM     14  C   UNL     1      -4.205  -5.112  -7.985  0.00  0.00    +0.002 A 
ATOM     15  C   UNL     1      -3.324  -5.852  -8.751  0.00  0.00    +0.004 A 
ATOM     16  C   UNL     1      -2.139  -6.307  -8.203  0.00  0.00    +0.047 A 
ATOM     17  C   UNL     1      -1.833  -6.023  -6.882  0.00  0.00    +0.141 A 
BRANCH  17  18
ATOM     18  O   UNL     1      -0.668  -6.470  -6.341  0.00  0.00    -0.493 OA
ATOM     19  C   UNL     1       0.194  -7.228  -7.192  0.00  0.00    +0.277 C 
ENDBRANCH  17  18
ENDBRANCH   7  12
BRANCH   1  20
ATOM     20  C   UNL     1      -3.093  -2.371  -0.809  0.00  0.00    -0.001 C 
BRANCH  20  22
ATOM     21  C   UNL     1      -2.028  -0.224  -1.153  0.00  0.00    -0.095 C 
ATOM     22  N   UNL     1      -1.873  -1.579  -0.606  0.00  0.00    +0.385 N 
ATOM     23  H   UNL     1      -1.055  -2.072  -1.152  0.00  0.00    -0.081 HD
BRANCH  22  24
ATOM     24  C   UNL     1      -1.505  -1.533   0.815  0.00  0.00    -0.042 C 
BRANCH  24  25
ATOM     25  C   UNL     1      -0.129  -0.935   0.959  0.00  0.00    -0.052 A 
ATOM     26  C   UNL     1       0.014   0.395   1.308  0.00  0.00    +0.002 A 
ATOM     27  C   UNL     1       1.276   0.943   1.440  0.00  0.00    +0.000 A 
ATOM     28  C   UNL     1       2.395   0.162   1.223  0.00  0.00    +0.001 A 
ATOM     29  C   UNL     1       2.253  -1.168   0.874  0.00  0.00    +0.012 A 
ATOM     30  C   UNL     1       0.990  -1.717   0.742  0.00  0.00    +0.056 A 
BRANCH  30  31
ATOM     31  C   UNL     1       0.835  -3.168   0.368  0.00  0.00    +0.418 C 
ATOM     32  F   UNL     1       2.099  -3.743   0.193  0.00  0.00    -0.166 F 
ATOM     33  F   UNL     1       0.154  -3.842   1.388  0.00  0.00    -0.166 F 
ATOM     34  F   UNL     1       0.108  -3.268  -0.823  0.00  0.00    -0.166 F 
ENDBRANCH  30  31
ENDBRANCH  24  25
ENDBRANCH  22  24
ENDBRANCH  20  22
ENDBRANCH   1  20
TORSDOF 7
