REMARK  Name = ZINC41020385
REMARK  12 active torsions:
REMARK  status: ('A' for Active; 'I' for Inactive)
REMARK    1  A    between atoms: C_1  and  C_2
REMARK    2  A    between atoms: C_2  and  C_3
REMARK    3  A    between atoms: C_3  and  C_4
REMARK    4  A    between atoms: C_4  and  S_5
REMARK    5  A    between atoms: S_5  and  C_6
REMARK    6  A    between atoms: C_11  and  C_29
REMARK    7  A    between atoms: C_13  and  C_17
REMARK    8  A    between atoms: C_14  and  C_16
REMARK    9  A    between atoms: N_19  and  C_20
REMARK   10  A    between atoms: C_25  and  O_26
REMARK   11  A    between atoms: O_26  and  C_27
REMARK   12  A    between atoms: C_27  and  C_28
REMARK                            x       y       z     vdW  Elec       q    Type
REMARK                         _______ _______ _______ _____ _____    ______ ____
ROOT
ATOM      1  C   UNL     1       1.719  -4.365  -2.560  0.00  0.00    +0.210 A 
ATOM      2  N   UNL     1       1.117  -5.059  -1.583  0.00  0.00    -0.187 NA
ATOM      3  C   UNL     1       1.232  -6.337  -1.821  0.00  0.00    +0.219 A 
ATOM      4  N   UNL     1       1.919  -6.490  -2.980  0.00  0.00    -0.220 N 
ATOM      5  N   UNL     1       2.219  -5.208  -3.438  0.00  0.00    -0.141 NA
ATOM      6  C   UNL     1       2.231  -7.789  -3.569  0.00  0.00    +0.177 C 
ATOM      7  C   UNL     1       1.948  -8.876  -2.566  0.00  0.00    +0.060 C 
ATOM      8  C   UNL     1       1.264  -8.665  -1.432  0.00  0.00    +0.018 C 
ATOM      9  N   UNL     1       0.777  -7.427  -1.091  0.00  0.00    -0.287 N 
ATOM     10  C   UNL     1       1.023  -9.824  -0.500  0.00  0.00    +0.061 C 
ATOM     11  H   UNL     1       0.139  -7.318  -0.368  0.00  0.00    +0.155 HD
ENDROOT
BRANCH   6  12
ATOM     12  C   UNL     1       1.381  -8.003  -4.795  0.00  0.00    -0.018 A 
ATOM     13  C   UNL     1       0.003  -8.002  -4.688  0.00  0.00    +0.007 A 
ATOM     14  C   UNL     1      -0.778  -8.197  -5.812  0.00  0.00    +0.020 A 
ATOM     15  C   UNL     1      -0.180  -8.394  -7.044  0.00  0.00    +0.041 A 
ATOM     16  C   UNL     1       1.200  -8.395  -7.150  0.00  0.00    +0.020 A 
ATOM     17  C   UNL     1       1.979  -8.194  -6.026  0.00  0.00    +0.007 A 
ATOM     18 CL   UNL     1      -1.159  -8.641  -8.456  0.00  0.00    -0.084 Cl
ENDBRANCH   6  12
BRANCH   7  19
ATOM     19  C   UNL     1       2.425 -10.181  -2.833  0.00  0.00    +0.248 C 
ATOM     20  O   UNL     1       3.607 -10.438  -2.692  0.00  0.00    -0.270 OA
ATOM     21  N   UNL     1       1.571 -11.139  -3.244  0.00  0.00    -0.279 N 
ATOM     22  H   UNL     1       0.642 -10.920  -3.416  0.00  0.00    +0.155 HD
BRANCH  21  23
ATOM     23  C   UNL     1       2.025 -12.453  -3.421  0.00  0.00    +0.076 A 
ATOM     24  C   UNL     1       3.312 -12.687  -3.882  0.00  0.00    +0.027 A 
ATOM     25  C   UNL     1       3.758 -13.983  -4.056  0.00  0.00    +0.002 A 
ATOM     26  C   UNL     1       2.924 -15.049  -3.772  0.00  0.00    +0.004 A 
ATOM     27  C   UNL     1       1.640 -14.823  -3.312  0.00  0.00    +0.047 A 
ATOM     28  C   UNL     1       1.187 -13.527  -3.130  0.00  0.00    +0.142 A 
BRANCH  28  29
ATOM     29  O   UNL     1      -0.074 -13.303  -2.672  0.00  0.00    -0.490 OA
BRANCH  29  30
ATOM     30  C   UNL     1      -0.876 -14.452  -2.394  0.00  0.00    +0.226 C 
ATOM     31  C   UNL     1      -2.251 -14.005  -1.894  0.00  0.00    +0.048 C 
ENDBRANCH  29  30
ENDBRANCH  28  29
ENDBRANCH  21  23
ENDBRANCH   7  19
BRANCH   1  32
ATOM     32  S   UNL     1       1.817  -2.609  -2.657  0.00  0.00    -0.084 S 
BRANCH  32  33
ATOM     33  C   UNL     1       0.950  -2.038  -1.170  0.00  0.00    +0.077 C 
BRANCH  33  34
ATOM     34  C   UNL     1       0.961  -0.509  -1.128  0.00  0.00    +0.011 C 
BRANCH  34  36
ATOM     35  C   UNL     1       0.240   1.502   0.169  0.00  0.00    +0.004 C 
ATOM     36  C   UNL     1       0.229  -0.028   0.127  0.00  0.00    -0.003 C 
ENDBRANCH  34  36
ENDBRANCH  33  34
ENDBRANCH  32  33
ENDBRANCH   1  32
TORSDOF 9
