REMARK  Name = ZINC39653082
REMARK  9 active torsions:
REMARK  status: ('A' for Active; 'I' for Inactive)
REMARK    1  A    between atoms: C_1  and  O_2
REMARK    2  A    between atoms: O_2  and  C_3
REMARK    3  A    between atoms: C_5  and  C_11
REMARK    4  A    between atoms: C_7  and  O_9
REMARK    5  A    between atoms: O_9  and  C_10
REMARK    6  A    between atoms: C_11  and  C_12
REMARK    7  A    between atoms: C_12  and  N_13
REMARK    8  A    between atoms: C_14  and  C_16
REMARK    9  A    between atoms: C_27  and  C_29
REMARK                            x       y       z     vdW  Elec       q    Type
REMARK                         _______ _______ _______ _____ _____    ______ ____
ROOT
ATOM      1  C   UNL     1      -2.231  -8.746   2.597  0.00  0.00    +0.100 C 
ATOM      2  C   UNL     1      -3.647  -9.016   2.041  0.00  0.00    +0.121 C 
ATOM      3  N   UNL     1      -4.182 -10.105   2.891  0.00  0.00    -0.296 N 
ATOM      4  C   UNL     1      -3.710  -9.772   4.257  0.00  0.00    +0.115 C 
ATOM      5  C   UNL     1      -2.277  -9.244   4.052  0.00  0.00    -0.004 C 
ATOM      6  C   UNL     1      -1.265 -10.367   4.258  0.00  0.00    -0.010 C 
ATOM      7  C   UNL     1      -1.290 -10.806   5.725  0.00  0.00    -0.082 C 
ATOM      8  N   UNL     1      -0.964  -9.663   6.586  0.00  0.00    +0.379 N 
ATOM      9  C   UNL     1      -1.992  -8.624   6.450  0.00  0.00    -0.082 C 
ATOM     10  C   UNL     1      -1.997  -8.093   5.014  0.00  0.00    -0.010 C 
ATOM     11  C   UNL     1      -4.929 -11.159   2.509  0.00  0.00    +0.249 C 
ATOM     12  O   UNL     1      -5.374 -11.924   3.344  0.00  0.00    -0.270 OA
ATOM     13  H   UNL     1      -0.920  -9.968   7.546  0.00  0.00    -0.086 HD
ATOM     14  H   UNL     1      -0.068  -9.285   6.315  0.00  0.00    -0.086 HD
ENDROOT
BRANCH  11  15
ATOM     15  C   UNL     1      -5.208 -11.387   1.077  0.00  0.00    +0.073 A 
ATOM     16  C   UNL     1      -5.387 -10.302   0.215  0.00  0.00    +0.016 A 
ATOM     17  C   UNL     1      -5.646 -10.520  -1.121  0.00  0.00    +0.002 A 
ATOM     18  C   UNL     1      -5.730 -11.812  -1.612  0.00  0.00    +0.023 A 
ATOM     19  C   UNL     1      -5.555 -12.893  -0.768  0.00  0.00    +0.077 A 
ATOM     20  C   UNL     1      -5.288 -12.689   0.575  0.00  0.00    +0.154 A 
ATOM     21  F   UNL     1      -5.112 -13.745   1.399  0.00  0.00    -0.203 F 
ATOM     22 CL   UNL     1      -5.662 -14.509  -1.395  0.00  0.00    -0.081 Cl
ENDBRANCH  11  15
BRANCH   1  24
ATOM     23  N   UNL     1      -0.649  -6.852   2.424  0.00  0.00    -0.315 N 
ATOM     24  C   UNL     1      -1.923  -7.271   2.557  0.00  0.00    +0.218 C 
ATOM     25  O   UNL     1      -2.821  -6.462   2.643  0.00  0.00    -0.275 OA
ATOM     26  H   UNL     1       0.070  -7.500   2.355  0.00  0.00    +0.149 HD
BRANCH  23  27
ATOM     27  C   UNL     1      -0.349  -5.419   2.385  0.00  0.00    +0.109 C 
BRANCH  27  28
ATOM     28  C   UNL     1       1.159  -5.217   2.230  0.00  0.00    +0.054 C 
BRANCH  28  31
ATOM     29  C   UNL     1       2.014  -1.702   3.327  0.00  0.00    +0.124 A 
ATOM     30  C   UNL     1       1.730  -3.060   3.362  0.00  0.00    +0.049 A 
ATOM     31  C   UNL     1       1.467  -3.742   2.189  0.00  0.00    -0.039 A 
ATOM     32  C   UNL     1       1.487  -3.075   0.979  0.00  0.00    +0.049 A 
ATOM     33  C   UNL     1       1.770  -1.717   0.939  0.00  0.00    +0.124 A 
ATOM     34  C   UNL     1       2.028  -1.029   2.115  0.00  0.00    +0.091 A 
BRANCH  29  36
ATOM     35  C   UNL     1       2.551   0.366   4.370  0.00  0.00    +0.277 C 
ATOM     36  O   UNL     1       2.272  -1.031   4.480  0.00  0.00    -0.495 OA
ENDBRANCH  29  36
BRANCH  33  37
ATOM     37  O   UNL     1       1.790  -1.061  -0.251  0.00  0.00    -0.495 OA
ATOM     38  C   UNL     1       2.089   0.336  -0.217  0.00  0.00    +0.277 C 
ENDBRANCH  33  37
ENDBRANCH  28  31
ENDBRANCH  27  28
ENDBRANCH  23  27
ENDBRANCH   1  24
TORSDOF 7
