REMARK  Name = ZINC12602950
REMARK  7 active torsions:
REMARK  status: ('A' for Active; 'I' for Inactive)
REMARK    1  A    between atoms: C_1  and  O_2
REMARK    2  A    between atoms: O_2  and  C_3
REMARK    3  A    between atoms: C_3  and  C_5
REMARK    4  A    between atoms: C_21  and  C_34
REMARK    5  A    between atoms: C_24  and  N_27
REMARK    6  A    between atoms: N_27  and  C_28
REMARK    7  A    between atoms: C_28  and  C_29
REMARK                            x       y       z     vdW  Elec       q    Type
REMARK                         _______ _______ _______ _____ _____    ______ ____
ROOT
ATOM      1  C   UNL     1      -0.387   3.467  -1.868  0.00  0.00    +0.172 C 
ATOM      2  C   UNL     1      -1.859   3.556  -2.297  0.00  0.00    +0.068 C 
ATOM      3  C   UNL     1      -2.304   4.990  -2.156  0.00  0.00    -0.016 A 
ATOM      4  C   UNL     1      -3.470   5.644  -2.705  0.00  0.00    +0.003 A 
ATOM      5  C   UNL     1      -4.524   5.194  -3.506  0.00  0.00    +0.010 A 
ATOM      6  C   UNL     1      -5.484   6.115  -3.846  0.00  0.00    +0.001 A 
ATOM      7  C   UNL     1      -5.422   7.433  -3.422  0.00  0.00    +0.002 A 
ATOM      8  C   UNL     1      -4.391   7.906  -2.628  0.00  0.00    +0.026 A 
ATOM      9  C   UNL     1      -3.403   6.993  -2.267  0.00  0.00    +0.047 A 
ATOM     10  N   UNL     1      -2.272   7.120  -1.511  0.00  0.00    -0.356 N 
ATOM     11  H   UNL     1      -2.017   8.091  -1.062  0.00  0.00    +0.166 HD
ATOM     12  C   UNL     1      -1.620   5.919  -1.449  0.00  0.00    +0.038 A 
ATOM     13  C   UNL     1      -0.334   5.611  -0.723  0.00  0.00    +0.103 C 
ATOM     14  N   UNL     1      -0.211   4.152  -0.584  0.00  0.00    -0.274 NA
ATOM     15  C   UNL     1       1.058   3.791   0.058  0.00  0.00    +0.090 C 
ATOM     16  C   UNL     1       1.095   4.378   1.472  0.00  0.00    +0.008 C 
ATOM     17  C   UNL     1       0.948   5.900   1.396  0.00  0.00    -0.068 C 
ATOM     18  C   UNL     1      -0.354   6.249   0.667  0.00  0.00    +0.009 C 
ENDROOT
BRANCH  15  19
ATOM     19  C   UNL     1       1.174   2.290   0.134  0.00  0.00    +0.005 A 
ATOM     20  C   UNL     1       2.356   1.669  -0.226  0.00  0.00    +0.008 A 
ATOM     21  C   UNL     1       2.463   0.293  -0.156  0.00  0.00    +0.000 A 
ATOM     22  C   UNL     1       1.389  -0.464   0.274  0.00  0.00    +0.003 A 
ATOM     23  C   UNL     1       0.207   0.154   0.634  0.00  0.00    +0.038 A 
ATOM     24  C   UNL     1       0.098   1.533   0.565  0.00  0.00    +0.128 A 
ATOM     25  F   UNL     1      -1.057   2.139   0.916  0.00  0.00    -0.205 F 
ENDBRANCH  15  19
BRANCH  17  26
ATOM     26  N   UNL     1       2.087   6.467   0.663  0.00  0.00    +0.384 N 
ATOM     27  H   UNL     1       2.391   5.774  -0.136  0.00  0.00    -0.085 HD
ATOM     28  H   UNL     1       1.796   7.431   0.221  0.00  0.00    -0.085 HD
BRANCH  26  29
ATOM     29  C   UNL     1       3.232   6.686   1.556  0.00  0.00    -0.039 C 
BRANCH  29  30
ATOM     30  C   UNL     1       4.380   7.266   0.770  0.00  0.00    -0.027 A 
ATOM     31  C   UNL     1       4.681   8.567   0.534  0.00  0.00    +0.009 A 
ATOM     32  C   UNL     1       5.797   8.870  -0.223  0.00  0.00    +0.008 A 
ATOM     33  C   UNL     1       6.557   7.857  -0.707  0.00  0.00    +0.045 A 
ATOM     34  S   UNL     1       5.699   6.421  -0.085  0.00  0.00    -0.104 S 
ENDBRANCH  29  30
ENDBRANCH  26  29
ENDBRANCH  17  26
BRANCH   1  35
ATOM     35  C   UNL     1       0.481   4.123  -2.911  0.00  0.00    +0.325 C 
ATOM     36  O   UNL     1       1.310   4.937  -2.581  0.00  0.00    -0.249 OA
BRANCH  35  38
ATOM     37  C   UNL     1       1.203   4.473  -5.155  0.00  0.00    +0.280 C 
ATOM     38  O   UNL     1       0.333   3.802  -4.206  0.00  0.00    -0.467 OA
ENDBRANCH  35  38
ENDBRANCH   1  35
TORSDOF 6
