REMARK  Name = ZINC09512137
REMARK  8 active torsions:
REMARK  status: ('A' for Active; 'I' for Inactive)
REMARK    1  A    between atoms: C_1  and  C_2
REMARK    2  A    between atoms: C_7  and  N_8
REMARK    3  A    between atoms: C_13  and  C_15
REMARK    4  A    between atoms: C_13  and  C_16
REMARK    5  A    between atoms: C_13  and  N_64
REMARK    6  A    between atoms: N_18  and  C_19
REMARK    7  A    between atoms: C_22  and  S_25
REMARK    8  A    between atoms: S_25  and  N_28
REMARK                            x       y       z     vdW  Elec       q    Type
REMARK                         _______ _______ _______ _____ _____    ______ ____
ROOT
ATOM      1  C   UNL     1      -2.687   4.157   5.518  0.00  0.00    +0.203 C 
ATOM      2  O   UNL     1      -2.057   4.983   4.892  0.00  0.00    -0.277 OA
ATOM      3  N   UNL     1      -2.655   2.862   5.146  0.00  0.00    -0.287 N 
ATOM      4  H   UNL     1      -3.209   2.211   5.606  0.00  0.00    +0.155 HD
ENDROOT
BRANCH   3   5
ATOM      5  C   UNL     1      -1.824   2.455   4.097  0.00  0.00    +0.033 A 
ATOM      6  C   UNL     1      -1.616   3.293   3.009  0.00  0.00    +0.025 A 
ATOM      7  C   UNL     1      -0.794   2.889   1.975  0.00  0.00    +0.030 A 
ATOM      8  C   UNL     1      -0.179   1.651   2.022  0.00  0.00    +0.106 A 
ATOM      9  C   UNL     1      -0.389   0.812   3.101  0.00  0.00    +0.030 A 
ATOM     10  C   UNL     1      -1.205   1.213   4.141  0.00  0.00    +0.025 A 
BRANCH   8  11
ATOM     11  S   UNL     1       0.868   1.140   0.701  0.00  0.00    +0.061 S 
ATOM     12  O   UNL     1       0.464   1.875  -0.446  0.00  0.00    -0.153 OA
ATOM     13  O   UNL     1       0.890  -0.281   0.727  0.00  0.00    -0.153 OA
BRANCH  11  14
ATOM     14  N   UNL     1       2.402   1.643   1.069  0.00  0.00    -0.177 NA
ATOM     15  C   UNL     1       2.994   2.935   0.691  0.00  0.00    +0.109 C 
ATOM     16  C   UNL     1       4.441   2.951   1.226  0.00  0.00    +0.018 C 
ATOM     17  C   UNL     1       4.771   1.442   1.375  0.00  0.00    +0.018 C 
ATOM     18  C   UNL     1       3.403   0.868   1.824  0.00  0.00    +0.109 C 
ENDBRANCH  11  14
ENDBRANCH   8  11
ENDBRANCH   3   5
BRANCH   1  19
ATOM     19  C   UNL     1      -3.504   4.578   6.712  0.00  0.00    +0.017 C 
ATOM     20  C   UNL     1      -4.991   4.541   6.351  0.00  0.00    -0.004 C 
BRANCH  19  26
ATOM     21  N   UNL     1      -3.633   8.637   7.877  0.00  0.00    -0.333 N 
ATOM     22  C   UNL     1      -3.141   8.323   6.528  0.00  0.00    +0.086 C 
ATOM     23  C   UNL     1      -3.618   6.926   6.126  0.00  0.00    -0.059 C 
ATOM     24  C   UNL     1      -3.622   6.257   8.453  0.00  0.00    -0.059 C 
ATOM     25  C   UNL     1      -3.144   7.655   8.855  0.00  0.00    +0.086 C 
ATOM     26  N   UNL     1      -3.102   5.946   7.105  0.00  0.00    +0.389 N 
ATOM     27  H   UNL     1      -2.076   6.000   7.122  0.00  0.00    -0.081 HD
BRANCH  21  34
ATOM     28  C   UNL     1      -5.715  10.476   8.488  0.00  0.00    +0.045 C 
ATOM     29  C   UNL     1      -4.261  10.865   8.558  0.00  0.00    -0.029 A 
ATOM     30  C   UNL     1      -3.906  12.148   8.927  0.00  0.00    +0.006 A 
ATOM     31  C   UNL     1      -2.572  12.507   8.992  0.00  0.00    +0.020 A 
ATOM     32  C   UNL     1      -1.588  11.582   8.686  0.00  0.00    +0.043 A 
ATOM     33  C   UNL     1      -1.937  10.296   8.320  0.00  0.00    +0.043 A 
ATOM     34  C   UNL     1      -3.277   9.935   8.250  0.00  0.00    +0.034 A 
ATOM     35 CL   UNL     1       0.085  12.037   8.769  0.00  0.00    -0.083 Cl
ENDBRANCH  21  34
ENDBRANCH  19  26
ENDBRANCH   1  19
TORSDOF 6
