REMARK  Name = ZINC16034002
REMARK  7 active torsions:
REMARK  status: ('A' for Active; 'I' for Inactive)
REMARK    1  A    between atoms: C_1  and  C_2
REMARK    2  A    between atoms: C_2  and  C_4
REMARK    3  A    between atoms: C_2  and  N_10
REMARK    4  A    between atoms: C_11  and  C_13
REMARK    5  A    between atoms: C_13  and  C_15
REMARK    6  A    between atoms: C_13  and  N_16
REMARK    7  A    between atoms: C_17  and  C_19
REMARK                            x       y       z     vdW  Elec       q    Type
REMARK                         _______ _______ _______ _____ _____    ______ ____
ROOT
ATOM      1  N   UNL     1      -3.798  -2.024   2.354  0.00  0.00    -0.306 N 
ATOM      2  C   UNL     1      -4.787  -2.882   2.031  0.00  0.00    +0.200 C 
ATOM      3  O   UNL     1      -5.660  -2.538   1.263  0.00  0.00    -0.278 OA
ATOM      4  H   UNL     1      -3.099  -2.299   2.968  0.00  0.00    +0.149 HD
ENDROOT
BRANCH   2   5
ATOM      5  C   UNL     1      -4.806  -4.267   2.624  0.00  0.00    +0.021 C 
ATOM      6  C   UNL     1      -5.374  -4.210   4.043  0.00  0.00    +0.028 C 
ATOM      7  C   UNL     1      -5.625  -5.606   4.553  0.00  0.00    -0.047 A 
ATOM      8  C   UNL     1      -5.798  -5.790   5.917  0.00  0.00    +0.004 A 
ATOM      9  C   UNL     1      -6.035  -7.051   6.425  0.00  0.00    +0.000 A 
ATOM     10  C   UNL     1      -6.101  -8.136   5.571  0.00  0.00    +0.000 A 
ATOM     11  C   UNL     1      -5.927  -7.954   4.213  0.00  0.00    +0.002 A 
ATOM     12  C   UNL     1      -5.687  -6.687   3.701  0.00  0.00    -0.061 A 
ATOM     13  C   UNL     1      -5.496  -6.540   2.214  0.00  0.00    -0.045 C 
ATOM     14  N   UNL     1      -5.671  -5.139   1.807  0.00  0.00    +0.389 N 
ATOM     15  H   UNL     1      -5.418  -5.038   0.817  0.00  0.00    -0.084 HD
ATOM     16  H   UNL     1      -6.652  -4.866   1.939  0.00  0.00    -0.084 HD
ENDBRANCH   2   5
BRANCH   1  17
ATOM     17  C   UNL     1      -3.779  -0.678   1.777  0.00  0.00    +0.156 C 
ATOM     18  C   UNL     1      -4.658   0.250   2.618  0.00  0.00    +0.038 C 
BRANCH  17  20
ATOM     19  N   UNL     1      -2.103   1.072   1.277  0.00  0.00    -0.307 N 
ATOM     20  C   UNL     1      -2.365  -0.156   1.766  0.00  0.00    +0.234 C 
ATOM     21  O   UNL     1      -1.462  -0.842   2.198  0.00  0.00    -0.274 OA
ATOM     22  H   UNL     1      -2.825   1.620   0.932  0.00  0.00    +0.149 HD
BRANCH  19  24
ATOM     23  C   UNL     1      -0.013   1.086   0.008  0.00  0.00    +0.033 C 
ATOM     24  C   UNL     1      -0.729   1.579   1.267  0.00  0.00    +0.100 C 
BRANCH  24  25
ATOM     25  C   UNL     1      -0.749   3.086   1.275  0.00  0.00    -0.027 A 
ATOM     26  C   UNL     1      -1.679   3.769   0.514  0.00  0.00    +0.005 A 
ATOM     27  C   UNL     1      -1.701   5.151   0.525  0.00  0.00    +0.000 A 
ATOM     28  C   UNL     1      -0.786   5.851   1.290  0.00  0.00    +0.000 A 
ATOM     29  C   UNL     1       0.147   5.168   2.047  0.00  0.00    +0.000 A 
ATOM     30  C   UNL     1       0.166   3.785   2.040  0.00  0.00    +0.005 A 
ENDBRANCH  24  25
ENDBRANCH  19  24
ENDBRANCH  17  20
ENDBRANCH   1  17
TORSDOF 5
