REMARK  Name = ZINC41068626
REMARK  7 active torsions:
REMARK  status: ('A' for Active; 'I' for Inactive)
REMARK    1  A    between atoms: C_3  and  N_10
REMARK    2  A    between atoms: C_6  and  C_7
REMARK    3  A    between atoms: C_7  and  C_8
REMARK    4  A    between atoms: C_8  and  O_9
REMARK    5  A    between atoms: N_10  and  S_11
REMARK    6  A    between atoms: S_11  and  C_14
REMARK    7  A    between atoms: C_16  and  N_19
REMARK                            x       y       z     vdW  Elec       q    Type
REMARK                         _______ _______ _______ _____ _____    ______ ____
ROOT
ATOM      1  N   UNL     1       3.582   2.121  -0.021  0.00  0.00    -0.216 N 
ATOM      2  H   UNL     1       3.707   2.851  -0.647  0.00  0.00    +0.174 HD
ENDROOT
BRANCH   1   5
ATOM      3  C   UNL     1      -0.001   1.308  -0.109  0.00  0.00    +0.005 A 
ATOM      4  C   UNL     1       1.171   2.039  -0.095  0.00  0.00    +0.025 A 
ATOM      5  C   UNL     1       2.395   1.385  -0.035  0.00  0.00    +0.048 A 
ATOM      6  C   UNL     1       2.436  -0.003   0.009  0.00  0.00    +0.025 A 
ATOM      7  C   UNL     1       1.260  -0.728  -0.005  0.00  0.00    +0.005 A 
ATOM      8  C   UNL     1       0.043  -0.074  -0.064  0.00  0.00    -0.045 A 
BRANCH   8   9
ATOM      9  C   UNL     1      -1.237  -0.868  -0.079  0.00  0.00    +0.063 C 
BRANCH   9  10
ATOM     10  C   UNL     1      -1.625  -1.182  -1.526  0.00  0.00    +0.160 C 
BRANCH  10  11
ATOM     11  O   UNL     1      -2.840  -1.935  -1.540  0.00  0.00    -0.395 OA
ATOM     12  H   UNL     1      -3.146  -2.170  -2.427  0.00  0.00    +0.209 HD
ENDBRANCH  10  11
ENDBRANCH   9  10
ENDBRANCH   8   9
ENDBRANCH   1   5
BRANCH   1  13
ATOM     13  S   UNL     1       4.775   1.747   1.064  0.00  0.00    +0.079 S 
ATOM     14  O   UNL     1       5.029   0.355   0.925  0.00  0.00    -0.149 OA
ATOM     15  O   UNL     1       5.792   2.726   0.903  0.00  0.00    -0.149 OA
BRANCH  13  16
ATOM     16  C   UNL     1       4.104   1.978   2.677  0.00  0.00    +0.147 A 
ATOM     17  C   UNL     1       3.542   1.064   3.506  0.00  0.00    +0.059 A 
ATOM     18  C   UNL     1       3.077   1.477   4.744  0.00  0.00    +0.034 A 
ATOM     19  C   UNL     1       3.199   2.787   5.086  0.00  0.00    +0.069 A 
ATOM     20  S   UNL     1       3.996   3.474   3.644  0.00  0.00    -0.075 S 
BRANCH  18  21
ATOM     21  N   UNL     1       2.487   0.557   5.631  0.00  0.00    -0.358 N 
ATOM     22  H   UNL     1       2.403  -0.376   5.377  0.00  0.00    +0.142 HD
ATOM     23  H   UNL     1       2.164   0.855   6.495  0.00  0.00    +0.142 HD
ENDBRANCH  18  21
ENDBRANCH  13  16
ENDBRANCH   1  13
TORSDOF 7
