REMARK  Name = ZINC10794431
REMARK  9 active torsions:
REMARK  status: ('A' for Active; 'I' for Inactive)
REMARK    1  A    between atoms: C_1  and  C_2
REMARK    2  A    between atoms: C_5  and  N_9
REMARK    3  A    between atoms: C_6  and  C_8
REMARK    4  A    between atoms: C_13  and  C_15
REMARK    5  A    between atoms: C_15  and  O_16
REMARK    6  A    between atoms: O_16  and  C_17
REMARK    7  A    between atoms: C_17  and  C_19
REMARK    8  A    between atoms: C_22  and  S_25
REMARK    9  A    between atoms: S_25  and  N_28
REMARK                            x       y       z     vdW  Elec       q    Type
REMARK                         _______ _______ _______ _____ _____    ______ ____
ROOT
ATOM      1  N   UNL     1      -1.191   1.869   0.018  0.00  0.00    -0.269 N 
ATOM      2  C   UNL     1      -0.014   1.212   0.005  0.00  0.00    +0.310 C 
ATOM      3  O   UNL     1       0.003  -0.004   0.006  0.00  0.00    -0.252 OA
ATOM      4  N   UNL     1       1.143   1.901  -0.015  0.00  0.00    -0.237 N 
ATOM      5  C   UNL     1       2.320   1.244  -0.034  0.00  0.00    +0.258 C 
ATOM      6  O   UNL     1       2.336   0.032  -0.032  0.00  0.00    -0.272 OA
ATOM      7  H   UNL     1      -1.205   2.836   0.099  0.00  0.00    +0.156 HD
ATOM      8  H   UNL     1       1.130   2.871  -0.016  0.00  0.00    +0.159 HD
ENDROOT
BRANCH   1  13
ATOM      9  C   UNL     1      -6.057  -1.016  -0.401  0.00  0.00    +0.044 C 
ATOM     10  C   UNL     1      -4.765  -0.250  -0.290  0.00  0.00    -0.050 A 
ATOM     11  C   UNL     1      -3.597  -0.788  -0.799  0.00  0.00    +0.005 A 
ATOM     12  C   UNL     1      -2.411  -0.089  -0.699  0.00  0.00    +0.024 A 
ATOM     13  C   UNL     1      -2.391   1.158  -0.086  0.00  0.00    +0.038 A 
ATOM     14  C   UNL     1      -3.564   1.694   0.428  0.00  0.00    -0.029 A 
ATOM     15  C   UNL     1      -4.748   0.991   0.321  0.00  0.00    +0.008 A 
ATOM     16  C   UNL     1      -3.546   3.043   1.099  0.00  0.00    +0.045 C 
ENDBRANCH   1  13
BRANCH   5  17
ATOM     17  C   UNL     1       3.614   2.015  -0.056  0.00  0.00    +0.328 C 
BRANCH  17  18
ATOM     18  O   UNL     1       4.730   1.087  -0.073  0.00  0.00    -0.452 OA
BRANCH  18  19
ATOM     19  C   UNL     1       5.968   1.619  -0.094  0.00  0.00    +0.340 C 
ATOM     20  O   UNL     1       6.110   2.826  -0.098  0.00  0.00    -0.245 OA
BRANCH  19  21
ATOM     21  C   UNL     1       7.152   0.736  -0.113  0.00  0.00    +0.059 A 
ATOM     22  C   UNL     1       6.992  -0.651  -0.102  0.00  0.00    +0.017 A 
ATOM     23  C   UNL     1       8.101  -1.471  -0.125  0.00  0.00    +0.029 A 
ATOM     24  C   UNL     1       9.371  -0.921  -0.147  0.00  0.00    +0.105 A 
ATOM     25  C   UNL     1       9.537   0.453  -0.152  0.00  0.00    +0.029 A 
ATOM     26  C   UNL     1       8.435   1.284  -0.135  0.00  0.00    +0.017 A 
BRANCH  24  27
ATOM     27  S   UNL     1      10.783  -1.975  -0.170  0.00  0.00    +0.056 S 
ATOM     28  O   UNL     1      10.354  -3.216  -0.712  0.00  0.00    -0.153 OA
ATOM     29  O   UNL     1      11.844  -1.220  -0.739  0.00  0.00    -0.153 OA
BRANCH  27  30
ATOM     30  N   UNL     1      11.202  -2.265   1.406  0.00  0.00    -0.204 NA
ATOM     31  H   UNL     1      11.627  -3.103   1.648  0.00  0.00    +0.144 HD
ATOM     32  H   UNL     1      11.022  -1.598   2.087  0.00  0.00    +0.144 HD
ENDBRANCH  27  30
ENDBRANCH  24  27
ENDBRANCH  19  21
ENDBRANCH  18  19
ENDBRANCH  17  18
ENDBRANCH   5  17
TORSDOF 7
