REMARK  Name = ZINC67233295
REMARK  9 active torsions:
REMARK  status: ('A' for Active; 'I' for Inactive)
REMARK    1  A    between atoms: C_1  and  C_2
REMARK    2  A    between atoms: C_2  and  N_3
REMARK    3  A    between atoms: C_6  and  C_9
REMARK    4  A    between atoms: C_9  and  N_10
REMARK    5  A    between atoms: C_11  and  C_13
REMARK    6  A    between atoms: C_14  and  C_15
REMARK    7  A    between atoms: C_18  and  S_21
REMARK    8  A    between atoms: S_21  and  N_24
REMARK    9  A    between atoms: N_24  and  C_25
REMARK                            x       y       z     vdW  Elec       q    Type
REMARK                         _______ _______ _______ _____ _____    ______ ____
ROOT
ATOM      1  C   UNL     1       2.633  -6.028   5.876  0.00  0.00    +0.068 C 
ATOM      2  C   UNL     1       3.330  -6.638   6.855  0.00  0.00    +0.013 C 
ENDROOT
BRANCH   2   3
ATOM      3  C   UNL     1       3.412  -8.107   6.895  0.00  0.00    -0.025 A 
ATOM      4  C   UNL     1       2.772  -8.874   5.916  0.00  0.00    +0.010 A 
ATOM      5  C   UNL     1       2.853 -10.249   5.961  0.00  0.00    +0.029 A 
ATOM      6  C   UNL     1       3.565 -10.872   6.971  0.00  0.00    +0.105 A 
ATOM      7  C   UNL     1       4.201 -10.120   7.944  0.00  0.00    +0.029 A 
ATOM      8  C   UNL     1       4.134  -8.744   7.910  0.00  0.00    +0.010 A 
BRANCH   6   9
ATOM      9  S   UNL     1       3.662 -12.631   7.020  0.00  0.00    +0.059 S 
ATOM     10  O   UNL     1       3.929 -12.986   8.370  0.00  0.00    -0.153 OA
ATOM     11  O   UNL     1       2.530 -13.120   6.313  0.00  0.00    -0.153 OA
BRANCH   9  12
ATOM     12  N   UNL     1       4.995 -13.072   6.142  0.00  0.00    -0.187 NA
ATOM     13  H   UNL     1       4.890 -13.584   5.325  0.00  0.00    +0.148 HD
BRANCH  12  14
ATOM     14  C   UNL     1       6.333 -12.690   6.600  0.00  0.00    +0.077 C 
ATOM     15  C   UNL     1       7.385 -12.385   5.531  0.00  0.00    +0.022 C 
ATOM     16  C   UNL     1       7.475 -13.676   6.347  0.00  0.00    +0.022 C 
ENDBRANCH  12  14
ENDBRANCH   9  12
ENDBRANCH   6   9
ENDBRANCH   2   3
BRANCH   1  18
ATOM     17  N   UNL     1       1.855  -3.957   4.856  0.00  0.00    -0.312 N 
ATOM     18  C   UNL     1       2.552  -4.567   5.836  0.00  0.00    +0.237 C 
ATOM     19  O   UNL     1       3.114  -3.903   6.686  0.00  0.00    -0.271 OA
ATOM     20  H   UNL     1       1.407  -4.486   4.178  0.00  0.00    +0.149 HD
BRANCH  17  21
ATOM     21  C   UNL     1       1.774  -2.495   4.816  0.00  0.00    +0.108 C 
BRANCH  21  25
ATOM     22  N   UNL     1       0.713  -0.491   1.192  0.00  0.00    +0.380 N 
ATOM     23  C   UNL     1      -0.036  -0.111   2.396  0.00  0.00    -0.079 C 
ATOM     24  C   UNL     1       0.741  -0.544   3.642  0.00  0.00    -0.014 C 
ATOM     25  C   UNL     1       0.930  -2.063   3.615  0.00  0.00    +0.003 C 
ATOM     26  C   UNL     1       1.646  -2.456   2.319  0.00  0.00    -0.014 C 
ATOM     27  C   UNL     1       0.836  -1.952   1.123  0.00  0.00    -0.079 C 
ATOM     28  H   UNL     1       1.632  -0.077   1.226  0.00  0.00    -0.082 HD
BRANCH  22  30
ATOM     29  C   UNL     1      -0.019   1.526   0.010  0.00  0.00    -0.017 C 
ATOM     30  C   UNL     1       0.002  -0.004   0.002  0.00  0.00    -0.082 C 
ENDBRANCH  22  30
ENDBRANCH  21  25
ENDBRANCH  17  21
ENDBRANCH   1  18
TORSDOF 8
