REMARK  Name = ZINC20232160
REMARK  14 active torsions:
REMARK  status: ('A' for Active; 'I' for Inactive)
REMARK    1  A    between atoms: C_1  and  C_2
REMARK    2  A    between atoms: C_2  and  C_3
REMARK    3  A    between atoms: C_2  and  C_4
REMARK    4  A    between atoms: C_4  and  C_6
REMARK    5  A    between atoms: C_4  and  N_20
REMARK    6  A    between atoms: N_8  and  C_9
REMARK    7  A    between atoms: C_9  and  C_10
REMARK    8  A    between atoms: C_10  and  N_11
REMARK    9  A    between atoms: N_11  and  C_12
REMARK   10  A    between atoms: N_11  and  C_13
REMARK   11  A    between atoms: C_13  and  C_14
REMARK   12  A    between atoms: N_20  and  S_21
REMARK   13  A    between atoms: S_21  and  C_24
REMARK   14  A    between atoms: C_33  and  C_35
REMARK                            x       y       z     vdW  Elec       q    Type
REMARK                         _______ _______ _______ _____ _____    ______ ____
ROOT
ATOM      1  C   UNL     1       1.304  -4.348   2.240  0.00  0.00    +0.165 C 
ENDROOT
BRANCH   1   2
ATOM      2  C   UNL     1       1.096  -2.893   1.908  0.00  0.00    +0.232 C 
ATOM      3  O   UNL     1       1.571  -2.035   2.621  0.00  0.00    -0.274 OA
ATOM      4  N   UNL     1       0.382  -2.546   0.819  0.00  0.00    -0.316 N 
ATOM      5  H   UNL     1       0.019  -3.322   0.129  0.00  0.00    +0.149 HD
BRANCH   4   6
ATOM      6  C   UNL     1       0.091  -1.135   0.553  0.00  0.00    +0.086 C 
BRANCH   6   7
ATOM      7  C   UNL     1      -0.727  -1.017  -0.734  0.00  0.00    -0.060 C 
BRANCH   7   8
ATOM      8  N   UNL     1      -1.020   0.398  -1.000  0.00  0.00    +0.382 N 
ATOM      9  C   UNL     1       0.211   1.143  -1.298  0.00  0.00    -0.096 C 
ATOM     10  H   UNL     1      -1.463   0.829  -0.090  0.00  0.00    -0.082 HD
BRANCH   8  11
ATOM     11  C   UNL     1      -1.996   0.538  -2.089  0.00  0.00    -0.043 C 
BRANCH  11  12
ATOM     12  C   UNL     1      -2.455   1.971  -2.170  0.00  0.00    -0.064 A 
ATOM     13  C   UNL     1      -3.557   2.386  -1.446  0.00  0.00    +0.002 A 
ATOM     14  C   UNL     1      -3.976   3.702  -1.517  0.00  0.00    +0.000 A 
ATOM     15  C   UNL     1      -3.298   4.600  -2.320  0.00  0.00    +0.000 A 
ATOM     16  C   UNL     1      -2.200   4.184  -3.048  0.00  0.00    +0.000 A 
ATOM     17  C   UNL     1      -1.778   2.870  -2.973  0.00  0.00    +0.002 A 
ENDBRANCH  11  12
ENDBRANCH   8  11
ENDBRANCH   7   8
ENDBRANCH   6   7
ENDBRANCH   4   6
ENDBRANCH   1   2
BRANCH   1  19
ATOM     18  C   UNL     1       3.759  -4.219   1.794  0.00  0.00    +0.009 C 
ATOM     19  C   UNL     1       2.451  -4.906   1.394  0.00  0.00    +0.010 C 
ATOM     20  C   UNL     1       2.574  -6.412   1.630  0.00  0.00    +0.009 C 
ENDBRANCH   1  19
BRANCH   1  21
ATOM     21  N   UNL     1       1.635  -4.483   3.661  0.00  0.00    -0.178 NA
ATOM     22  H   UNL     1       2.687  -4.514   3.980  0.00  0.00    +0.149 HD
BRANCH  21  23
ATOM     23  S   UNL     1       0.445  -4.836   4.758  0.00  0.00    +0.059 S 
ATOM     24  O   UNL     1       1.084  -4.971   6.020  0.00  0.00    -0.153 OA
ATOM     25  O   UNL     1      -0.605  -3.907   4.531  0.00  0.00    -0.153 OA
BRANCH  23  26
ATOM     26  C   UNL     1      -0.190  -6.426   4.343  0.00  0.00    +0.106 A 
ATOM     27  C   UNL     1      -1.261  -6.540   3.475  0.00  0.00    +0.030 A 
ATOM     28  C   UNL     1      -1.757  -7.783   3.144  0.00  0.00    +0.026 A 
ATOM     29  C   UNL     1      -1.190  -8.935   3.692  0.00  0.00    +0.040 A 
ATOM     30  C   UNL     1      -0.122  -8.810   4.564  0.00  0.00    -0.023 A 
ATOM     31  C   UNL     1       0.376  -7.563   4.888  0.00  0.00    +0.034 A 
ATOM     32  C   UNL     1       0.301 -10.193   5.009  0.00  0.00    +0.056 C 
ATOM     33  C   UNL     1      -0.662 -11.145   4.281  0.00  0.00    +0.118 C 
ATOM     34  N   UNL     1      -1.541 -10.275   3.495  0.00  0.00    -0.271 N 
ATOM     35  C   UNL     1      -2.541 -10.703   2.700  0.00  0.00    +0.217 C 
ATOM     36  O   UNL     1      -3.215  -9.901   2.088  0.00  0.00    -0.276 OA
ATOM     37  C   UNL     1      -2.823 -12.178   2.570  0.00  0.00    +0.109 C 
ENDBRANCH  23  26
ENDBRANCH  21  23
ENDBRANCH   1  21
TORSDOF 10
