REMARK  Name = ZINC09056429
REMARK  10 active torsions:
REMARK  status: ('A' for Active; 'I' for Inactive)
REMARK    1  A    between atoms: C_1  and  C_2
REMARK    2  A    between atoms: C_6  and  C_7
REMARK    3  A    between atoms: C_8  and  C_9
REMARK    4  A    between atoms: C_12  and  C_32
REMARK    5  A    between atoms: C_13  and  N_20
REMARK    6  A    between atoms: C_16  and  C_18
REMARK    7  A    between atoms: C_16  and  C_19
REMARK    8  A    between atoms: C_21  and  C_23
REMARK    9  A    between atoms: C_23  and  N_64
REMARK   10  A    between atoms: C_29  and  C_31
REMARK                            x       y       z     vdW  Elec       q    Type
REMARK                         _______ _______ _______ _____ _____    ______ ____
ROOT
ATOM      1  C   UNL     1      -0.051  -0.104   0.122  0.00  0.00    -0.046 C 
ATOM      2  C   UNL     1       1.155   0.462   0.347  0.00  0.00    +0.013 C 
ATOM      3  C   UNL     1       1.440   1.767  -0.304  0.00  0.00    +0.005 A 
ATOM      4  C   UNL     1       2.740   2.407  -0.417  0.00  0.00    +0.088 A 
ATOM      5  C   UNL     1       2.801   3.633  -1.068  0.00  0.00    +0.090 A 
ATOM      6  S   UNL     1       1.098   3.927  -1.514  0.00  0.00    -0.076 S 
ATOM      7  C   UNL     1       0.379   2.463  -0.837  0.00  0.00    +0.006 A 
ATOM      8  C   UNL     1      -1.044   2.008  -0.805  0.00  0.00    +0.001 C 
ATOM      9  C   UNL     1      -1.071   0.476  -0.813  0.00  0.00    +0.046 C 
ATOM     10  C   UNL     1      -1.781   2.541  -2.035  0.00  0.00    +0.017 C 
ATOM     11  C   UNL     1      -1.719   2.526   0.466  0.00  0.00    +0.017 C 
ENDROOT
BRANCH   5  12
ATOM     12  N   UNL     1       3.909   4.431  -1.310  0.00  0.00    -0.281 N 
ATOM     13  C   UNL     1       3.768   5.600  -1.964  0.00  0.00    +0.201 C 
ATOM     14  O   UNL     1       2.671   5.955  -2.341  0.00  0.00    -0.278 OA
ATOM     15  H   UNL     1       4.787   4.147  -1.009  0.00  0.00    +0.155 HD
BRANCH  13  16
ATOM     16  C   UNL     1       4.972   6.467  -2.228  0.00  0.00    +0.019 C 
BRANCH  16  25
ATOM     17  C   UNL     1       4.056   7.344  -4.290  0.00  0.00    -0.059 C 
ATOM     18  C   UNL     1       3.467   8.601  -4.939  0.00  0.00    +0.089 C 
ATOM     19  N   UNL     1       4.481   9.666  -4.900  0.00  0.00    -0.305 N 
ATOM     20  C   UNL     1       5.128   9.964  -3.613  0.00  0.00    +0.089 C 
ATOM     21  C   UNL     1       5.652   8.653  -3.017  0.00  0.00    -0.059 C 
ATOM     22  C   UNL     1       4.808  10.351  -6.014  0.00  0.00    +0.212 C 
ATOM     23  O   UNL     1       4.206  10.152  -7.047  0.00  0.00    -0.276 OA
ATOM     24  C   UNL     1       5.923  11.364  -5.975  0.00  0.00    +0.109 C 
ATOM     25  N   UNL     1       4.533   7.689  -2.934  0.00  0.00    +0.387 N 
ATOM     26  H   UNL     1       3.762   8.118  -2.409  0.00  0.00    -0.081 HD
ENDBRANCH  16  25
ENDBRANCH  13  16
ENDBRANCH   5  12
BRANCH   1  28
ATOM     27  C   UNL     1      -1.601  -1.848   0.673  0.00  0.00    +0.015 C 
ATOM     28  C   UNL     1      -0.367  -1.302   0.801  0.00  0.00    +0.005 C 
BRANCH  27  34
ATOM     29  C   UNL     1      -4.316  -3.313   0.608  0.00  0.00    +0.045 C 
ATOM     30  C   UNL     1      -3.161  -3.727   1.484  0.00  0.00    -0.036 A 
ATOM     31  C   UNL     1      -3.265  -4.812   2.322  0.00  0.00    +0.011 A 
ATOM     32  C   UNL     1      -2.204  -5.157   3.099  0.00  0.00    +0.046 A 
ATOM     33  S   UNL     1      -0.988  -3.930   2.651  0.00  0.00    -0.097 S 
ATOM     34  C   UNL     1      -1.966  -3.023   1.464  0.00  0.00    +0.015 A 
ENDBRANCH  27  34
ENDBRANCH   1  28
BRANCH   4  35
ATOM     35  C   UNL     1       3.917   1.795   0.122  0.00  0.00    +0.102 C 
ATOM     36  N   UNL     1       4.851   1.310   0.551  0.00  0.00    -0.191 NA
ENDBRANCH   4  35
TORSDOF 6
