REMARK  Name = ZINC66402963
REMARK  10 active torsions:
REMARK  status: ('A' for Active; 'I' for Inactive)
REMARK    1  A    between atoms: C_1  and  C_2
REMARK    2  A    between atoms: C_2  and  C_3
REMARK    3  A    between atoms: C_6  and  C_9
REMARK    4  A    between atoms: C_9  and  C_11
REMARK    5  A    between atoms: C_9  and  N_28
REMARK    6  A    between atoms: C_11  and  N_12
REMARK    7  A    between atoms: N_15  and  C_16
REMARK    8  A    between atoms: C_18  and  C_24
REMARK    9  A    between atoms: N_28  and  C_29
REMARK   10  A    between atoms: N_28  and  C_30
REMARK                            x       y       z     vdW  Elec       q    Type
REMARK                         _______ _______ _______ _____ _____    ______ ____
ROOT
ATOM      1  N   UNL     1       1.071  -3.584  -4.960  0.00  0.00    -0.300 N 
ATOM      2  C   UNL     1       0.676  -4.872  -4.964  0.00  0.00    +0.304 C 
ATOM      3  O   UNL     1       1.485  -5.757  -4.762  0.00  0.00    -0.253 OA
ATOM      4  N   UNL     1      -0.616  -5.180  -5.192  0.00  0.00    -0.265 N 
ATOM      5  H   UNL     1       0.426  -2.878  -5.122  0.00  0.00    +0.150 HD
ATOM      6  H   UNL     1      -1.275  -4.473  -5.281  0.00  0.00    +0.157 HD
ENDROOT
BRANCH   4   7
ATOM      7  C   UNL     1      -1.009  -6.521  -5.302  0.00  0.00    +0.100 A 
ATOM      8  C   UNL     1      -1.953  -7.037  -4.458  0.00  0.00    +0.042 A 
ATOM      9  C   UNL     1      -2.328  -8.382  -4.589  0.00  0.00    +0.073 A 
ATOM     10  C   UNL     1      -1.758  -9.154  -5.542  0.00  0.00    +0.098 A 
ATOM     11  N   UNL     1      -0.819  -8.643  -6.382  0.00  0.00    -0.327 N 
ATOM     12  H   UNL     1      -0.421  -9.212  -7.059  0.00  0.00    +0.168 HD
ATOM     13  C   UNL     1      -0.438  -7.354  -6.289  0.00  0.00    +0.270 A 
ATOM     14  O   UNL     1       0.402  -6.908  -7.053  0.00  0.00    -0.266 OA
BRANCH   9  15
ATOM     15  C   UNL     1      -3.366  -8.968  -3.667  0.00  0.00    +0.419 C 
ATOM     16  F   UNL     1      -3.571 -10.314  -3.990  0.00  0.00    -0.166 F 
ATOM     17  F   UNL     1      -2.925  -8.868  -2.344  0.00  0.00    -0.166 F 
ATOM     18  F   UNL     1      -4.568  -8.266  -3.813  0.00  0.00    -0.166 F 
ENDBRANCH   9  15
ENDBRANCH   4   7
BRANCH   1  19
ATOM     19  C   UNL     1       2.476  -3.249  -4.713  0.00  0.00    +0.095 C 
BRANCH  19  20
ATOM     20  C   UNL     1       2.631  -1.730  -4.625  0.00  0.00    -0.021 C 
BRANCH  20  24
ATOM     21  C   UNL     1       0.402  -0.263  -1.289  0.00  0.00    -0.048 A 
ATOM     22  C   UNL     1      -0.122  -0.170  -2.565  0.00  0.00    +0.004 A 
ATOM     23  C   UNL     1       0.600  -0.644  -3.645  0.00  0.00    +0.002 A 
ATOM     24  C   UNL     1       1.845  -1.212  -3.448  0.00  0.00    -0.059 A 
ATOM     25  C   UNL     1       2.369  -1.304  -2.173  0.00  0.00    +0.002 A 
ATOM     26  C   UNL     1       1.649  -0.825  -1.093  0.00  0.00    +0.004 A 
BRANCH  21  28
ATOM     27  C   UNL     1      -0.040   1.727   0.124  0.00  0.00    +0.009 C 
ATOM     28  C   UNL     1      -0.384   0.255  -0.112  0.00  0.00    +0.032 C 
ENDBRANCH  21  28
ENDBRANCH  20  24
BRANCH  20  29
ATOM     29  N   UNL     1       4.050  -1.391  -4.454  0.00  0.00    +0.382 N 
ATOM     30  C   UNL     1       4.818  -1.907  -5.595  0.00  0.00    -0.096 C 
ATOM     31  C   UNL     1       4.200   0.068  -4.382  0.00  0.00    -0.096 C 
ATOM     32  H   UNL     1       4.394  -1.807  -3.601  0.00  0.00    -0.082 HD
ENDBRANCH  20  29
ENDBRANCH  19  20
ENDBRANCH   1  19
TORSDOF 7
