REMARK  Name = ZINC19935750
REMARK  8 active torsions:
REMARK  status: ('A' for Active; 'I' for Inactive)
REMARK    1  A    between atoms: C_1  and  C_2
REMARK    2  A    between atoms: C_2  and  C_3
REMARK    3  A    between atoms: C_3  and  O_4
REMARK    4  A    between atoms: O_4  and  C_5
REMARK    5  A    between atoms: C_8  and  C_11
REMARK    6  A    between atoms: C_11  and  C_13
REMARK    7  A    between atoms: C_11  and  N_16
REMARK    8  A    between atoms: C_13  and  N_15
REMARK                            x       y       z     vdW  Elec       q    Type
REMARK                         _______ _______ _______ _____ _____    ______ ____
ROOT
ATOM      1  C   UNL     1      -0.018   1.503   0.010  0.00  0.00    +0.138 C 
ENDROOT
BRANCH   1   2
ATOM      2  N   UNL     1      -0.624   2.149   1.182  0.00  0.00    -0.294 NA
ATOM      3  C   UNL     1      -0.040   1.633   2.429  0.00  0.00    +0.066 C 
ATOM      4  C   UNL     1      -0.751   2.271   3.624  0.00  0.00    -0.067 C 
ATOM      5  N   UNL     1      -0.616   3.732   3.549  0.00  0.00    +0.381 N 
ATOM      6  C   UNL     1      -1.200   4.248   2.302  0.00  0.00    -0.067 C 
ATOM      7  C   UNL     1      -0.489   3.610   1.107  0.00  0.00    +0.066 C 
ATOM      8  H   UNL     1      -1.137   4.193   4.401  0.00  0.00    -0.086 HD
ATOM      9  H   UNL     1       0.449   4.004   3.579  0.00  0.00    -0.086 HD
ENDBRANCH   1   2
BRANCH   1  13
ATOM     10  C   UNL     1      -0.107  -2.740   0.518  0.00  0.00    +0.121 A 
ATOM     11  C   UNL     1       1.007  -2.130  -0.039  0.00  0.00    +0.046 A 
ATOM     12  C   UNL     1       1.034  -0.758  -0.202  0.00  0.00    +0.009 A 
ATOM     13  C   UNL     1      -0.050   0.007   0.189  0.00  0.00    -0.024 A 
ATOM     14  C   UNL     1      -1.159  -0.598   0.750  0.00  0.00    +0.009 A 
ATOM     15  C   UNL     1      -1.193  -1.970   0.910  0.00  0.00    +0.046 A 
BRANCH  10  16
ATOM     16  O   UNL     1      -0.135  -4.088   0.680  0.00  0.00    -0.492 OA
BRANCH  16  17
ATOM     17  C   UNL     1      -1.315  -4.648   1.260  0.00  0.00    +0.229 C 
BRANCH  17  19
ATOM     18  C   UNL     1      -2.426  -6.766   1.983  0.00  0.00    +0.007 C 
ATOM     19  C   UNL     1      -1.163  -6.167   1.362  0.00  0.00    +0.038 C 
ENDBRANCH  17  19
ENDBRANCH  16  17
ENDBRANCH  10  16
ENDBRANCH   1  13
BRANCH   1  20
ATOM     20  C   UNL     1      -0.794   1.877  -1.226  0.00  0.00    +0.068 C 
ATOM     21  S   UNL     1      -2.273   2.471  -1.093  0.00  0.00    -0.039 S 
BRANCH  20  22
ATOM     22  N   UNL     1      -0.241   1.712  -2.444  0.00  0.00    -0.354 N 
ATOM     23  H   UNL     1      -0.807   1.985  -3.347  0.00  0.00    +0.143 HD
ATOM     24  H   UNL     1       0.776   1.303  -2.536  0.00  0.00    +0.143 HD
ENDBRANCH  20  22
ENDBRANCH   1  20
TORSDOF 7
