REMARK  Name = ZINC02741019
REMARK  11 active torsions:
REMARK  status: ('A' for Active; 'I' for Inactive)
REMARK    1  A    between atoms: C_1  and  C_2
REMARK    2  A    between atoms: C_2  and  O_3
REMARK    3  A    between atoms: O_3  and  C_4
REMARK    4  A    between atoms: C_6  and  C_19
REMARK    5  A    between atoms: C_9  and  O_10
REMARK    6  A    between atoms: O_10  and  C_11
REMARK    7  A    between atoms: C_11  and  C_12
REMARK    8  A    between atoms: C_19  and  N_44
REMARK    9  A    between atoms: C_20  and  C_21
REMARK   10  A    between atoms: C_20  and  N_44
REMARK   11  A    between atoms: C_21  and  O_22
REMARK                            x       y       z     vdW  Elec       q    Type
REMARK                         _______ _______ _______ _____ _____    ______ ____
ROOT
ATOM      1  C   UNL     1       1.178   1.785   0.000  0.00  0.00    +0.163 A 
ATOM      2  C   UNL     1      -0.013   1.076   0.008  0.00  0.00    +0.051 A 
ATOM      3  C   UNL     1      -1.219   1.751   0.017  0.00  0.00    -0.060 A 
ATOM      4  C   UNL     1      -1.242   3.133   0.031  0.00  0.00    +0.020 A 
ATOM      5  C   UNL     1      -0.057   3.847   0.023  0.00  0.00    +0.059 A 
ATOM      6  C   UNL     1       1.156   3.176   0.008  0.00  0.00    +0.175 A 
ATOM      7  I   UNL     1      -0.096   5.941   0.036  0.00  0.00    -0.040 I 
ENDROOT
BRANCH   1   8
ATOM      8  O   UNL     1       2.366   1.122  -0.015  0.00  0.00    -0.489 OA
BRANCH   8  10
ATOM      9  C   UNL     1       3.734  -0.870  -0.040  0.00  0.00    +0.048 C 
ATOM     10  C   UNL     1       2.312  -0.306  -0.023  0.00  0.00    +0.226 C 
ENDBRANCH   8  10
ENDBRANCH   1   8
BRANCH   6  11
ATOM     11  O   UNL     1       2.322   3.876   0.000  0.00  0.00    -0.483 OA
BRANCH  11  12
ATOM     12  C   UNL     1       2.865   4.217  -1.277  0.00  0.00    +0.264 C 
BRANCH  12  13
ATOM     13  C   UNL     1       4.148   4.985  -1.088  0.00  0.00    -0.010 A 
ATOM     14  C   UNL     1       4.121   6.364  -0.995  0.00  0.00    +0.007 A 
ATOM     15  C   UNL     1       5.297   7.069  -0.817  0.00  0.00    +0.000 A 
ATOM     16  C   UNL     1       6.501   6.395  -0.742  0.00  0.00    +0.000 A 
ATOM     17  C   UNL     1       6.529   5.016  -0.840  0.00  0.00    +0.000 A 
ATOM     18  C   UNL     1       5.353   4.311  -1.013  0.00  0.00    +0.007 A 
ENDBRANCH  12  13
ENDBRANCH  11  12
ENDBRANCH   6  11
BRANCH   3  19
ATOM     19  C   UNL     1      -2.513   0.978   0.019  0.00  0.00    -0.047 C 
BRANCH  19  20
ATOM     20  N   UNL     1      -2.921   0.722   1.413  0.00  0.00    +0.383 N 
ATOM     21  H   UNL     1      -3.050   1.617   1.898  0.00  0.00    -0.085 HD
ATOM     22  H   UNL     1      -2.190   0.178   1.886  0.00  0.00    -0.085 HD
BRANCH  20  23
ATOM     23  C   UNL     1      -4.187  -0.035   1.445  0.00  0.00    -0.054 C 
BRANCH  23  24
ATOM     24  C   UNL     1      -4.585  -0.285   2.901  0.00  0.00    +0.137 C 
BRANCH  24  25
ATOM     25  O   UNL     1      -4.870   0.962   3.538  0.00  0.00    -0.397 OA
ATOM     26  H   UNL     1      -5.129   0.879   4.466  0.00  0.00    +0.209 HD
ENDBRANCH  24  25
ENDBRANCH  23  24
ENDBRANCH  20  23
ENDBRANCH  19  20
ENDBRANCH   3  19
TORSDOF 10
