REMARK  Name = ZINC49309038
REMARK  6 active torsions:
REMARK  status: ('A' for Active; 'I' for Inactive)
REMARK    1  A    between atoms: C_8  and  C_12
REMARK    2  A    between atoms: C_12  and  N_13
REMARK    3  A    between atoms: C_14  and  C_16
REMARK    4  A    between atoms: N_18  and  C_19
REMARK    5  A    between atoms: C_24  and  C_25
REMARK    6  A    between atoms: C_25  and  C_26
REMARK                            x       y       z     vdW  Elec       q    Type
REMARK                         _______ _______ _______ _____ _____    ______ ____
ROOT
ATOM      1  C   UNL     1       5.455  -6.609  -1.141  0.00  0.00    +0.303 C 
ATOM      2  O   UNL     1       6.233  -5.868  -1.705  0.00  0.00    -0.265 OA
ATOM      3  N   UNL     1       5.749  -7.917  -1.004  0.00  0.00    -0.277 N 
ATOM      4  H   UNL     1       5.167  -8.494  -0.485  0.00  0.00    +0.155 HD
ENDROOT
BRANCH   3   5
ATOM      5  C   UNL     1       6.893  -8.443  -1.611  0.00  0.00    +0.037 A 
ATOM      6  C   UNL     1       7.435  -7.824  -2.730  0.00  0.00    +0.023 A 
ATOM      7  C   UNL     1       8.565  -8.346  -3.327  0.00  0.00    +0.002 A 
ATOM      8  C   UNL     1       9.157  -9.485  -2.812  0.00  0.00    +0.000 A 
ATOM      9  C   UNL     1       8.620 -10.105  -1.699  0.00  0.00    +0.006 A 
ATOM     10  C   UNL     1       7.494  -9.584  -1.093  0.00  0.00    -0.017 A 
BRANCH  10  11
ATOM     11  C   UNL     1       6.913 -10.256   0.124  0.00  0.00    +0.132 C 
BRANCH  11  12
ATOM     12  C   UNL     1       5.817 -11.200  -0.298  0.00  0.00    +0.215 C 
ATOM     13  O   UNL     1       5.535 -11.316  -1.472  0.00  0.00    -0.276 OA
ATOM     14  N   UNL     1       5.150 -11.916   0.629  0.00  0.00    -0.329 N 
ATOM     15  H   UNL     1       5.375 -11.823   1.568  0.00  0.00    +0.145 HD
ATOM     16  H   UNL     1       4.444 -12.524   0.358  0.00  0.00    +0.145 HD
ENDBRANCH  11  12
ENDBRANCH  10  11
ENDBRANCH   3   5
BRANCH   1  18
ATOM     17  N   UNL     1       3.878  -4.763  -0.735  0.00  0.00    -0.307 N 
ATOM     18  C   UNL     1       4.172  -6.072  -0.598  0.00  0.00    +0.299 C 
ATOM     19  O   UNL     1       3.394  -6.813  -0.034  0.00  0.00    -0.265 OA
ATOM     20  H   UNL     1       4.500  -4.171  -1.186  0.00  0.00    +0.149 HD
BRANCH  17  21
ATOM     21  C   UNL     1       2.619  -4.236  -0.203  0.00  0.00    +0.111 C 
BRANCH  21  29
ATOM     22  C   UNL     1      -0.044   1.365  -0.038  0.00  0.00    +0.000 A 
ATOM     23  C   UNL     1       1.143   2.075  -0.036  0.00  0.00    +0.004 A 
ATOM     24  C   UNL     1       2.348   1.403  -0.044  0.00  0.00    +0.046 A 
ATOM     25  C   UNL     1       2.373   0.011  -0.052  0.00  0.00    +0.124 A 
ATOM     26  C   UNL     1       1.184  -0.696  -0.050  0.00  0.00    -0.005 A 
ATOM     27  C   UNL     1      -0.022  -0.016  -0.045  0.00  0.00    +0.007 A 
ATOM     28  C   UNL     1       1.167  -2.204  -0.047  0.00  0.00    +0.047 C 
ATOM     29  C   UNL     1       2.533  -2.736  -0.489  0.00  0.00    +0.048 C 
ATOM     30  C   UNL     1       3.618  -1.994   0.302  0.00  0.00    +0.234 C 
ATOM     31  O   UNL     1       3.579  -0.615  -0.064  0.00  0.00    -0.491 OA
ENDBRANCH  21  29
ENDBRANCH  17  21
ENDBRANCH   1  18
TORSDOF 6
