REMARK  Name = ZINC41677757
REMARK  4 active torsions:
REMARK  status: ('A' for Active; 'I' for Inactive)
REMARK    1  A    between atoms: C_1  and  N_2
REMARK    2  A    between atoms: N_2  and  C_3
REMARK    3  A    between atoms: C_3  and  C_5
REMARK    4  A    between atoms: C_3  and  C_11
REMARK                            x       y       z     vdW  Elec       q    Type
REMARK                         _______ _______ _______ _____ _____    ______ ____
ROOT
ATOM      1  C   UNL     1       0.713  -0.491   1.192  0.00  0.00    +0.053 C 
ENDROOT
BRANCH   1   2
ATOM      2  C   UNL     1      -0.059  -0.109   2.429  0.00  0.00    -0.014 A 
ATOM      3  C   UNL     1       0.406   0.339   3.621  0.00  0.00    +0.025 A 
ATOM      4  C   UNL     1      -0.498   0.631   4.626  0.00  0.00    +0.025 A 
ATOM      5  C   UNL     1      -1.822   0.459   4.389  0.00  0.00    +0.060 A 
ATOM      6  S   UNL     1      -1.823  -0.123   2.702  0.00  0.00    -0.102 S 
ATOM      7 BR   UNL     1       0.104   1.259   6.305  0.00  0.00    -0.050 Br
ENDBRANCH   1   2
BRANCH   1   8
ATOM      8  C   UNL     1       0.841  -1.991   1.123  0.00  0.00    +0.201 C 
ATOM      9  O   UNL     1       0.102  -2.630   0.403  0.00  0.00    -0.277 OA
ATOM     10  N   UNL     1       1.775  -2.622   1.860  0.00  0.00    -0.330 N 
ATOM     11  H   UNL     1       2.366  -2.111   2.435  0.00  0.00    +0.145 HD
ATOM     12  H   UNL     1       1.858  -3.588   1.815  0.00  0.00    +0.145 HD
ENDBRANCH   1   8
BRANCH   1  14
ATOM     13  C   UNL     1      -0.018   1.465   0.010  0.00  0.00    -0.099 C 
ATOM     14  N   UNL     1       0.002  -0.004   0.002  0.00  0.00    +0.388 N 
ATOM     15  H   UNL     1      -0.945  -0.353   0.009  0.00  0.00    -0.085 HD
ATOM     16  H   UNL     1       0.474  -0.330  -0.828  0.00  0.00    -0.085 HD
ENDBRANCH   1  14
TORSDOF 3
