REMARK  Name = ZINC49441996
REMARK  7 active torsions:
REMARK  status: ('A' for Active; 'I' for Inactive)
REMARK    1  A    between atoms: C_1  and  N_2
REMARK    2  A    between atoms: N_2  and  C_3
REMARK    3  A    between atoms: N_2  and  C_12
REMARK    4  A    between atoms: C_3  and  C_4
REMARK    5  A    between atoms: C_4  and  C_5
REMARK    6  A    between atoms: C_5  and  C_6
REMARK    7  A    between atoms: C_12  and  C_13
REMARK                            x       y       z     vdW  Elec       q    Type
REMARK                         _______ _______ _______ _____ _____    ______ ____
ROOT
ATOM      1  C   UNL     1       0.713  -0.491   1.192  0.00  0.00    -0.078 C 
ENDROOT
BRANCH   1   3
ATOM      2  C   UNL     1      -0.018   1.465   0.010  0.00  0.00    -0.096 C 
ATOM      3  N   UNL     1       0.002  -0.004   0.002  0.00  0.00    +0.381 N 
ATOM      4  H   UNL     1      -0.945  -0.353   0.009  0.00  0.00    -0.082 HD
BRANCH   3   5
ATOM      5  C   UNL     1       0.690  -0.478  -1.207  0.00  0.00    -0.036 C 
BRANCH   5   6
ATOM      6  C   UNL     1      -0.106  -0.083  -2.424  0.00  0.00    -0.026 A 
ATOM      7  C   UNL     1      -0.021   1.045  -3.170  0.00  0.00    +0.024 A 
ATOM      8  C   UNL     1      -0.862   1.195  -4.258  0.00  0.00    +0.025 A 
ATOM      9  C   UNL     1      -1.746   0.208  -4.545  0.00  0.00    +0.060 A 
ATOM     10  S   UNL     1      -1.399  -0.984  -3.263  0.00  0.00    -0.102 S 
ATOM     11 BR   UNL     1      -0.780   2.752  -5.327  0.00  0.00    -0.050 Br
ENDBRANCH   5   6
ENDBRANCH   3   5
ENDBRANCH   1   3
BRANCH   1  12
ATOM     12  C   UNL     1      -0.071  -0.103   2.448  0.00  0.00    -0.009 C 
BRANCH  12  13
ATOM     13  C   UNL     1       0.669  -0.610   3.687  0.00  0.00    +0.094 C 
BRANCH  13  14
ATOM     14  C   UNL     1      -0.103  -0.229   4.924  0.00  0.00    +0.220 C 
ATOM     15  O   UNL     1      -1.142   0.388   4.824  0.00  0.00    -0.275 OA
ATOM     16  N   UNL     1       0.362  -0.573   6.141  0.00  0.00    -0.240 N 
ATOM     17  C   UNL     1      -0.328  -0.232   7.248  0.00  0.00    +0.303 C 
ATOM     18  O   UNL     1      -1.370   0.386   7.147  0.00  0.00    -0.253 OA
ATOM     19  N   UNL     1       0.137  -0.576   8.465  0.00  0.00    -0.313 N 
ATOM     20  H   UNL     1       1.193  -1.066   6.222  0.00  0.00    +0.159 HD
ATOM     21  H   UNL     1       0.968  -1.069   8.545  0.00  0.00    +0.146 HD
ATOM     22  H   UNL     1      -0.360  -0.330   9.261  0.00  0.00    +0.146 HD
ENDBRANCH  13  14
ENDBRANCH  12  13
ENDBRANCH   1  12
TORSDOF 6
