REMARK  Name = ZINC04275258
REMARK  11 active torsions:
REMARK  status: ('A' for Active; 'I' for Inactive)
REMARK    1  A    between atoms: C_1  and  C_2
REMARK    2  A    between atoms: C_2  and  C_28
REMARK    3  A    between atoms: C_5  and  C_25
REMARK    4  A    between atoms: C_6  and  N_12
REMARK    5  A    between atoms: C_9  and  C_10
REMARK    6  A    between atoms: C_9  and  C_11
REMARK    7  A    between atoms: C_13  and  C_15
REMARK    8  A    between atoms: C_18  and  O_23
REMARK    9  A    between atoms: C_19  and  O_21
REMARK   10  A    between atoms: O_21  and  C_22
REMARK   11  A    between atoms: O_23  and  C_24
REMARK                            x       y       z     vdW  Elec       q    Type
REMARK                         _______ _______ _______ _____ _____    ______ ____
ROOT
ATOM      1  C   UNL     1      -0.013   1.086   0.008  0.00  0.00    -0.010 C 
ATOM      2  C   UNL     1      -0.729   1.580   1.268  0.00  0.00    -0.069 C 
ATOM      3  C   UNL     1      -2.138   0.980   1.316  0.00  0.00    +0.024 C 
ATOM      4  C   UNL     1      -2.983   1.651   0.242  0.00  0.00    -0.026 A 
ATOM      5  C   UNL     1      -4.134   1.059  -0.409  0.00  0.00    +0.068 A 
ATOM      6  C   UNL     1      -4.800   1.830  -1.355  0.00  0.00    +0.085 A 
ATOM      7  S   UNL     1      -3.898   3.309  -1.367  0.00  0.00    -0.079 S 
ATOM      8  C   UNL     1      -2.675   2.907  -0.151  0.00  0.00    -0.016 A 
ATOM      9  C   UNL     1      -1.545   3.749   0.345  0.00  0.00    -0.041 C 
ATOM     10  C   UNL     1      -2.140   5.008   1.008  0.00  0.00    -0.005 C 
ATOM     11  C   UNL     1      -0.679   4.203  -0.835  0.00  0.00    -0.005 C 
ATOM     12  C   UNL     1       0.049   1.047   2.488  0.00  0.00    -0.010 C 
ATOM     13  N   UNL     1      -0.716   3.061   1.375  0.00  0.00    +0.389 N 
ATOM     14  H   UNL     1       0.254   3.383   1.278  0.00  0.00    -0.084 HD
ATOM     15  H   UNL     1      -1.071   3.320   2.303  0.00  0.00    -0.084 HD
ENDROOT
BRANCH   5  16
ATOM     16  C   UNL     1      -4.590  -0.297  -0.088  0.00  0.00    +0.244 C 
ATOM     17  O   UNL     1      -5.405  -0.471   0.798  0.00  0.00    -0.270 OA
ATOM     18  N   UNL     1      -4.105  -1.351  -0.775  0.00  0.00    -0.325 N 
ATOM     19  H   UNL     1      -3.455  -1.212  -1.481  0.00  0.00    +0.145 HD
ATOM     20  H   UNL     1      -4.407  -2.248  -0.562  0.00  0.00    +0.145 HD
ENDBRANCH   5  16
BRANCH   6  21
ATOM     21  N   UNL     1      -5.915   1.495  -2.107  0.00  0.00    -0.275 N 
ATOM     22  C   UNL     1      -6.427   2.380  -2.985  0.00  0.00    +0.249 C 
ATOM     23  O   UNL     1      -5.910   3.473  -3.117  0.00  0.00    -0.270 OA
ATOM     24  H   UNL     1      -6.327   0.623  -2.001  0.00  0.00    +0.156 HD
BRANCH  22  25
ATOM     25  C   UNL     1      -7.614   2.023  -3.785  0.00  0.00    +0.041 A 
ATOM     26  C   UNL     1      -8.205   0.766  -3.638  0.00  0.00    +0.017 A 
ATOM     27  C   UNL     1      -9.317   0.436  -4.382  0.00  0.00    +0.050 A 
ATOM     28  C   UNL     1      -9.846   1.347  -5.286  0.00  0.00    +0.162 A 
ATOM     29  C   UNL     1      -9.258   2.601  -5.442  0.00  0.00    +0.162 A 
ATOM     30  C   UNL     1      -8.146   2.940  -4.695  0.00  0.00    +0.062 A 
BRANCH  29  31
ATOM     31  O   UNL     1      -9.779   3.491  -6.329  0.00  0.00    -0.491 OA
ATOM     32  C   UNL     1      -9.126   4.758  -6.436  0.00  0.00    +0.277 C 
ENDBRANCH  29  31
BRANCH  28  33
ATOM     33  O   UNL     1     -10.939   1.015  -6.021  0.00  0.00    -0.491 OA
ATOM     34  C   UNL     1     -11.491  -0.286  -5.811  0.00  0.00    +0.277 C 
ENDBRANCH  28  33
ENDBRANCH  22  25
ENDBRANCH   6  21
TORSDOF 5
