REMARK  Name = ZINC09137154
REMARK  5 active torsions:
REMARK  status: ('A' for Active; 'I' for Inactive)
REMARK    1  A    between atoms: C_4  and  C_7
REMARK    2  A    between atoms: C_7  and  N_8
REMARK    3  A    between atoms: C_11  and  C_17
REMARK    4  A    between atoms: C_12  and  O_16
REMARK    5  A    between atoms: C_14  and  O_15
REMARK                            x       y       z     vdW  Elec       q    Type
REMARK                         _______ _______ _______ _____ _____    ______ ____
ROOT
ATOM      1  N   UNL     1       5.708  -3.146   3.127  0.00  0.00    -0.258 N 
ATOM      2  C   UNL     1       4.650  -3.216   2.293  0.00  0.00    +0.262 A 
ATOM      3  O   UNL     1       3.511  -3.168   2.729  0.00  0.00    -0.267 OA
ATOM      4  C   UNL     1       4.882  -3.348   0.918  0.00  0.00    +0.070 A 
ATOM      5  C   UNL     1       6.189  -3.392   0.466  0.00  0.00    +0.224 A 
ATOM      6  N   UNL     1       7.197  -3.313   1.342  0.00  0.00    -0.161 NA
ATOM      7  C   UNL     1       6.972  -3.194   2.631  0.00  0.00    +0.302 A 
ENDROOT
BRANCH   4   8
ATOM      8  C   UNL     1       3.731  -3.435  -0.051  0.00  0.00    +0.018 C 
ATOM      9  C   UNL     1       2.956  -2.138  -0.038  0.00  0.00    +0.011 A 
ATOM     10  C   UNL     1       1.609  -2.088  -0.027  0.00  0.00    -0.022 A 
ATOM     11  C   UNL     1       1.222  -0.683  -0.014  0.00  0.00    +0.003 A 
ATOM     12  C   UNL     1       0.002  -0.004   0.002  0.00  0.00    +0.010 A 
ATOM     13  C   UNL     1      -0.016   1.361   0.009  0.00  0.00    +0.001 A 
ATOM     14  C   UNL     1       1.170   2.083   0.002  0.00  0.00    +0.002 A 
ATOM     15  C   UNL     1       2.385   1.435  -0.013  0.00  0.00    +0.026 A 
ATOM     16  C   UNL     1       2.429   0.045  -0.021  0.00  0.00    +0.047 A 
ATOM     17  N   UNL     1       3.460  -0.870  -0.035  0.00  0.00    -0.359 N 
ATOM     18  H   UNL     1       4.403  -0.645  -0.042  0.00  0.00    +0.166 HD
ATOM     19  C   UNL     1       0.725  -3.310  -0.030  0.00  0.00    +0.018 C 
ATOM     20  C   UNL     1       1.586  -4.513  -0.440  0.00  0.00    -0.076 C 
ATOM     21  N   UNL     1       2.826  -4.531   0.363  0.00  0.00    +0.388 N 
ATOM     22  H   UNL     1       2.587  -4.415   1.355  0.00  0.00    -0.084 HD
ATOM     23  H   UNL     1       3.302  -5.431   0.229  0.00  0.00    -0.084 HD
ENDBRANCH   4   8
BRANCH   7  24
ATOM     24  O   UNL     1       8.018  -3.118   3.479  0.00  0.00    -0.479 OA
ATOM     25  H   UNL     1       8.902  -3.155   3.090  0.00  0.00    +0.295 HD
ENDBRANCH   7  24
BRANCH   5  26
ATOM     26  O   UNL     1       6.447  -3.515  -0.857  0.00  0.00    -0.492 OA
ATOM     27  H   UNL     1       7.389  -3.537  -1.074  0.00  0.00    +0.294 HD
ENDBRANCH   5  26
BRANCH   1  28
ATOM     28  C   UNL     1       5.495  -3.012   4.570  0.00  0.00    +0.165 C 
BRANCH  28  32
ATOM     29  C   UNL     1       5.293   1.129   5.602  0.00  0.00    +0.000 A 
ATOM     30  C   UNL     1       4.141   0.444   5.261  0.00  0.00    +0.000 A 
ATOM     31  C   UNL     1       4.207  -0.895   4.927  0.00  0.00    +0.005 A 
ATOM     32  C   UNL     1       5.423  -1.551   4.934  0.00  0.00    -0.028 A 
ATOM     33  C   UNL     1       6.574  -0.868   5.281  0.00  0.00    +0.005 A 
ATOM     34  C   UNL     1       6.510   0.473   5.609  0.00  0.00    +0.000 A 
ENDBRANCH  28  32
ENDBRANCH   1  28
TORSDOF 5
