REMARK  Name = ZINC02196920
REMARK  2 active torsions:
REMARK  status: ('A' for Active; 'I' for Inactive)
REMARK    1  A    between atoms: C_6  and  N_7
REMARK    2  A    between atoms: N_13  and  C_14
REMARK                            x       y       z     vdW  Elec       q    Type
REMARK                         _______ _______ _______ _____ _____    ______ ____
ROOT
ATOM      1  N   UNL     1      -3.108   1.785   0.256  0.00  0.00    -0.269 N 
ATOM      2  C   UNL     1      -1.950   1.097   0.225  0.00  0.00    +0.311 C 
ATOM      3  O   UNL     1      -1.963  -0.117   0.287  0.00  0.00    -0.252 OA
ATOM      4  N   UNL     1      -0.778   1.754   0.126  0.00  0.00    -0.223 N 
ATOM      5  C   UNL     1       0.381   1.066   0.095  0.00  0.00    +0.322 C 
ATOM      6  O   UNL     1       0.365  -0.148   0.063  0.00  0.00    -0.251 OA
ATOM      7  N   UNL     1       1.556   1.725   0.095  0.00  0.00    -0.177 N 
ATOM      8  C   UNL     1       2.714   1.038   0.169  0.00  0.00    +0.320 C 
ATOM      9  O   UNL     1       2.702  -0.177   0.148  0.00  0.00    -0.251 OA
ATOM     10  N   UNL     1       3.884   1.699   0.266  0.00  0.00    -0.243 N 
ATOM     11  C   UNL     1       5.075   1.001   0.236  0.00  0.00    +0.162 C 
ATOM     12  C   UNL     1       6.537  -0.701   0.096  0.00  0.00    +0.102 C 
ATOM     13  C   UNL     1       6.821  -1.948   0.868  0.00  0.00    +0.026 C 
ATOM     14  C   UNL     1       7.271  -1.681   2.301  0.00  0.00    +0.002 C 
ATOM     15  C   UNL     1       8.479  -0.736   2.240  0.00  0.00    +0.002 C 
ATOM     16  C   UNL     1       7.993   0.621   1.749  0.00  0.00    +0.024 C 
ATOM     17  C   UNL     1       7.335   0.550   0.386  0.00  0.00    +0.095 C 
ATOM     18  N   UNL     1       6.298   1.612   0.324  0.00  0.00    -0.314 N 
ATOM     19  H   UNL     1      -3.105   2.746   0.124  0.00  0.00    +0.156 HD
ATOM     20  H   UNL     1      -0.768   2.723   0.077  0.00  0.00    +0.161 HD
ATOM     21  H   UNL     1       3.890   2.665   0.356  0.00  0.00    +0.159 HD
ATOM     22  H   UNL     1       6.458   2.568   0.344  0.00  0.00    +0.149 HD
ATOM     23  N   UNL     1       5.137  -0.286   0.117  0.00  0.00    -0.356 N 
ATOM     24  H   UNL     1       4.329  -0.916   0.048  0.00  0.00    +0.162 HD
ENDROOT
BRANCH   1  30
ATOM     25  C   UNL     1      -5.479   1.549  -0.142  0.00  0.00    +0.025 A 
ATOM     26  C   UNL     1      -6.668   0.880   0.074  0.00  0.00    +0.022 A 
ATOM     27  C   UNL     1      -6.704  -0.215   0.919  0.00  0.00    +0.041 A 
ATOM     28  C   UNL     1      -5.547  -0.648   1.544  0.00  0.00    +0.022 A 
ATOM     29  C   UNL     1      -4.354   0.013   1.326  0.00  0.00    +0.025 A 
ATOM     30  C   UNL     1      -4.316   1.113   0.479  0.00  0.00    +0.035 A 
ATOM     31 CL   UNL     1      -8.201  -1.049   1.194  0.00  0.00    -0.084 Cl
ENDBRANCH   1  30
BRANCH   7  32
ATOM     32  C   UNL     1       1.575   3.125   0.018  0.00  0.00    +0.047 A 
ATOM     33  C   UNL     1       2.031   3.874   1.094  0.00  0.00    +0.025 A 
ATOM     34  C   UNL     1       2.054   5.253   1.014  0.00  0.00    +0.022 A 
ATOM     35  C   UNL     1       1.612   5.888  -0.134  0.00  0.00    +0.041 A 
ATOM     36  C   UNL     1       1.152   5.143  -1.206  0.00  0.00    +0.022 A 
ATOM     37  C   UNL     1       1.133   3.764  -1.132  0.00  0.00    +0.025 A 
ATOM     38 CL   UNL     1       1.635   7.621  -0.229  0.00  0.00    -0.084 Cl
ENDBRANCH   7  32
TORSDOF 2
