REMARK  Name = ZINC35848676
REMARK  14 active torsions:
REMARK  status: ('A' for Active; 'I' for Inactive)
REMARK    1  A    between atoms: C_1  and  C_2
REMARK    2  A    between atoms: C_2  and  O_3
REMARK    3  A    between atoms: O_3  and  N_4
REMARK    4  A    between atoms: C_5  and  C_7
REMARK    5  A    between atoms: C_7  and  N_8
REMARK    6  A    between atoms: C_11  and  C_22
REMARK    7  A    between atoms: N_13  and  C_14
REMARK    8  A    between atoms: C_17  and  O_20
REMARK    9  A    between atoms: O_20  and  C_21
REMARK   10  A    between atoms: C_22  and  C_23
REMARK   11  A    between atoms: C_22  and  C_24
REMARK   12  A    between atoms: C_22  and  C_25
REMARK   13  A    between atoms: C_26  and  C_32
REMARK   14  A    between atoms: C_36  and  C_38
REMARK                            x       y       z     vdW  Elec       q    Type
REMARK                         _______ _______ _______ _____ _____    ______ ____
ROOT
ATOM      1  N   UNL     1      -2.668  -4.175   2.906  0.00  0.00    -0.246 N 
ATOM      2  C   UNL     1      -3.971  -4.643   3.131  0.00  0.00    +0.136 A 
ATOM      3  C   UNL     1      -5.081  -3.884   2.982  0.00  0.00    +0.034 A 
ATOM      4  C   UNL     1      -6.188  -4.679   3.282  0.00  0.00    +0.075 A 
ATOM      5  N   UNL     1      -5.758  -5.876   3.604  0.00  0.00    -0.169 NA
ATOM      6  N   UNL     1      -4.357  -5.882   3.519  0.00  0.00    -0.218 N 
ATOM      7  C   UNL     1      -5.083  -2.434   2.569  0.00  0.00    +0.112 C 
ATOM      8  S   UNL     1      -4.687  -2.336   0.786  0.00  0.00    -0.138 S 
ATOM      9  C   UNL     1      -3.372  -3.589   0.623  0.00  0.00    +0.166 C 
ATOM     10  C   UNL     1      -2.418  -3.504   1.777  0.00  0.00    +0.231 C 
ATOM     11  O   UNL     1      -1.415  -2.828   1.685  0.00  0.00    -0.274 OA
ENDROOT
BRANCH   7  12
ATOM     12  C   UNL     1      -6.443  -1.837   2.823  0.00  0.00    -0.030 A 
ATOM     13  C   UNL     1      -6.734  -1.279   4.054  0.00  0.00    +0.005 A 
ATOM     14  C   UNL     1      -7.981  -0.732   4.287  0.00  0.00    +0.001 A 
ATOM     15  C   UNL     1      -8.938  -0.742   3.289  0.00  0.00    +0.003 A 
ATOM     16  C   UNL     1      -8.647  -1.299   2.058  0.00  0.00    -0.050 A 
ATOM     17  C   UNL     1      -7.398  -1.843   1.824  0.00  0.00    +0.008 A 
ATOM     18  C   UNL     1      -9.690  -1.311   0.971  0.00  0.00    +0.044 C 
ENDBRANCH   7  12
BRANCH   6  19
ATOM     19  C   UNL     1      -3.513  -6.970   3.786  0.00  0.00    +0.068 A 
ATOM     20  C   UNL     1      -2.349  -7.143   3.050  0.00  0.00    +0.031 A 
ATOM     21  C   UNL     1      -1.518  -8.213   3.314  0.00  0.00    +0.048 A 
ATOM     22  C   UNL     1      -1.847  -9.116   4.315  0.00  0.00    +0.120 A 
ATOM     23  C   UNL     1      -3.010  -8.944   5.051  0.00  0.00    +0.048 A 
ATOM     24  C   UNL     1      -3.838  -7.870   4.791  0.00  0.00    +0.031 A 
BRANCH  22  25
ATOM     25  O   UNL     1      -1.028 -10.171   4.574  0.00  0.00    -0.495 OA
ATOM     26  C   UNL     1      -1.428 -11.061   5.618  0.00  0.00    +0.277 C 
ENDBRANCH  22  25
ENDBRANCH   6  19
BRANCH   4  27
ATOM     27  C   UNL     1      -7.628  -4.238   3.243  0.00  0.00    +0.007 C 
ATOM     28  C   UNL     1      -8.001  -3.838   1.814  0.00  0.00    +0.017 C 
ATOM     29  C   UNL     1      -8.526  -5.389   3.701  0.00  0.00    +0.017 C 
ATOM     30  C   UNL     1      -7.821  -3.040   4.175  0.00  0.00    +0.017 C 
ENDBRANCH   4  27
BRANCH   1  31
ATOM     31  C   UNL     1      -1.607  -4.410   3.889  0.00  0.00    +0.212 C 
BRANCH  31  33
ATOM     32  N   UNL     1      -0.673  -3.274   5.877  0.00  0.00    -0.193 N 
ATOM     33  C   UNL     1      -1.575  -3.272   4.876  0.00  0.00    +0.253 C 
ATOM     34  O   UNL     1      -2.361  -2.355   4.770  0.00  0.00    -0.272 OA
ATOM     35  H   UNL     1      -0.044  -4.008   5.962  0.00  0.00    +0.182 HD
BRANCH  32  36
ATOM     36  O   UNL     1      -0.643  -2.205   6.805  0.00  0.00    -0.280 OA
BRANCH  36  38
ATOM     37  C   UNL     1       0.302  -1.133   8.754  0.00  0.00    +0.036 C 
ATOM     38  C   UNL     1       0.362  -2.337   7.812  0.00  0.00    +0.187 C 
ENDBRANCH  36  38
ENDBRANCH  32  36
ENDBRANCH  31  33
ENDBRANCH   1  31
TORSDOF 8
