REMARK  Name = ZINC28048913
REMARK  6 active torsions:
REMARK  status: ('A' for Active; 'I' for Inactive)
REMARK    1  A    between atoms: C_1  and  O_2
REMARK    2  A    between atoms: O_2  and  C_3
REMARK    3  A    between atoms: C_8  and  N_9
REMARK    4  A    between atoms: N_12  and  C_13
REMARK    5  A    between atoms: C_22  and  O_23
REMARK    6  A    between atoms: N_24  and  C_25
REMARK                            x       y       z     vdW  Elec       q    Type
REMARK                         _______ _______ _______ _____ _____    ______ ____
ROOT
ATOM      1  C   UNL     1       3.545   3.169  -0.134  0.00  0.00    +0.140 A 
ATOM      2  C   UNL     1       2.477   3.911  -0.608  0.00  0.00    +0.075 A 
ATOM      3  C   UNL     1       1.140   3.298  -0.561  0.00  0.00    +0.042 A 
ATOM      4  C   UNL     1       0.016   3.988  -1.021  0.00  0.00    +0.013 A 
ATOM      5  C   UNL     1      -1.222   3.387  -0.964  0.00  0.00    +0.001 A 
ATOM      6  C   UNL     1      -1.354   2.103  -0.456  0.00  0.00    +0.004 A 
ATOM      7  C   UNL     1      -0.254   1.413   0.007  0.00  0.00    +0.047 A 
ATOM      8  C   UNL     1       1.004   2.000  -0.042  0.00  0.00    +0.141 A 
ATOM      9  O   UNL     1       2.091   1.334   0.404  0.00  0.00    -0.424 OA
ATOM     10  C   UNL     1       3.319   1.875   0.369  0.00  0.00    +0.309 A 
ATOM     11  N   UNL     1       2.660   5.185  -1.110  0.00  0.00    -0.380 N 
ATOM     12  H   UNL     1       2.691   6.046  -0.426  0.00  0.00    +0.160 HD
ENDROOT
BRANCH   1  16
ATOM     13  N   UNL     1       7.150   3.406  -0.368  0.00  0.00    -0.266 N 
ATOM     14  C   UNL     1       5.900   2.905  -0.409  0.00  0.00    +0.308 C 
ATOM     15  O   UNL     1       5.723   1.732  -0.675  0.00  0.00    -0.252 OA
ATOM     16  N   UNL     1       4.845   3.705  -0.155  0.00  0.00    -0.262 N 
ATOM     17  H   UNL     1       7.317   4.443  -0.042  0.00  0.00    +0.156 HD
ATOM     18  H   UNL     1       5.001   4.777   0.036  0.00  0.00    +0.157 HD
BRANCH  13  24
ATOM     19  C   UNL     1       9.511   2.881  -0.247  0.00  0.00    +0.141 A 
ATOM     20  C   UNL     1      10.582   2.086  -0.619  0.00  0.00    +0.049 A 
ATOM     21  C   UNL     1      10.389   1.021  -1.479  0.00  0.00    +0.024 A 
ATOM     22  C   UNL     1       9.125   0.746  -1.971  0.00  0.00    +0.043 A 
ATOM     23  C   UNL     1       8.049   1.532  -1.601  0.00  0.00    +0.047 A 
ATOM     24  C   UNL     1       8.238   2.605  -0.742  0.00  0.00    +0.078 A 
ATOM     25 CL   UNL     1       8.889  -0.592  -3.051  0.00  0.00    -0.083 Cl
BRANCH  19  27
ATOM     26  C   UNL     1      11.032   4.152   1.067  0.00  0.00    +0.277 C 
ATOM     27  O   UNL     1       9.700   3.928   0.599  0.00  0.00    -0.493 OA
ENDBRANCH  19  27
ENDBRANCH  13  24
ENDBRANCH   1  16
BRANCH  11  28
ATOM     28  C   UNL     1       2.790   5.161  -2.573  0.00  0.00    +0.079 C 
ATOM     29  C   UNL     1       4.241   4.817  -2.968  0.00  0.00    +0.024 C 
ATOM     30  C   UNL     1       4.510   5.692  -4.219  0.00  0.00    +0.002 C 
ATOM     31  C   UNL     1       3.776   7.013  -3.878  0.00  0.00    +0.002 C 
ATOM     32  C   UNL     1       2.494   6.556  -3.151  0.00  0.00    +0.024 C 
ENDBRANCH  11  28
BRANCH  10  33
ATOM     33  O   UNL     1       4.265   1.228   0.785  0.00  0.00    -0.479 OA
ATOM     34  H   UNL     1       4.105   0.214   1.181  0.00  0.00    +0.295 HD
ENDBRANCH  10  33
TORSDOF 5
