REMARK  Name = ZINC09905532
REMARK  8 active torsions:
REMARK  status: ('A' for Active; 'I' for Inactive)
REMARK    1  A    between atoms: C_1  and  C_2
REMARK    2  A    between atoms: C_3  and  C_19
REMARK    3  A    between atoms: C_4  and  C_12
REMARK    4  A    between atoms: N_21  and  C_22
REMARK    5  A    between atoms: C_24  and  O_31
REMARK    6  A    between atoms: C_27  and  O_28
REMARK    7  A    between atoms: O_28  and  C_29
REMARK    8  A    between atoms: O_31  and  C_32
REMARK                            x       y       z     vdW  Elec       q    Type
REMARK                         _______ _______ _______ _____ _____    ______ ____
ROOT
ATOM      1  C   UNL     1       5.516   1.925  -0.610  0.00  0.00    +0.061 C 
ATOM      2  C   UNL     1       4.044   1.875  -0.290  0.00  0.00    +0.018 C 
ATOM      3  C   UNL     1       3.343   3.018  -0.285  0.00  0.00    +0.060 C 
ATOM      4  C   UNL     1       1.873   3.080   0.033  0.00  0.00    +0.177 C 
ATOM      5  N   UNL     1       1.318   1.729   0.034  0.00  0.00    -0.221 N 
ATOM      6  C   UNL     1       2.078   0.606   0.017  0.00  0.00    +0.218 A 
ATOM      7  N   UNL     1       1.276  -0.423   0.034  0.00  0.00    -0.201 NA
ATOM      8  C   UNL     1       0.008  -0.001   0.056  0.00  0.00    +0.247 A 
ATOM      9  N   UNL     1      -0.010   1.309   0.055  0.00  0.00    -0.156 NA
ATOM     10  N   UNL     1       3.465   0.660  -0.014  0.00  0.00    -0.287 N 
ATOM     11  H   UNL     1       4.004  -0.129   0.152  0.00  0.00    +0.155 HD
ENDROOT
BRANCH   4  12
ATOM     12  C   UNL     1       1.678   3.704   1.391  0.00  0.00    -0.017 A 
ATOM     13  C   UNL     1       2.232   3.110   2.510  0.00  0.00    +0.006 A 
ATOM     14  C   UNL     1       2.059   3.685   3.755  0.00  0.00    +0.001 A 
ATOM     15  C   UNL     1       1.321   4.847   3.884  0.00  0.00    +0.015 A 
ATOM     16  C   UNL     1       0.762   5.438   2.765  0.00  0.00    +0.018 A 
ATOM     17  C   UNL     1       0.941   4.865   1.519  0.00  0.00    +0.021 A 
ATOM     18 BR   UNL     1      -0.247   7.027   2.941  0.00  0.00    -0.050 Br
ENDBRANCH   4  12
BRANCH   3  19
ATOM     19  C   UNL     1       4.017   4.224  -0.593  0.00  0.00    +0.248 C 
ATOM     20  O   UNL     1       5.207   4.206  -0.855  0.00  0.00    -0.270 OA
ATOM     21  N   UNL     1       3.343   5.391  -0.596  0.00  0.00    -0.279 N 
ATOM     22  H   UNL     1       2.382   5.396  -0.468  0.00  0.00    +0.155 HD
BRANCH  21  23
ATOM     23  C   UNL     1       4.031   6.596  -0.786  0.00  0.00    +0.079 A 
ATOM     24  C   UNL     1       5.378   6.686  -0.464  0.00  0.00    +0.074 A 
ATOM     25  C   UNL     1       6.057   7.878  -0.657  0.00  0.00    +0.140 A 
ATOM     26  C   UNL     1       5.389   8.985  -1.163  0.00  0.00    +0.086 A 
ATOM     27  C   UNL     1       4.045   8.899  -1.480  0.00  0.00    +0.071 A 
ATOM     28  C   UNL     1       3.363   7.708  -1.293  0.00  0.00    +0.143 A 
ATOM     29 CL   UNL     1       6.241  10.479  -1.398  0.00  0.00    -0.080 Cl
BRANCH  28  30
ATOM     30  O   UNL     1       2.042   7.624  -1.606  0.00  0.00    -0.493 OA
ATOM     31  C   UNL     1       1.421   8.804  -2.121  0.00  0.00    +0.277 C 
ENDBRANCH  28  30
BRANCH  25  32
ATOM     32  O   UNL     1       7.378   7.966  -0.346  0.00  0.00    -0.494 OA
ATOM     33  C   UNL     1       8.002   6.788   0.170  0.00  0.00    +0.277 C 
ENDBRANCH  25  32
ENDBRANCH  21  23
ENDBRANCH   3  19
TORSDOF 5
