REMARK  Name = ZINC11662642
REMARK  8 active torsions:
REMARK  status: ('A' for Active; 'I' for Inactive)
REMARK    1  A    between atoms: C_1  and  O_2
REMARK    2  A    between atoms: O_2  and  C_3
REMARK    3  A    between atoms: C_8  and  C_9
REMARK    4  A    between atoms: C_10  and  C_11
REMARK    5  A    between atoms: C_11  and  N_67
REMARK    6  A    between atoms: C_17  and  C_19
REMARK    7  A    between atoms: C_19  and  C_20
REMARK    8  A    between atoms: N_22  and  C_23
REMARK                            x       y       z     vdW  Elec       q    Type
REMARK                         _______ _______ _______ _____ _____    ______ ____
ROOT
ATOM      1  C   UNL     1       0.099   3.676   0.438  0.00  0.00    -0.058 C 
ATOM      2  C   UNL     1      -1.266   2.990   0.355  0.00  0.00    +0.085 C 
ATOM      3  N   UNL     1      -1.099   1.539   0.334  0.00  0.00    -0.318 N 
ATOM      4  C   UNL     1       0.063   0.946   0.039  0.00  0.00    +0.200 C 
ATOM      5  O   UNL     1       0.108  -0.266   0.019  0.00  0.00    -0.278 OA
ATOM      6  C   UNL     1       1.313   1.718  -0.275  0.00  0.00    +0.028 C 
ATOM      7  H   UNL     1      -1.863   0.982   0.547  0.00  0.00    +0.149 HD
ATOM      8  N   UNL     1       0.960   3.108  -0.619  0.00  0.00    +0.391 N 
ATOM      9  H   UNL     1       0.448   3.114  -1.509  0.00  0.00    -0.080 HD
ENDROOT
BRANCH   8  10
ATOM     10  C   UNL     1       2.188   3.922  -0.765  0.00  0.00    -0.050 C 
BRANCH  10  12
ATOM     11  C   UNL     1       2.290   6.314  -0.219  0.00  0.00    +0.005 C 
ATOM     12  C   UNL     1       1.803   5.359  -1.001  0.00  0.00    -0.045 C 
BRANCH  11  18
ATOM     13  C   UNL     1       2.419   8.732   0.376  0.00  0.00    +0.127 A 
ATOM     14  C   UNL     1       2.062  10.051   0.149  0.00  0.00    +0.046 A 
ATOM     15  C   UNL     1       1.201  10.367  -0.885  0.00  0.00    +0.004 A 
ATOM     16  C   UNL     1       0.693   9.372  -1.701  0.00  0.00    +0.001 A 
ATOM     17  C   UNL     1       1.043   8.054  -1.490  0.00  0.00    +0.011 A 
ATOM     18  C   UNL     1       1.912   7.723  -0.451  0.00  0.00    +0.016 A 
BRANCH  13  20
ATOM     19  C   UNL     1       3.740   9.502   2.196  0.00  0.00    +0.277 C 
ATOM     20  O   UNL     1       3.262   8.420   1.395  0.00  0.00    -0.495 OA
ENDBRANCH  13  20
ENDBRANCH  11  18
ENDBRANCH  10  12
ENDBRANCH   8  10
BRANCH   6  21
ATOM     21  C   UNL     1       2.021   1.075  -1.469  0.00  0.00    +0.089 C 
BRANCH  21  22
ATOM     22  C   UNL     1       1.145   1.184  -2.691  0.00  0.00    +0.212 C 
ATOM     23  O   UNL     1       0.112   1.817  -2.641  0.00  0.00    -0.276 OA
ATOM     24  N   UNL     1       1.510   0.579  -3.838  0.00  0.00    -0.312 N 
ATOM     25  H   UNL     1       2.336   0.072  -3.878  0.00  0.00    +0.149 HD
BRANCH  24  26
ATOM     26  C   UNL     1       0.658   0.685  -5.026  0.00  0.00    +0.079 C 
ATOM     27  C   UNL     1      -0.426  -0.392  -4.974  0.00  0.00    +0.010 C 
ATOM     28  C   UNL     1      -1.316  -0.281  -6.214  0.00  0.00    +0.009 C 
ATOM     29  C   UNL     1      -0.465  -0.474  -7.471  0.00  0.00    -0.010 C 
ATOM     30  C   UNL     1       0.191  -1.856  -7.435  0.00  0.00    +0.007 C 
ATOM     31  C   UNL     1       1.080  -1.968  -6.195  0.00  0.00    -0.010 C 
ATOM     32  C   UNL     1       0.229  -1.774  -4.939  0.00  0.00    +0.009 C 
ATOM     33  C   UNL     1       2.165  -0.890  -6.247  0.00  0.00    +0.009 C 
ATOM     34  C   UNL     1       1.509   0.492  -6.282  0.00  0.00    +0.010 C 
ATOM     35  C   UNL     1       0.620   0.604  -7.522  0.00  0.00    +0.009 C 
ENDBRANCH  24  26
ENDBRANCH  21  22
ENDBRANCH   6  21
TORSDOF 7
