REMARK  Name = ZINC59170730
REMARK  7 active torsions:
REMARK  status: ('A' for Active; 'I' for Inactive)
REMARK    1  A    between atoms: C_1  and  O_2
REMARK    2  A    between atoms: O_2  and  C_3
REMARK    3  A    between atoms: C_8  and  N_9
REMARK    4  A    between atoms: C_10  and  C_12
REMARK    5  A    between atoms: N_22  and  C_23
REMARK    6  A    between atoms: C_26  and  S_29
REMARK    7  A    between atoms: S_29  and  N_32
REMARK                            x       y       z     vdW  Elec       q    Type
REMARK                         _______ _______ _______ _____ _____    ______ ____
ROOT
ATOM      1  C   UNL     1      -0.219  -4.888  -1.051  0.00  0.00    +0.098 A 
ATOM      2  C   UNL     1      -0.180  -6.275  -1.000  0.00  0.00    +0.030 A 
ATOM      3  C   UNL     1      -0.776  -7.007  -2.120  0.00  0.00    +0.020 A 
ATOM      4  C   UNL     1      -1.019  -8.383  -2.028  0.00  0.00    +0.031 A 
ATOM      5  C   UNL     1      -1.584  -9.046  -3.095  0.00  0.00    +0.042 A 
ATOM      6  C   UNL     1      -1.911  -8.358  -4.256  0.00  0.00    +0.023 A 
ATOM      7  C   UNL     1      -1.676  -7.003  -4.361  0.00  0.00    +0.048 A 
ATOM      8  C   UNL     1      -1.107  -6.314  -3.300  0.00  0.00    +0.138 A 
ATOM      9  O   UNL     1      -0.864  -4.984  -3.391  0.00  0.00    -0.439 OA
ATOM     10  C   UNL     1      -0.864  -4.277  -2.230  0.00  0.00    +0.212 A 
ATOM     11  N   UNL     1      -1.416  -3.085  -2.159  0.00  0.00    -0.325 N 
ATOM     12 CL   UNL     1      -1.887 -10.752  -2.988  0.00  0.00    -0.084 Cl
ATOM     13  H   UNL     1      -1.509  -2.644  -1.300  0.00  0.00    +0.169 HD
ENDROOT
BRANCH  11  14
ATOM     14  C   UNL     1      -1.859  -2.467  -3.296  0.00  0.00    +0.042 A 
ATOM     15  C   UNL     1      -1.068  -2.465  -4.447  0.00  0.00    +0.027 A 
ATOM     16  C   UNL     1      -1.521  -1.840  -5.590  0.00  0.00    +0.030 A 
ATOM     17  C   UNL     1      -2.757  -1.217  -5.598  0.00  0.00    +0.105 A 
ATOM     18  C   UNL     1      -3.546  -1.216  -4.461  0.00  0.00    +0.030 A 
ATOM     19  C   UNL     1      -3.108  -1.841  -3.313  0.00  0.00    +0.027 A 
BRANCH  17  20
ATOM     20  S   UNL     1      -3.327  -0.421  -7.063  0.00  0.00    +0.056 S 
ATOM     21  O   UNL     1      -4.273   0.556  -6.652  0.00  0.00    -0.153 OA
ATOM     22  O   UNL     1      -2.172  -0.091  -7.822  0.00  0.00    -0.153 OA
BRANCH  20  23
ATOM     23  N   UNL     1      -4.163  -1.550  -7.939  0.00  0.00    -0.204 NA
ATOM     24  H   UNL     1      -4.896  -1.274  -8.513  0.00  0.00    +0.144 HD
ATOM     25  H   UNL     1      -3.921  -2.487  -7.880  0.00  0.00    +0.144 HD
ENDBRANCH  20  23
ENDBRANCH  17  20
ENDBRANCH  11  14
BRANCH   1  27
ATOM     26  N   UNL     1       0.397  -2.722  -0.102  0.00  0.00    -0.278 N 
ATOM     27  C   UNL     1       0.353  -4.063   0.026  0.00  0.00    +0.253 C 
ATOM     28  O   UNL     1       0.786  -4.591   1.033  0.00  0.00    -0.270 OA
ATOM     29  H   UNL     1       0.009  -2.297  -0.883  0.00  0.00    +0.155 HD
BRANCH  26  35
ATOM     30  C   UNL     1       1.448  -0.656   0.595  0.00  0.00    +0.141 A 
ATOM     31  C   UNL     1       2.041   0.113   1.583  0.00  0.00    +0.047 A 
ATOM     32  C   UNL     1       2.195  -0.399   2.858  0.00  0.00    +0.004 A 
ATOM     33  C   UNL     1       1.758  -1.677   3.151  0.00  0.00    +0.002 A 
ATOM     34  C   UNL     1       1.165  -2.451   2.172  0.00  0.00    +0.027 A 
ATOM     35  C   UNL     1       1.002  -1.942   0.891  0.00  0.00    +0.076 A 
BRANCH  30  37
ATOM     36  C   UNL     1       1.777   1.171  -0.891  0.00  0.00    +0.277 C 
ATOM     37  O   UNL     1       1.296  -0.154  -0.660  0.00  0.00    -0.493 OA
ENDBRANCH  30  37
ENDBRANCH  26  35
ENDBRANCH   1  27
TORSDOF 6
