REMARK  Name = ZINC64182231
REMARK  5 active torsions:
REMARK  status: ('A' for Active; 'I' for Inactive)
REMARK    1  A    between atoms: C_1  and  C_2
REMARK    2  A    between atoms: C_5  and  S_25
REMARK    3  A    between atoms: C_7  and  C_8
REMARK    4  A    between atoms: C_13  and  C_16
REMARK    5  A    between atoms: S_25  and  N_28
REMARK                            x       y       z     vdW  Elec       q    Type
REMARK                         _______ _______ _______ _____ _____    ______ ____
ROOT
ATOM      1  C   UNL     1       0.105   0.371   2.501  0.00  0.00    +0.247 C 
ATOM      2  O   UNL     1       0.118   1.584   2.576  0.00  0.00    -0.270 OA
ATOM      3  N   UNL     1       0.314  -0.375   3.603  0.00  0.00    -0.293 N 
ATOM      4  C   UNL     1       0.485   0.247   4.927  0.00  0.00    +0.113 C 
ATOM      5  C   UNL     1      -0.663  -0.222   5.823  0.00  0.00    +0.054 C 
ATOM      6  C   UNL     1      -0.860  -1.703   5.690  0.00  0.00    -0.043 C 
ATOM      7  C   UNL     1      -0.408  -2.426   4.673  0.00  0.00    -0.004 C 
ATOM      8  C   UNL     1       0.372  -1.842   3.533  0.00  0.00    +0.135 C 
ENDROOT
BRANCH   6   9
ATOM      9  C   UNL     1      -1.571  -2.369   6.709  0.00  0.00    -0.016 C 
ATOM     10  C   UNL     1      -2.234  -1.792   7.785  0.00  0.00    +0.003 A 
ATOM     11  C   UNL     1      -2.409  -0.449   8.191  0.00  0.00    +0.010 A 
ATOM     12  C   UNL     1      -3.122  -0.172   9.310  0.00  0.00    +0.001 A 
ATOM     13  C   UNL     1      -3.695  -1.187  10.084  0.00  0.00    +0.002 A 
ATOM     14  C   UNL     1      -3.569  -2.494   9.757  0.00  0.00    +0.026 A 
ATOM     15  C   UNL     1      -2.836  -2.865   8.597  0.00  0.00    +0.043 A 
ATOM     16  N   UNL     1      -2.573  -4.042   8.073  0.00  0.00    -0.380 N 
ATOM     17  C   UNL     1      -1.774  -3.861   6.857  0.00  0.00    +0.149 C 
ATOM     18  H   UNL     1      -2.864  -4.895   8.432  0.00  0.00    +0.160 HD
ENDBRANCH   6   9
BRANCH   1  25
ATOM     19  C   UNL     1      -2.218   1.107   0.940  0.00  0.00    +0.044 C 
ATOM     20  C   UNL     1      -1.256   0.061   0.438  0.00  0.00    -0.038 A 
ATOM     21  C   UNL     1      -1.476  -0.551  -0.779  0.00  0.00    +0.006 A 
ATOM     22  C   UNL     1      -0.594  -1.512  -1.242  0.00  0.00    +0.029 A 
ATOM     23  C   UNL     1       0.512  -1.865  -0.490  0.00  0.00    +0.106 A 
ATOM     24  C   UNL     1       0.743  -1.260   0.728  0.00  0.00    +0.041 A 
ATOM     25  C   UNL     1      -0.140  -0.286   1.199  0.00  0.00    +0.042 A 
BRANCH  23  26
ATOM     26  S   UNL     1       1.628  -3.090  -1.088  0.00  0.00    +0.056 S 
ATOM     27  O   UNL     1       2.284  -3.632   0.049  0.00  0.00    -0.153 OA
ATOM     28  O   UNL     1       0.895  -3.896  -2.000  0.00  0.00    -0.153 OA
BRANCH  26  29
ATOM     29  N   UNL     1       2.786  -2.306  -1.975  0.00  0.00    -0.204 NA
ATOM     30  H   UNL     1       2.751  -1.342  -2.075  0.00  0.00    +0.144 HD
ATOM     31  H   UNL     1       3.500  -2.811  -2.394  0.00  0.00    +0.144 HD
ENDBRANCH  26  29
ENDBRANCH  23  26
ENDBRANCH   1  25
TORSDOF 4
