REMARK  Name = ZINC21794821
REMARK  8 active torsions:
REMARK  status: ('A' for Active; 'I' for Inactive)
REMARK    1  A    between atoms: C_1  and  C_2
REMARK    2  A    between atoms: C_6  and  N_8
REMARK    3  A    between atoms: N_13  and  C_14
REMARK    4  A    between atoms: C_17  and  N_20
REMARK    5  A    between atoms: N_20  and  S_21
REMARK    6  A    between atoms: S_21  and  C_24
REMARK    7  A    between atoms: C_27  and  N_30
REMARK    8  A    between atoms: C_31  and  C_33
REMARK                            x       y       z     vdW  Elec       q    Type
REMARK                         _______ _______ _______ _____ _____    ______ ____
ROOT
ATOM      1  C   UNL     1       2.375   8.354   3.534  0.00  0.00    +0.032 A 
ATOM      2  C   UNL     1       1.844   9.579   3.155  0.00  0.00    +0.025 A 
ATOM      3  C   UNL     1       0.805   9.630   2.247  0.00  0.00    +0.026 A 
ATOM      4  C   UNL     1       0.292   8.456   1.712  0.00  0.00    +0.048 A 
ATOM      5  C   UNL     1       0.820   7.230   2.095  0.00  0.00    +0.026 A 
ATOM      6  C   UNL     1       1.862   7.179   3.000  0.00  0.00    +0.025 A 
ENDROOT
BRANCH   1  14
ATOM      7  C   UNL     1       5.848   6.032   7.916  0.00  0.00    +0.086 C 
ATOM      8  C   UNL     1       4.617   6.159   7.055  0.00  0.00    +0.107 A 
ATOM      9  N   UNL     1       4.555   7.130   6.167  0.00  0.00    -0.332 N 
ATOM     10  C   UNL     1       3.486   7.276   5.387  0.00  0.00    +0.105 A 
ATOM     11  C   UNL     1       2.423   6.387   5.525  0.00  0.00    +0.085 A 
ATOM     12  C   UNL     1       2.531   5.372   6.470  0.00  0.00    +0.126 A 
ATOM     13  N   UNL     1       3.635   5.294   7.212  0.00  0.00    -0.219 NA
ATOM     14  N   UNL     1       3.429   8.302   4.456  0.00  0.00    -0.301 N 
ATOM     15  H   UNL     1       4.211   9.075   4.441  0.00  0.00    +0.154 HD
ATOM     16  H   UNL     1       5.394   7.834   6.063  0.00  0.00    +0.168 HD
BRANCH  12  17
ATOM     17  N   UNL     1       1.503   4.458   6.642  0.00  0.00    -0.315 N 
ATOM     18  C   UNL     1       1.375   3.572   5.457  0.00  0.00    +0.106 C 
ATOM     19  C   UNL     1       0.603   2.348   6.011  0.00  0.00    +0.020 C 
ATOM     20  C   UNL     1       1.190   2.184   7.432  0.00  0.00    +0.020 C 
ATOM     21  C   UNL     1       1.775   3.563   7.787  0.00  0.00    +0.106 C 
ENDBRANCH  12  17
ENDBRANCH   1  14
BRANCH   4  22
ATOM     22  N   UNL     1      -0.761   8.508   0.791  0.00  0.00    -0.216 N 
ATOM     23  H   UNL     1      -1.772   8.201   1.095  0.00  0.00    +0.174 HD
BRANCH  22  24
ATOM     24  S   UNL     1      -0.483   9.031  -0.755  0.00  0.00    +0.072 S 
ATOM     25  O   UNL     1       0.325  10.195  -0.651  0.00  0.00    -0.150 OA
ATOM     26  O   UNL     1      -1.742   9.033  -1.415  0.00  0.00    -0.150 OA
BRANCH  24  27
ATOM     27  C   UNL     1       0.500   7.805  -1.552  0.00  0.00    +0.109 A 
ATOM     28  C   UNL     1      -0.106   6.814  -2.302  0.00  0.00    +0.030 A 
ATOM     29  C   UNL     1       0.662   5.852  -2.928  0.00  0.00    +0.025 A 
ATOM     30  C   UNL     1       2.045   5.879  -2.802  0.00  0.00    +0.033 A 
ATOM     31  C   UNL     1       2.650   6.872  -2.043  0.00  0.00    +0.025 A 
ATOM     32  C   UNL     1       1.877   7.835  -1.424  0.00  0.00    +0.030 A 
BRANCH  30  33
ATOM     33  N   UNL     1       2.825   4.906  -3.434  0.00  0.00    -0.286 N 
ATOM     34  C   UNL     1       2.461   4.429  -4.641  0.00  0.00    +0.214 C 
ATOM     35  O   UNL     1       1.426   4.801  -5.153  0.00  0.00    -0.276 OA
ATOM     36  C   UNL     1       3.336   3.429  -5.352  0.00  0.00    +0.109 C 
ATOM     37  H   UNL     1       3.737   4.530  -2.947  0.00  0.00    +0.155 HD
ENDBRANCH  30  33
ENDBRANCH  24  27
ENDBRANCH  22  24
ENDBRANCH   4  22
TORSDOF 6
