REMARK  Name = ZINC20617581
REMARK  9 active torsions:
REMARK  status: ('A' for Active; 'I' for Inactive)
REMARK    1  A    between atoms: C_1  and  C_2
REMARK    2  A    between atoms: C_2  and  O_3
REMARK    3  A    between atoms: O_3  and  C_4
REMARK    4  A    between atoms: C_9  and  N_10
REMARK    5  A    between atoms: C_12  and  C_24
REMARK    6  A    between atoms: C_15  and  C_22
REMARK    7  A    between atoms: C_18  and  C_21
REMARK    8  A    between atoms: C_22  and  O_23
REMARK    9  A    between atoms: N_26  and  C_27
REMARK                            x       y       z     vdW  Elec       q    Type
REMARK                         _______ _______ _______ _____ _____    ______ ____
ROOT
ATOM      1  N   UNL     1      -0.051   5.909  -0.350  0.00  0.00    -0.322 N 
ATOM      2  C   UNL     1       1.023   6.390   0.236  0.00  0.00    +0.212 A 
ATOM      3  C   UNL     1       2.295   5.640   0.224  0.00  0.00    +0.098 A 
ATOM      4  C   UNL     1       3.459   6.370   0.322  0.00  0.00    +0.030 A 
ATOM      5  C   UNL     1       3.332   7.824   0.438  0.00  0.00    +0.027 A 
ATOM      6  C   UNL     1       4.433   8.675   0.281  0.00  0.00    +0.007 A 
ATOM      7  C   UNL     1       4.235  10.035   0.402  0.00  0.00    +0.117 A 
ATOM      8  N   UNL     1       3.039  10.532   0.658  0.00  0.00    -0.256 NA
ATOM      9  C   UNL     1       1.974   9.773   0.815  0.00  0.00    +0.081 A 
ATOM     10  C   UNL     1       2.074   8.393   0.713  0.00  0.00    +0.159 A 
ATOM     11  O   UNL     1       0.995   7.592   0.875  0.00  0.00    -0.437 OA
ATOM     12  C   UNL     1       0.638  10.408   1.105  0.00  0.00    +0.069 C 
ATOM     13  H   UNL     1       0.011   4.974  -0.927  0.00  0.00    +0.169 HD
ENDROOT
BRANCH   1  19
ATOM     14  C   UNL     1      -1.643   7.471  -1.235  0.00  0.00    +0.144 A 
ATOM     15  C   UNL     1      -2.855   8.129  -1.119  0.00  0.00    +0.048 A 
ATOM     16  C   UNL     1      -3.663   7.906  -0.018  0.00  0.00    +0.004 A 
ATOM     17  C   UNL     1      -3.270   7.020   0.970  0.00  0.00    +0.002 A 
ATOM     18  C   UNL     1      -2.067   6.351   0.866  0.00  0.00    +0.029 A 
ATOM     19  C   UNL     1      -1.244   6.569  -0.240  0.00  0.00    +0.084 A 
BRANCH  14  20
ATOM     20  O   UNL     1      -0.846   7.695  -2.313  0.00  0.00    -0.490 OA
BRANCH  20  22
ATOM     21  C   UNL     1      -0.295   8.748  -4.418  0.00  0.00    +0.048 C 
ATOM     22  C   UNL     1      -1.319   8.628  -3.287  0.00  0.00    +0.226 C 
ENDBRANCH  20  22
ENDBRANCH  14  20
ENDBRANCH   1  19
BRANCH   3  23
ATOM     23  C   UNL     1       2.318   4.171   0.106  0.00  0.00    +0.253 C 
ATOM     24  O   UNL     1       3.380   3.578   0.094  0.00  0.00    -0.270 OA
ATOM     25  N   UNL     1       1.163   3.484   0.012  0.00  0.00    -0.281 N 
ATOM     26  H   UNL     1       0.206   4.023  -0.052  0.00  0.00    +0.155 HD
BRANCH  25  27
ATOM     27  C   UNL     1       1.179   2.085  -0.004  0.00  0.00    +0.034 A 
ATOM     28  C   UNL     1       0.156   1.370   0.605  0.00  0.00    +0.024 A 
ATOM     29  C   UNL     1       0.175  -0.011   0.587  0.00  0.00    +0.017 A 
ATOM     30  C   UNL     1       1.212  -0.682  -0.037  0.00  0.00    +0.018 A 
ATOM     31  C   UNL     1       2.233   0.028  -0.643  0.00  0.00    +0.017 A 
ATOM     32  C   UNL     1       2.220   1.409  -0.628  0.00  0.00    +0.024 A 
ATOM     33 BR   UNL     1       1.234  -2.572  -0.059  0.00  0.00    -0.050 Br
ENDBRANCH  25  27
ENDBRANCH   3  23
BRANCH   6  34
ATOM     34  C   UNL     1       5.802   8.118  -0.012  0.00  0.00    +0.193 C 
BRANCH  34  35
ATOM     35  O   UNL     1       6.739   9.191  -0.124  0.00  0.00    -0.390 OA
ATOM     36  H   UNL     1       7.797   8.977  -0.337  0.00  0.00    +0.210 HD
ENDBRANCH  34  35
ENDBRANCH   6  34
TORSDOF 7
