REMARK  Name = ZINC21814191
REMARK  8 active torsions:
REMARK  status: ('A' for Active; 'I' for Inactive)
REMARK    1  A    between atoms: C_1  and  C_2
REMARK    2  A    between atoms: C_2  and  C_4
REMARK    3  A    between atoms: C_2  and  N_15
REMARK    4  A    between atoms: N_6  and  C_7
REMARK    5  A    between atoms: C_12  and  N_13
REMARK    6  A    between atoms: C_19  and  C_20
REMARK    7  A    between atoms: C_20  and  C_21
REMARK    8  A    between atoms: C_20  and  C_22
REMARK                            x       y       z     vdW  Elec       q    Type
REMARK                         _______ _______ _______ _____ _____    ______ ____
ROOT
ATOM      1  C   UNL     1       0.729  -0.506   1.223  0.00  0.00    +0.240 C 
ATOM      2  O   UNL     1       1.727  -1.184   1.098  0.00  0.00    -0.273 OA
ATOM      3  N   UNL     1       0.278  -0.191   2.453  0.00  0.00    -0.282 N 
ATOM      4  H   UNL     1      -0.472   0.416   2.554  0.00  0.00    +0.155 HD
ENDROOT
BRANCH   3   5
ATOM      5  C   UNL     1       0.892  -0.740   3.587  0.00  0.00    +0.056 A 
ATOM      6  C   UNL     1       1.575  -1.943   3.493  0.00  0.00    +0.045 A 
ATOM      7  C   UNL     1       2.181  -2.483   4.614  0.00  0.00    +0.043 A 
ATOM      8  C   UNL     1       2.107  -1.826   5.829  0.00  0.00    +0.022 A 
ATOM      9  C   UNL     1       1.428  -0.626   5.930  0.00  0.00    +0.026 A 
ATOM     10  C   UNL     1       0.823  -0.075   4.811  0.00  0.00    +0.046 A 
ATOM     11 CL   UNL     1       3.035  -3.990   4.494  0.00  0.00    -0.083 Cl
BRANCH  10  12
ATOM     12  N   UNL     1       0.141   1.143   4.910  0.00  0.00    -0.357 N 
ATOM     13  H   UNL     1      -0.285   1.526   4.127  0.00  0.00    +0.142 HD
ATOM     14  H   UNL     1       0.094   1.605   5.762  0.00  0.00    +0.142 HD
ENDBRANCH  10  12
ENDBRANCH   3   5
BRANCH   1  16
ATOM     15  C   UNL     1      -0.037   1.513   0.004  0.00  0.00    +0.041 C 
ATOM     16  C   UNL     1      -0.007  -0.016   0.002  0.00  0.00    +0.171 C 
BRANCH  16  17
ATOM     17  N   UNL     1       0.677  -0.490  -1.203  0.00  0.00    -0.324 N 
ATOM     18  C   UNL     1       1.971  -0.221  -1.562  0.00  0.00    +0.105 A 
ATOM     19  C   UNL     1       2.189  -0.850  -2.732  0.00  0.00    +0.101 A 
ATOM     20  N   UNL     1       1.061  -1.486  -3.079  0.00  0.00    -0.349 N 
ATOM     21  C   UNL     1       0.152  -1.279  -2.166  0.00  0.00    +0.090 A 
ATOM     22  H   UNL     1       0.940  -2.018  -3.881  0.00  0.00    +0.166 HD
BRANCH  21  23
ATOM     23  C   UNL     1      -1.252  -1.827  -2.183  0.00  0.00    +0.047 C 
ATOM     24  C   UNL     1      -1.760  -1.882  -3.625  0.00  0.00    +0.015 C 
ATOM     25  C   UNL     1      -1.257  -3.235  -1.586  0.00  0.00    +0.015 C 
ENDBRANCH  21  23
ENDBRANCH  16  17
ENDBRANCH   1  16
TORSDOF 5
