REMARK  Name = ZINC02955690
REMARK  8 active torsions:
REMARK  status: ('A' for Active; 'I' for Inactive)
REMARK    1  A    between atoms: C_1  and  C_2
REMARK    2  A    between atoms: C_5  and  N_9
REMARK    3  A    between atoms: C_7  and  C_8
REMARK    4  A    between atoms: C_11  and  C_23
REMARK    5  A    between atoms: C_14  and  C_21
REMARK    6  A    between atoms: C_17  and  C_20
REMARK    7  A    between atoms: C_21  and  O_22
REMARK    8  A    between atoms: N_25  and  C_26
REMARK                            x       y       z     vdW  Elec       q    Type
REMARK                         _______ _______ _______ _____ _____    ______ ____
ROOT
ATOM      1  N   UNL     1      -0.470  -4.832   0.769  0.00  0.00    -0.325 N 
ATOM      2  C   UNL     1      -0.855  -4.873  -0.487  0.00  0.00    +0.212 A 
ATOM      3  C   UNL     1      -0.446  -5.984  -1.370  0.00  0.00    +0.098 A 
ATOM      4  C   UNL     1      -1.273  -6.285  -2.430  0.00  0.00    +0.030 A 
ATOM      5  C   UNL     1      -2.483  -5.475  -2.588  0.00  0.00    +0.027 A 
ATOM      6  C   UNL     1      -3.513  -5.851  -3.459  0.00  0.00    +0.007 A 
ATOM      7  C   UNL     1      -4.624  -5.039  -3.554  0.00  0.00    +0.117 A 
ATOM      8  N   UNL     1      -4.723  -3.930  -2.843  0.00  0.00    -0.256 NA
ATOM      9  C   UNL     1      -3.781  -3.533  -2.011  0.00  0.00    +0.081 A 
ATOM     10  C   UNL     1      -2.625  -4.285  -1.851  0.00  0.00    +0.159 A 
ATOM     11  O   UNL     1      -1.645  -3.898  -1.006  0.00  0.00    -0.437 OA
ATOM     12  C   UNL     1      -3.959  -2.257  -1.231  0.00  0.00    +0.069 C 
ATOM     13  H   UNL     1      -0.001  -5.588   1.157  0.00  0.00    +0.169 HD
ENDROOT
BRANCH   1  18
ATOM     14  C   UNL     1      -1.544  -0.263   3.903  0.00  0.00    +0.044 C 
ATOM     15  C   UNL     1      -1.256  -1.483   3.066  0.00  0.00    -0.047 A 
ATOM     16  C   UNL     1      -0.764  -1.337   1.781  0.00  0.00    +0.005 A 
ATOM     17  C   UNL     1      -0.499  -2.449   1.010  0.00  0.00    +0.026 A 
ATOM     18  C   UNL     1      -0.729  -3.725   1.529  0.00  0.00    +0.042 A 
ATOM     19  C   UNL     1      -1.226  -3.865   2.827  0.00  0.00    +0.029 A 
ATOM     20  C   UNL     1      -1.481  -2.744   3.589  0.00  0.00    -0.046 A 
ATOM     21  C   UNL     1      -2.012  -2.893   4.991  0.00  0.00    +0.044 C 
ENDBRANCH   1  18
BRANCH   3  22
ATOM     22  C   UNL     1       0.797  -6.739  -1.128  0.00  0.00    +0.253 C 
ATOM     23  O   UNL     1       1.048  -7.726  -1.793  0.00  0.00    -0.270 OA
ATOM     24  N   UNL     1       1.655  -6.335  -0.170  0.00  0.00    -0.281 N 
ATOM     25  H   UNL     1       1.429  -5.581   0.396  0.00  0.00    +0.155 HD
BRANCH  24  26
ATOM     26  C   UNL     1       2.870  -7.005   0.007  0.00  0.00    +0.034 A 
ATOM     27  C   UNL     1       2.946  -8.376  -0.200  0.00  0.00    +0.024 A 
ATOM     28  C   UNL     1       4.147  -9.034  -0.024  0.00  0.00    +0.017 A 
ATOM     29  C   UNL     1       5.274  -8.329   0.359  0.00  0.00    +0.018 A 
ATOM     30  C   UNL     1       5.202  -6.963   0.566  0.00  0.00    +0.017 A 
ATOM     31  C   UNL     1       4.005  -6.298   0.385  0.00  0.00    +0.024 A 
ATOM     32 BR   UNL     1       6.917  -9.234   0.600  0.00  0.00    -0.050 Br
ENDBRANCH  24  26
ENDBRANCH   3  22
BRANCH   6  33
ATOM     33  C   UNL     1      -3.410  -7.114  -4.275  0.00  0.00    +0.193 C 
BRANCH  33  34
ATOM     34  O   UNL     1      -4.585  -7.263  -5.073  0.00  0.00    -0.390 OA
ATOM     35  H   UNL     1      -4.588  -8.056  -5.626  0.00  0.00    +0.210 HD
ENDBRANCH  33  34
ENDBRANCH   6  33
TORSDOF 5
