REMARK  Name = ZINC07880115
REMARK  5 active torsions:
REMARK  status: ('A' for Active; 'I' for Inactive)
REMARK    1  A    between atoms: C_6  and  C_22
REMARK    2  A    between atoms: C_10  and  C_11
REMARK    3  A    between atoms: C_10  and  N_43
REMARK    4  A    between atoms: N_13  and  C_14
REMARK    5  A    between atoms: C_15  and  C_19
REMARK                            x       y       z     vdW  Elec       q    Type
REMARK                         _______ _______ _______ _____ _____    ______ ____
ROOT
ATOM      1  C   UNL     1      -4.888   1.529   0.635  0.00  0.00    +0.020 C 
ENDROOT
BRANCH   1  10
ATOM      2  C   UNL     1      -0.021   0.959  -0.138  0.00  0.00    +0.010 A 
ATOM      3  C   UNL     1       1.170   1.599  -0.214  0.00  0.00    +0.045 A 
ATOM      4  S   UNL     1       0.671   3.314  -0.173  0.00  0.00    -0.101 S 
ATOM      5  C   UNL     1      -1.076   3.050  -0.059  0.00  0.00    -0.010 A 
ATOM      6  C   UNL     1      -1.202   1.693  -0.062  0.00  0.00    -0.051 A 
ATOM      7  C   UNL     1      -2.589   1.066   0.036  0.00  0.00    -0.033 C 
ATOM      8  C   UNL     1      -3.503   3.305  -0.255  0.00  0.00    -0.072 C 
ATOM      9  C   UNL     1      -2.184   4.049   0.016  0.00  0.00    +0.024 C 
ATOM     10  N   UNL     1      -3.520   2.081   0.581  0.00  0.00    +0.390 N 
ATOM     11  H   UNL     1      -3.222   2.326   1.533  0.00  0.00    -0.080 HD
BRANCH   7  12
ATOM     12  C   UNL     1      -2.553  -0.131   0.989  0.00  0.00    -0.020 C 
ATOM     13  C   UNL     1      -1.260  -0.373   1.770  0.00  0.00    +0.002 C 
ATOM     14  C   UNL     1      -1.642  -1.303   0.617  0.00  0.00    +0.002 C 
ENDBRANCH   7  12
ENDBRANCH   1  10
BRANCH   1  15
ATOM     15  C   UNL     1      -5.760   2.480   1.414  0.00  0.00    +0.201 C 
ATOM     16  O   UNL     1      -5.293   3.510   1.852  0.00  0.00    -0.278 OA
ATOM     17  N   UNL     1      -7.058   2.186   1.625  0.00  0.00    -0.281 N 
ATOM     18  H   UNL     1      -7.431   1.362   1.274  0.00  0.00    +0.155 HD
BRANCH  17  19
ATOM     19  C   UNL     1      -7.860   3.061   2.341  0.00  0.00    +0.084 A 
ATOM     20  C   UNL     1      -9.209   2.937   2.654  0.00  0.00    +0.065 A 
ATOM     21  C   UNL     1      -9.798   4.007   3.423  0.00  0.00    +0.022 A 
ATOM     22  C   UNL     1      -8.996   5.033   3.762  0.00  0.00    +0.048 A 
ATOM     23  S   UNL     1      -7.426   4.577   3.057  0.00  0.00    -0.081 S 
BRANCH  20  24
ATOM     24  C   UNL     1      -9.994   1.775   2.225  0.00  0.00    +0.244 C 
ATOM     25  O   UNL     1      -9.466   0.889   1.580  0.00  0.00    -0.270 OA
ATOM     26  N   UNL     1     -11.300   1.689   2.547  0.00  0.00    -0.325 N 
ATOM     27  H   UNL     1     -11.720   2.396   3.061  0.00  0.00    +0.145 HD
ATOM     28  H   UNL     1     -11.819   0.920   2.264  0.00  0.00    +0.145 HD
ENDBRANCH  20  24
ENDBRANCH  17  19
ENDBRANCH   1  15
TORSDOF 5
