REMARK  Name = ZINC36200759
REMARK  9 active torsions:
REMARK  status: ('A' for Active; 'I' for Inactive)
REMARK    1  A    between atoms: C_1  and  O_2
REMARK    2  A    between atoms: O_2  and  C_3
REMARK    3  A    between atoms: C_6  and  C_13
REMARK    4  A    between atoms: C_7  and  O_11
REMARK    5  A    between atoms: C_8  and  O_9
REMARK    6  A    between atoms: O_9  and  C_10
REMARK    7  A    between atoms: O_11  and  C_12
REMARK    8  A    between atoms: C_13  and  C_15
REMARK    9  A    between atoms: C_13  and  N_21
REMARK                            x       y       z     vdW  Elec       q    Type
REMARK                         _______ _______ _______ _____ _____    ______ ____
ROOT
ATOM      1  C   UNL     1      -1.181  -0.638   0.061  0.00  0.00    +0.165 A 
ATOM      2  C   UNL     1      -2.349   0.096   0.207  0.00  0.00    +0.050 A 
ATOM      3  C   UNL     1      -3.574  -0.543   0.203  0.00  0.00    +0.010 A 
ATOM      4  C   UNL     1      -3.642  -1.916   0.053  0.00  0.00    -0.012 A 
ATOM      5  C   UNL     1      -2.479  -2.657  -0.093  0.00  0.00    +0.167 A 
ATOM      6  C   UNL     1      -1.245  -2.017  -0.095  0.00  0.00    +0.204 A 
ENDROOT
BRANCH   1   8
ATOM      7  C   UNL     1       0.014   1.411   0.232  0.00  0.00    +0.277 C 
ATOM      8  O   UNL     1       0.024  -0.008   0.066  0.00  0.00    -0.491 OA
ENDBRANCH   1   8
BRANCH   6   9
ATOM      9  O   UNL     1      -0.102  -2.741  -0.244  0.00  0.00    -0.488 OA
ATOM     10  C   UNL     1       0.514  -3.232   0.948  0.00  0.00    +0.277 C 
ENDBRANCH   6   9
BRANCH   5  11
ATOM     11  O   UNL     1      -2.546  -4.007  -0.239  0.00  0.00    -0.491 OA
ATOM     12  C   UNL     1      -2.533  -4.517  -1.574  0.00  0.00    +0.277 C 
ENDBRANCH   5  11
BRANCH   4  13
ATOM     13  C   UNL     1      -4.981  -2.607   0.049  0.00  0.00    -0.003 C 
BRANCH  13  14
ATOM     14  C   UNL     1      -6.070  -1.592  -0.180  0.00  0.00    -0.019 A 
ATOM     15  C   UNL     1      -6.683  -1.245  -1.338  0.00  0.00    +0.011 A 
ATOM     16  C   UNL     1      -7.668  -0.276  -1.311  0.00  0.00    +0.023 A 
ATOM     17  C   UNL     1      -7.992   0.300  -0.126  0.00  0.00    +0.055 A 
ATOM     18  S   UNL     1      -6.893  -0.539   1.004  0.00  0.00    -0.088 S 
ATOM     19 BR   UNL     1      -9.277   1.638   0.237  0.00  0.00    -0.043 Br
ENDBRANCH  13  14
BRANCH  13  20
ATOM     20  N   UNL     1      -5.193  -3.270   1.343  0.00  0.00    +0.386 N 
ATOM     21  H   UNL     1      -5.172  -2.581   2.081  0.00  0.00    -0.089 HD
ATOM     22  H   UNL     1      -6.090  -3.733   1.341  0.00  0.00    -0.089 HD
ATOM     23  H   UNL     1      -4.464  -3.950   1.497  0.00  0.00    -0.089 HD
ENDBRANCH  13  20
ENDBRANCH   4  13
TORSDOF 6
