REMARK  Name = ZINC57494120
REMARK  4 active torsions:
REMARK  status: ('A' for Active; 'I' for Inactive)
REMARK    1  A    between atoms: C_1  and  O_2
REMARK    2  A    between atoms: O_2  and  C_3
REMARK    3  A    between atoms: C_6  and  C_9
REMARK    4  A    between atoms: C_11  and  N_17
REMARK                            x       y       z     vdW  Elec       q    Type
REMARK                         _______ _______ _______ _____ _____    ______ ____
ROOT
ATOM      1  C   UNL     1       2.587  -2.550   4.310  0.00  0.00    +0.069 C 
ATOM      2  C   UNL     1       3.992  -2.977   3.881  0.00  0.00    -0.053 C 
ATOM      3  C   UNL     1       4.684  -3.686   5.049  0.00  0.00    -0.013 C 
ATOM      4  C   UNL     1       3.837  -4.886   5.481  0.00  0.00    +0.014 C 
ATOM      5  C   UNL     1       2.435  -4.404   5.863  0.00  0.00    +0.081 C 
ATOM      6  N   UNL     1       1.816  -3.733   4.713  0.00  0.00    -0.311 NA
ATOM      7  H   UNL     1       0.857  -3.491   4.910  0.00  0.00    +0.122 HD
ENDROOT
BRANCH   1  11
ATOM      8  C   UNL     1       0.626  -0.618   1.042  0.00  0.00    +0.120 A 
ATOM      9  C   UNL     1       1.202   0.138   2.051  0.00  0.00    +0.046 A 
ATOM     10  C   UNL     1       1.835  -0.488   3.107  0.00  0.00    +0.009 A 
ATOM     11  C   UNL     1       1.895  -1.869   3.158  0.00  0.00    -0.032 A 
ATOM     12  C   UNL     1       1.322  -2.625   2.152  0.00  0.00    +0.009 A 
ATOM     13  C   UNL     1       0.682  -2.003   1.098  0.00  0.00    +0.046 A 
BRANCH   8  15
ATOM     14  C   UNL     1      -0.017   1.425   0.010  0.00  0.00    +0.277 C 
ATOM     15  O   UNL     1       0.002  -0.004   0.002  0.00  0.00    -0.495 OA
ENDBRANCH   8  15
ENDBRANCH   1  11
BRANCH   2  16
ATOM     16  N   UNL     1       4.769  -1.791   3.498  0.00  0.00    +0.381 N 
ATOM     17  H   UNL     1       4.834  -1.162   4.284  0.00  0.00    -0.090 HD
ATOM     18  H   UNL     1       5.696  -2.073   3.215  0.00  0.00    -0.090 HD
ATOM     19  H   UNL     1       4.311  -1.322   2.730  0.00  0.00    -0.090 HD
ENDBRANCH   2  16
TORSDOF 3
