REMARK  Name = ZINC63699716
REMARK  7 active torsions:
REMARK  status: ('A' for Active; 'I' for Inactive)
REMARK    1  A    between atoms: C_6  and  C_10
REMARK    2  A    between atoms: N_13  and  S_16
REMARK    3  A    between atoms: S_16  and  C_19
REMARK    4  A    between atoms: C_22  and  N_25
REMARK    5  A    between atoms: C_26  and  C_28
REMARK    6  A    between atoms: C_28  and  C_29
REMARK    7  A    between atoms: C_29  and  C_30
REMARK                            x       y       z     vdW  Elec       q    Type
REMARK                         _______ _______ _______ _____ _____    ______ ____
ROOT
ATOM      1  C   UNL     1       4.112  -2.462  -1.358  0.00  0.00    +0.034 C 
ATOM      2  C   UNL     1       5.623  -2.684  -1.462  0.00  0.00    +0.024 C 
ATOM      3  C   UNL     1       5.932  -3.482  -2.733  0.00  0.00    +0.110 C 
ATOM      4  N   UNL     1       5.139  -4.719  -2.719  0.00  0.00    -0.177 NA
ATOM      5  C   UNL     1       3.685  -4.624  -2.533  0.00  0.00    +0.110 C 
ATOM      6  C   UNL     1       3.401  -3.814  -1.264  0.00  0.00    +0.024 C 
ENDROOT
BRANCH   1  12
ATOM      7  C   UNL     1       1.203   2.155  -0.072  0.00  0.00    +0.002 A 
ATOM      8  C   UNL     1       2.468   2.763  -0.161  0.00  0.00    +0.002 A 
ATOM      9  C   UNL     1       3.614   2.054  -0.205  0.00  0.00    +0.027 A 
ATOM     10  C   UNL     1       3.560   0.586  -0.159  0.00  0.00    +0.060 A 
ATOM     11  N   UNL     1       4.480  -0.334  -0.184  0.00  0.00    -0.363 N 
ATOM     12  C   UNL     1       3.804  -1.635  -0.108  0.00  0.00    +0.177 C 
ATOM     13  N   UNL     1       2.365  -1.351  -0.035  0.00  0.00    -0.363 N 
ATOM     14  C   UNL     1       2.221  -0.057  -0.065  0.00  0.00    +0.060 A 
ATOM     15  C   UNL     1       1.041   0.818  -0.024  0.00  0.00    +0.027 A 
ATOM     16  H   UNL     1       5.437  -0.188  -0.243  0.00  0.00    +0.162 HD
ATOM     17  H   UNL     1       1.652  -2.006   0.023  0.00  0.00    +0.162 HD
ENDBRANCH   1  12
BRANCH   4  18
ATOM     18  S   UNL     1       5.871  -6.193  -2.908  0.00  0.00    +0.061 S 
ATOM     19  O   UNL     1       4.877  -7.080  -3.402  0.00  0.00    -0.153 OA
ATOM     20  O   UNL     1       7.090  -5.955  -3.599  0.00  0.00    -0.153 OA
BRANCH  18  21
ATOM     21  C   UNL     1       6.307  -6.769  -1.301  0.00  0.00    +0.106 A 
ATOM     22  C   UNL     1       7.540  -6.448  -0.765  0.00  0.00    +0.030 A 
ATOM     23  C   UNL     1       7.885  -6.898   0.495  0.00  0.00    +0.025 A 
ATOM     24  C   UNL     1       6.992  -7.673   1.222  0.00  0.00    +0.033 A 
ATOM     25  C   UNL     1       5.753  -7.993   0.681  0.00  0.00    +0.025 A 
ATOM     26  C   UNL     1       5.413  -7.536  -0.577  0.00  0.00    +0.030 A 
BRANCH  24  27
ATOM     27  N   UNL     1       7.338  -8.131   2.498  0.00  0.00    -0.285 N 
ATOM     28  C   UNL     1       8.120  -7.377   3.296  0.00  0.00    +0.217 C 
ATOM     29  O   UNL     1       8.446  -6.262   2.947  0.00  0.00    -0.275 OA
ATOM     30  H   UNL     1       7.015  -8.991   2.809  0.00  0.00    +0.155 HD
BRANCH  28  31
ATOM     31  C   UNL     1       8.591  -7.919   4.620  0.00  0.00    +0.097 C 
BRANCH  31  32
ATOM     32  C   UNL     1       9.458  -6.871   5.322  0.00  0.00    +0.025 C 
BRANCH  32  33
ATOM     33  C   UNL     1       9.936  -7.422   6.667  0.00  0.00    +0.109 C 
ATOM     34 CL   UNL     1      10.957  -6.187   7.493  0.00  0.00    -0.125 Cl
ENDBRANCH  32  33
ENDBRANCH  31  32
ENDBRANCH  28  31
ENDBRANCH  24  27
ENDBRANCH  18  21
ENDBRANCH   4  18
TORSDOF 7
