REMARK  Name = ZINC03003346
REMARK  8 active torsions:
REMARK  status: ('A' for Active; 'I' for Inactive)
REMARK    1  A    between atoms: C_1  and  C_2
REMARK    2  A    between atoms: C_5  and  C_28
REMARK    3  A    between atoms: C_6  and  C_8
REMARK    4  A    between atoms: C_8  and  C_10
REMARK    5  A    between atoms: C_8  and  N_22
REMARK    6  A    between atoms: C_16  and  C_21
REMARK    7  A    between atoms: C_19  and  O_20
REMARK    8  A    between atoms: N_22  and  C_23
REMARK                            x       y       z     vdW  Elec       q    Type
REMARK                         _______ _______ _______ _____ _____    ______ ____
ROOT
ATOM      1  C   UNL     1       0.230   2.866   6.900  0.00  0.00    +0.136 C 
ENDROOT
BRANCH   1   2
ATOM      2  C   UNL     1      -0.727   2.760   5.740  0.00  0.00    +0.021 A 
ATOM      3  C   UNL     1      -1.216   3.921   5.147  0.00  0.00    +0.010 A 
ATOM      4  C   UNL     1      -2.082   3.860   4.098  0.00  0.00    +0.010 A 
ATOM      5  C   UNL     1      -2.490   2.610   3.603  0.00  0.00    +0.004 A 
ATOM      6  C   UNL     1      -3.384   2.507   2.521  0.00  0.00    +0.012 A 
ATOM      7  C   UNL     1      -3.734   1.259   2.091  0.00  0.00    +0.023 A 
ATOM      8  C   UNL     1      -3.215   0.133   2.728  0.00  0.00    +0.039 A 
ATOM      9  N   UNL     1      -2.383   0.234   3.736  0.00  0.00    -0.248 NA
ATOM     10  C   UNL     1      -1.997   1.425   4.202  0.00  0.00    +0.113 A 
ATOM     11  C   UNL     1      -1.101   1.527   5.287  0.00  0.00    +0.148 A 
ATOM     12  C   UNL     1      -3.617  -1.235   2.242  0.00  0.00    +0.065 C 
BRANCH  11  13
ATOM     13  O   UNL     1      -0.614   0.406   5.878  0.00  0.00    -0.504 OA
ATOM     14  H   UNL     1       0.246   0.123   5.538  0.00  0.00    +0.292 HD
ENDBRANCH  11  13
ENDBRANCH   1   2
BRANCH   1  20
ATOM     15  C   UNL     1       0.101   7.520   8.734  0.00  0.00    +0.044 C 
ATOM     16  C   UNL     1       0.734   6.488   7.836  0.00  0.00    -0.050 A 
ATOM     17  C   UNL     1       1.833   6.822   7.066  0.00  0.00    +0.003 A 
ATOM     18  C   UNL     1       2.413   5.875   6.243  0.00  0.00    +0.004 A 
ATOM     19  C   UNL     1       1.894   4.595   6.189  0.00  0.00    -0.045 A 
ATOM     20  C   UNL     1       0.795   4.261   6.959  0.00  0.00    -0.020 A 
ATOM     21  C   UNL     1       0.212   5.209   7.779  0.00  0.00    +0.009 A 
ATOM     22  C   UNL     1       2.526   3.562   5.291  0.00  0.00    +0.044 C 
ENDBRANCH   1  20
BRANCH   1  23
ATOM     23  N   UNL     1      -0.481   2.574   8.147  0.00  0.00    -0.320 N 
ATOM     24  H   UNL     1      -1.446   2.665   8.189  0.00  0.00    +0.148 HD
BRANCH  23  25
ATOM     25  C   UNL     1       0.227   2.165   9.271  0.00  0.00    +0.097 A 
ATOM     26  C   UNL     1       1.611   2.031   9.203  0.00  0.00    +0.041 A 
ATOM     27  C   UNL     1       2.303   1.630  10.331  0.00  0.00    +0.005 A 
ATOM     28  C   UNL     1       1.586   1.365  11.490  0.00  0.00    +0.018 A 
ATOM     29  C   UNL     1       0.214   1.513  11.485  0.00  0.00    +0.084 A 
ATOM     30  N   UNL     1      -0.499   1.911  10.398  0.00  0.00    -0.350 N 
ATOM     31  H   UNL     1      -1.521   2.013  10.422  0.00  0.00    +0.166 HD
ENDBRANCH  23  25
ENDBRANCH   1  23
TORSDOF 5
