REMARK  Name = ZINC36005434
REMARK  15 active torsions:
REMARK  status: ('A' for Active; 'I' for Inactive)
REMARK    1  A    between atoms: C_1  and  C_2
REMARK    2  A    between atoms: C_2  and  O_3
REMARK    3  A    between atoms: O_3  and  C_4
REMARK    4  A    between atoms: C_4  and  C_6
REMARK    5  A    between atoms: C_7  and  C_24
REMARK    6  A    between atoms: N_8  and  C_23
REMARK    7  A    between atoms: C_12  and  C_14
REMARK    8  A    between atoms: C_17  and  C_20
REMARK    9  A    between atoms: C_20  and  C_21
REMARK   10  A    between atoms: C_20  and  C_22
REMARK   11  A    between atoms: C_24  and  N_25
REMARK   12  A    between atoms: N_34  and  C_35
REMARK   13  A    between atoms: C_35  and  C_36
REMARK   14  A    between atoms: C_35  and  C_37
REMARK   15  A    between atoms: C_35  and  C_38
REMARK                            x       y       z     vdW  Elec       q    Type
REMARK                         _______ _______ _______ _____ _____    ______ ____
ROOT
ATOM      1  C   UNL     1      -2.533  -2.749   0.690  0.00  0.00    +0.076 C 
ATOM      2  C   UNL     1      -3.008  -3.917   0.207  0.00  0.00    +0.010 C 
ATOM      3  N   UNL     1      -4.314  -4.044  -0.171  0.00  0.00    -0.264 N 
ATOM      4  C   UNL     1      -5.208  -3.050  -0.099  0.00  0.00    +0.307 C 
ATOM      5  O   UNL     1      -6.350  -3.259  -0.460  0.00  0.00    -0.252 OA
ATOM      6  N   UNL     1      -4.883  -1.826   0.361  0.00  0.00    -0.288 N 
ATOM      7  C   UNL     1      -3.499  -1.587   0.802  0.00  0.00    +0.143 C 
ATOM      8  C   UNL     1      -4.761  -5.341  -0.686  0.00  0.00    +0.139 C 
ATOM      9  H   UNL     1      -5.547  -1.120   0.405  0.00  0.00    +0.151 HD
ENDROOT
BRANCH   7  10
ATOM     10  C   UNL     1      -3.533  -1.149   2.243  0.00  0.00    -0.022 A 
ATOM     11  C   UNL     1      -4.289  -1.853   3.162  0.00  0.00    +0.006 A 
ATOM     12  C   UNL     1      -4.321  -1.451   4.484  0.00  0.00    +0.004 A 
ATOM     13  C   UNL     1      -3.597  -0.346   4.888  0.00  0.00    -0.045 A 
ATOM     14  C   UNL     1      -2.840   0.358   3.970  0.00  0.00    +0.004 A 
ATOM     15  C   UNL     1      -2.804  -0.046   2.648  0.00  0.00    +0.006 A 
BRANCH  13  16
ATOM     16  C   UNL     1      -3.632   0.093   6.329  0.00  0.00    +0.013 C 
ATOM     17  C   UNL     1      -2.217   0.053   6.909  0.00  0.00    +0.012 C 
ATOM     18  C   UNL     1      -4.178   1.520   6.415  0.00  0.00    +0.012 C 
ENDBRANCH  13  16
ENDBRANCH   7  10
BRANCH   1  19
ATOM     19  C   UNL     1      -1.180  -2.616   1.083  0.00  0.00    +0.339 C 
ATOM     20  O   UNL     1      -0.456  -3.594   1.112  0.00  0.00    -0.245 OA
BRANCH  19  21
ATOM     21  O   UNL     1      -0.693  -1.405   1.424  0.00  0.00    -0.462 OA
BRANCH  21  23
ATOM     22  C   UNL     1       1.050   0.099   2.160  0.00  0.00    +0.048 C 
ATOM     23  C   UNL     1       0.682  -1.345   1.811  0.00  0.00    +0.229 C 
ENDBRANCH  21  23
ENDBRANCH  19  21
ENDBRANCH   1  19
BRANCH   2  24
ATOM     24  C   UNL     1      -2.082  -5.100   0.084  0.00  0.00    -0.026 C 
BRANCH  24  25
ATOM     25  N   UNL     1      -1.976  -5.777   1.384  0.00  0.00    +0.384 N 
ATOM     26  C   UNL     1      -0.899  -6.760   1.306  0.00  0.00    -0.077 C 
ATOM     27  C   UNL     1      -0.285  -6.938   2.676  0.00  0.00    +0.000 C 
ATOM     28  C   UNL     1      -0.967  -8.117   3.394  0.00  0.00    +0.107 C 
ATOM     29  N   UNL     1      -2.421  -8.125   3.138  0.00  0.00    -0.287 N 
ATOM     30  C   UNL     1      -3.215  -6.914   3.136  0.00  0.00    +0.091 C 
ATOM     31  C   UNL     1      -3.243  -6.307   1.714  0.00  0.00    -0.059 C 
ATOM     32  C   UNL     1      -3.032  -9.302   2.896  0.00  0.00    +0.303 C 
ATOM     33  O   UNL     1      -2.406 -10.341   2.981  0.00  0.00    -0.253 OA
ATOM     34  N   UNL     1      -4.338  -9.328   2.562  0.00  0.00    -0.294 N 
ATOM     35  H   UNL     1      -4.819  -8.497   2.423  0.00  0.00    +0.151 HD
ATOM     36  H   UNL     1      -1.728  -5.090   2.080  0.00  0.00    -0.081 HD
BRANCH  34  37
ATOM     37  C   UNL     1      -5.029 -10.610   2.407  0.00  0.00    +0.028 C 
ATOM     38  C   UNL     1      -4.970 -11.383   3.726  0.00  0.00    +0.031 C 
ATOM     39  C   UNL     1      -6.490 -10.359   2.028  0.00  0.00    +0.031 C 
ATOM     40  C   UNL     1      -4.349 -11.427   1.306  0.00  0.00    +0.031 C 
ENDBRANCH  34  37
ENDBRANCH  24  25
ENDBRANCH   2  24
TORSDOF 8
