REMARK  Name = ZINC01287340
REMARK  11 active torsions:
REMARK  status: ('A' for Active; 'I' for Inactive)
REMARK    1  A    between atoms: C_1  and  C_2
REMARK    2  A    between atoms: C_5  and  C_8
REMARK    3  A    between atoms: C_9  and  O_21
REMARK    4  A    between atoms: C_14  and  C_20
REMARK    5  A    between atoms: C_16  and  C_19
REMARK    6  A    between atoms: O_21  and  C_22
REMARK    7  A    between atoms: C_22  and  C_23
REMARK    8  A    between atoms: N_25  and  C_26
REMARK    9  A    between atoms: C_27  and  C_39
REMARK   10  A    between atoms: N_28  and  C_38
REMARK   11  A    between atoms: N_29  and  C_32
REMARK                            x       y       z     vdW  Elec       q    Type
REMARK                         _______ _______ _______ _____ _____    ______ ____
ROOT
ATOM      1  C   UNL     1       1.346   5.364   0.083  0.00  0.00    +0.181 A 
ATOM      2  C   UNL     1       0.551   6.397   0.482  0.00  0.00    +0.211 A 
ATOM      3  C   UNL     1      -0.802   6.143   0.825  0.00  0.00    +0.235 A 
ATOM      4  O   UNL     1      -1.544   7.042   1.187  0.00  0.00    -0.283 OA
ATOM      5  C   UNL     1      -1.276   4.750   0.727  0.00  0.00    +0.068 A 
ATOM      6  C   UNL     1      -2.590   4.407   1.044  0.00  0.00    +0.019 A 
ATOM      7  C   UNL     1      -2.996   3.095   0.935  0.00  0.00    -0.049 A 
ATOM      8  C   UNL     1      -2.102   2.118   0.523  0.00  0.00    +0.010 A 
ATOM      9  C   UNL     1      -0.800   2.444   0.206  0.00  0.00    -0.007 A 
ATOM     10  C   UNL     1      -0.371   3.762   0.305  0.00  0.00    +0.142 A 
ATOM     11  O   UNL     1       0.898   4.100  -0.001  0.00  0.00    -0.451 OA
ATOM     12  C   UNL     1       0.157   1.371  -0.245  0.00  0.00    +0.047 C 
ATOM     13  C   UNL     1      -4.416   2.719   1.271  0.00  0.00    +0.044 C 
ENDROOT
BRANCH   1  18
ATOM     14  C   UNL     1       6.822   6.457  -1.297  0.00  0.00    +0.044 C 
ATOM     15  C   UNL     1       5.388   6.171  -0.935  0.00  0.00    -0.050 A 
ATOM     16  C   UNL     1       5.092   5.154  -0.045  0.00  0.00    +0.004 A 
ATOM     17  C   UNL     1       3.781   4.886   0.291  0.00  0.00    +0.012 A 
ATOM     18  C   UNL     1       2.751   5.644  -0.271  0.00  0.00    +0.021 A 
ATOM     19  C   UNL     1       3.057   6.666  -1.173  0.00  0.00    +0.012 A 
ATOM     20  C   UNL     1       4.372   6.926  -1.496  0.00  0.00    +0.004 A 
ENDBRANCH   1  18
BRANCH   2  21
ATOM     21  O   UNL     1       1.051   7.660   0.551  0.00  0.00    -0.476 OA
BRANCH  21  22
ATOM     22  C   UNL     1       1.529   8.100   1.825  0.00  0.00    +0.325 C 
BRANCH  22  23
ATOM     23  C   UNL     1       2.041   9.513   1.708  0.00  0.00    +0.255 C 
ATOM     24  O   UNL     1       2.001  10.086   0.640  0.00  0.00    -0.272 OA
ATOM     25  N   UNL     1       2.543  10.139   2.791  0.00  0.00    -0.277 N 
ATOM     26  H   UNL     1       2.637   9.659   3.628  0.00  0.00    +0.155 HD
BRANCH  25  27
ATOM     27  C   UNL     1       2.932  11.490   2.706  0.00  0.00    +0.121 A 
ATOM     28  C   UNL     1       4.145  11.997   3.020  0.00  0.00    +0.059 A 
ATOM     29  N   UNL     1       4.124  13.349   2.800  0.00  0.00    -0.282 N 
ATOM     30  N   UNL     1       2.856  13.720   2.340  0.00  0.00    -0.216 N 
ATOM     31  C   UNL     1       2.095  12.608   2.268  0.00  0.00    +0.293 A 
ATOM     32  O   UNL     1       0.933  12.547   1.908  0.00  0.00    -0.264 OA
ATOM     33  C   UNL     1       5.249  14.262   3.019  0.00  0.00    +0.171 C 
ATOM     34  C   UNL     1       5.325  11.207   3.524  0.00  0.00    +0.067 C 
BRANCH  30  35
ATOM     35  C   UNL     1       2.448  15.017   2.011  0.00  0.00    +0.067 A 
ATOM     36  C   UNL     1       2.812  16.086   2.819  0.00  0.00    +0.028 A 
ATOM     37  C   UNL     1       2.412  17.366   2.489  0.00  0.00    +0.002 A 
ATOM     38  C   UNL     1       1.640  17.582   1.362  0.00  0.00    +0.000 A 
ATOM     39  C   UNL     1       1.272  16.519   0.559  0.00  0.00    +0.002 A 
ATOM     40  C   UNL     1       1.673  15.237   0.880  0.00  0.00    +0.028 A 
ENDBRANCH  30  35
ENDBRANCH  25  27
ENDBRANCH  22  23
ENDBRANCH  21  22
ENDBRANCH   2  21
TORSDOF 6
