REMARK  Name = ZINC67389575
REMARK  10 active torsions:
REMARK  status: ('A' for Active; 'I' for Inactive)
REMARK    1  A    between atoms: C_1  and  C_2
REMARK    2  A    between atoms: C_5  and  N_9
REMARK    3  A    between atoms: C_10  and  C_12
REMARK    4  A    between atoms: C_12  and  C_13
REMARK    5  A    between atoms: C_13  and  N_14
REMARK    6  A    between atoms: N_17  and  C_18
REMARK    7  A    between atoms: C_18  and  C_19
REMARK    8  A    between atoms: C_19  and  C_21
REMARK    9  A    between atoms: C_19  and  N_22
REMARK   10  A    between atoms: C_27  and  C_29
REMARK                            x       y       z     vdW  Elec       q    Type
REMARK                         _______ _______ _______ _____ _____    ______ ____
ROOT
ATOM      1  N   UNL     1      -0.707  -8.088  -2.903  0.00  0.00    -0.299 N 
ATOM      2  C   UNL     1      -0.717  -8.845  -4.018  0.00  0.00    +0.300 C 
ATOM      3  O   UNL     1      -0.643  -8.318  -5.111  0.00  0.00    -0.253 OA
ATOM      4  N   UNL     1      -0.808 -10.186  -3.922  0.00  0.00    -0.301 N 
ATOM      5  H   UNL     1      -0.692  -8.511  -2.030  0.00  0.00    +0.150 HD
ATOM      6  H   UNL     1      -0.794 -10.612  -3.051  0.00  0.00    +0.150 HD
ENDROOT
BRANCH   1   7
ATOM      7  C   UNL     1      -0.718  -6.627  -3.009  0.00  0.00    +0.115 C 
BRANCH   7   8
ATOM      8  C   UNL     1      -0.703  -6.014  -1.607  0.00  0.00    +0.115 C 
BRANCH   8  10
ATOM      9  N   UNL     1      -0.705  -3.755  -0.601  0.00  0.00    -0.284 N 
ATOM     10  C   UNL     1      -0.715  -4.511  -1.716  0.00  0.00    +0.219 C 
ATOM     11  O   UNL     1      -0.733  -3.982  -2.807  0.00  0.00    -0.275 OA
ATOM     12  H   UNL     1      -0.613  -4.174   0.269  0.00  0.00    +0.155 HD
BRANCH   9  17
ATOM     13  C   UNL     1      -1.202   1.884  -0.993  0.00  0.00    +0.044 C 
ATOM     14  C   UNL     1      -1.069   0.387  -0.888  0.00  0.00    -0.049 A 
ATOM     15  C   UNL     1      -1.566  -0.422  -1.894  0.00  0.00    +0.005 A 
ATOM     16  C   UNL     1      -1.447  -1.795  -1.802  0.00  0.00    +0.025 A 
ATOM     17  C   UNL     1      -0.827  -2.364  -0.697  0.00  0.00    +0.052 A 
ATOM     18  C   UNL     1      -0.328  -1.549   0.312  0.00  0.00    +0.062 A 
ATOM     19  C   UNL     1      -0.446  -0.175   0.211  0.00  0.00    +0.025 A 
ATOM     20 CL   UNL     1       0.448  -2.255   1.695  0.00  0.00    -0.082 Cl
ENDBRANCH   9  17
ENDBRANCH   8  10
ENDBRANCH   7   8
ENDBRANCH   1   7
BRANCH   4  21
ATOM     21  C   UNL     1      -0.930 -11.001  -5.133  0.00  0.00    +0.090 C 
BRANCH  21  22
ATOM     22  C   UNL     1      -1.143 -12.465  -4.744  0.00  0.00    -0.054 C 
ATOM     23  C   UNL     1      -1.302 -13.311  -6.009  0.00  0.00    -0.012 C 
BRANCH  22  24
ATOM     24  N   UNL     1      -2.354 -12.582  -3.921  0.00  0.00    +0.384 N 
ATOM     25  C   UNL     1      -3.524 -12.191  -4.717  0.00  0.00    -0.078 C 
ATOM     26  C   UNL     1      -4.778 -12.233  -3.841  0.00  0.00    -0.019 C 
ATOM     27  C   UNL     1      -4.974 -13.655  -3.307  0.00  0.00    -0.003 C 
ATOM     28  C   UNL     1      -3.717 -14.080  -2.542  0.00  0.00    -0.016 C 
ATOM     29  C   UNL     1      -2.502 -13.970  -3.466  0.00  0.00    -0.071 C 
ATOM     30  C   UNL     1      -1.244 -14.393  -2.705  0.00  0.00    -0.013 C 
ATOM     31  H   UNL     1      -2.275 -11.973  -3.120  0.00  0.00    -0.081 HD
ENDBRANCH  22  24
ENDBRANCH  21  22
ENDBRANCH   4  21
TORSDOF 7
