REMARK  Name = ZINC04477409
REMARK  3 active torsions:
REMARK  status: ('A' for Active; 'I' for Inactive)
REMARK    1  A    between atoms: C_4  and  C_14
REMARK    2  A    between atoms: C_6  and  N_7
REMARK    3  A    between atoms: N_7  and  N_8
REMARK                            x       y       z     vdW  Elec       q    Type
REMARK                         _______ _______ _______ _____ _____    ______ ____
ROOT
ATOM      1  N   UNL     1       2.405   2.451  -0.003  0.00  0.00    -0.176 NA
ATOM      2  C   UNL     1       3.534   3.122  -0.013  0.00  0.00    +0.159 C 
ATOM      3  C   UNL     1       4.906   2.568  -0.024  0.00  0.00    +0.137 C 
ATOM      4  N   UNL     1       5.772   3.640  -0.035  0.00  0.00    -0.249 N 
ATOM      5  N   UNL     1       5.060   4.839  -0.022  0.00  0.00    -0.249 N 
ATOM      6  C   UNL     1       3.704   4.591  -0.008  0.00  0.00    +0.137 C 
ATOM      7  H   UNL     1       6.141   0.947  -0.033  0.00  0.00    +0.157 HD
ATOM      8  H   UNL     1       6.740   3.570  -0.046  0.00  0.00    +0.171 HD
ATOM      9  H   UNL     1       5.462   5.722  -0.024  0.00  0.00    +0.171 HD
ATOM     10  H   UNL     1       2.871   6.452   0.009  0.00  0.00    +0.157 HD
ATOM     11  N   UNL     1       5.173   1.268  -0.025  0.00  0.00    -0.384 N 
ATOM     12  H   UNL     1       4.405   0.586  -0.019  0.00  0.00    +0.157 HD
ATOM     13  N   UNL     1       2.691   5.448   0.007  0.00  0.00    -0.384 N 
ATOM     14  H   UNL     1       1.725   5.100   0.016  0.00  0.00    +0.157 HD
ENDROOT
BRANCH   1  15
ATOM     15  N   UNL     1       2.421   1.161  -0.008  0.00  0.00    -0.237 N 
ATOM     16  H   UNL     1       3.267   0.687  -0.020  0.00  0.00    +0.174 HD
BRANCH  15  22
ATOM     17  C   UNL     1       0.008   1.127   0.018  0.00  0.00    +0.026 A 
ATOM     18  C   UNL     1      -1.177   0.419   0.028  0.00  0.00    +0.022 A 
ATOM     19  C   UNL     1      -1.159  -0.965   0.022  0.00  0.00    +0.053 A 
ATOM     20  C   UNL     1       0.048  -1.644   0.006  0.00  0.00    +0.075 A 
ATOM     21  C   UNL     1       1.236  -0.942  -0.004  0.00  0.00    +0.038 A 
ATOM     22  C   UNL     1       1.221   0.448   0.002  0.00  0.00    +0.049 A 
ATOM     23 CL   UNL     1      -2.651  -1.852   0.034  0.00  0.00    -0.083 Cl
BRANCH  20  24
ATOM     24  C   UNL     1       0.064  -3.151  -0.000  0.00  0.00    +0.419 C 
ATOM     25  F   UNL     1       1.388  -3.603  -0.017  0.00  0.00    -0.166 F 
ATOM     26  F   UNL     1      -0.578  -3.628   1.147  0.00  0.00    -0.166 F 
ATOM     27  F   UNL     1      -0.603  -3.619  -1.137  0.00  0.00    -0.166 F 
ENDBRANCH  20  24
ENDBRANCH  15  22
ENDBRANCH   1  15
TORSDOF 3
