REMARK  Name = ZINC12548284
REMARK  2 active torsions:
REMARK  status: ('A' for Active; 'I' for Inactive)
REMARK    1  A    between atoms: C_3  and  C_9
REMARK    2  A    between atoms: C_12  and  C_14
REMARK                            x       y       z     vdW  Elec       q    Type
REMARK                         _______ _______ _______ _____ _____    ______ ____
ROOT
ATOM      1  C   UNL     1       5.916   4.746  -1.278  0.00  0.00    +0.244 C 
ATOM      2  N   UNL     1       4.962   5.830  -1.579  0.00  0.00    -0.292 N 
ATOM      3  C   UNL     1       4.154   5.690  -2.699  0.00  0.00    +0.159 C 
ATOM      4  N   UNL     1       2.861   5.832  -2.633  0.00  0.00    -0.375 N 
ATOM      5  N   UNL     1       4.800   5.390  -3.899  0.00  0.00    -0.259 N 
ATOM      6  C   UNL     1       5.922   4.572  -3.777  0.00  0.00    +0.205 A 
ATOM      7  N   UNL     1       6.463   4.265  -2.551  0.00  0.00    -0.285 N 
ATOM      8  C   UNL     1       7.556   3.454  -2.771  0.00  0.00    +0.076 A 
ATOM      9  C   UNL     1       8.489   2.842  -1.944  0.00  0.00    +0.077 A 
ATOM     10  C   UNL     1       9.488   2.063  -2.495  0.00  0.00    +0.164 A 
ATOM     11  C   UNL     1       9.569   1.891  -3.874  0.00  0.00    +0.164 A 
ATOM     12  C   UNL     1       8.654   2.497  -4.709  0.00  0.00    +0.079 A 
ATOM     13  C   UNL     1       7.637   3.286  -4.165  0.00  0.00    +0.095 A 
ATOM     14  N   UNL     1       6.609   3.995  -4.718  0.00  0.00    -0.214 NA
ATOM     15  O   UNL     1      10.562   1.113  -4.398  0.00  0.00    -0.488 OA
ATOM     16  C   UNL     1      11.889   1.631  -4.281  0.00  0.00    +0.232 C 
ATOM     17  C   UNL     1      12.486   1.282  -2.926  0.00  0.00    +0.082 C 
ATOM     18  C   UNL     1      11.743   1.948  -1.778  0.00  0.00    +0.232 C 
ATOM     19  O   UNL     1      10.405   1.455  -1.686  0.00  0.00    -0.488 OA
ATOM     20  H   UNL     1       4.902   6.615  -1.013  0.00  0.00    +0.151 HD
ATOM     21  H   UNL     1       4.492   5.726  -4.755  0.00  0.00    +0.158 HD
ATOM     22  H   UNL     1       2.438   6.040  -1.785  0.00  0.00    +0.158 HD
ATOM     23  H   UNL     1       2.320   5.728  -3.432  0.00  0.00    +0.158 HD
ENDROOT
BRANCH   1  27
ATOM     24  C   UNL     1       3.656   2.164  -0.022  0.00  0.00    +0.137 A 
ATOM     25  C   UNL     1       4.713   1.955   0.807  0.00  0.00    +0.050 A 
ATOM     26  C   UNL     1       5.702   2.894   0.448  0.00  0.00    +0.049 A 
ATOM     27  C   UNL     1       5.204   3.621  -0.571  0.00  0.00    +0.147 A 
ATOM     28  O   UNL     1       3.970   3.174  -0.855  0.00  0.00    -0.456 OA
BRANCH  24  31
ATOM     29  C   UNL     1      -0.017   1.379   0.010  0.00  0.00    +0.002 A 
ATOM     30  C   UNL     1       1.167   2.089   0.002  0.00  0.00    +0.013 A 
ATOM     31  C   UNL     1       2.385   1.409  -0.013  0.00  0.00    +0.037 A 
ATOM     32  C   UNL     1       2.399   0.013  -0.021  0.00  0.00    +0.070 A 
ATOM     33  C   UNL     1       1.207  -0.686  -0.013  0.00  0.00    +0.060 A 
ATOM     34  C   UNL     1       0.002  -0.004   0.002  0.00  0.00    +0.021 A 
ATOM     35 CL   UNL     1       1.220  -2.422  -0.022  0.00  0.00    -0.082 Cl
ATOM     36 CL   UNL     1       3.909  -0.843  -0.040  0.00  0.00    -0.081 Cl
ENDBRANCH  24  31
ENDBRANCH   1  27
TORSDOF 2
