REMARK  Name = ZINC38050585
REMARK  4 active torsions:
REMARK  status: ('A' for Active; 'I' for Inactive)
REMARK    1  A    between atoms: C_4  and  S_8
REMARK    2  A    between atoms: S_8  and  N_11
REMARK    3  A    between atoms: N_11  and  C_12
REMARK    4  A    between atoms: C_18  and  N_20
REMARK                            x       y       z     vdW  Elec       q    Type
REMARK                         _______ _______ _______ _____ _____    ______ ____
ROOT
ATOM      1  N   UNL     1       4.381  -1.079   1.535  0.00  0.00    -0.188 NA
ATOM      2  H   UNL     1       5.177  -0.652   1.887  0.00  0.00    +0.148 HD
ENDROOT
BRANCH   1   3
ATOM      3  C   UNL     1       3.571  -1.943   2.397  0.00  0.00    +0.062 C 
ATOM      4  C   UNL     1       4.154  -3.358   2.393  0.00  0.00    +0.019 C 
ATOM      5  C   UNL     1       5.591  -3.318   2.916  0.00  0.00    +0.001 C 
ATOM      6  C   UNL     1       5.599  -2.767   4.343  0.00  0.00    -0.001 C 
ATOM      7  C   UNL     1       5.017  -1.353   4.347  0.00  0.00    -0.015 C 
ATOM      8  C   UNL     1       3.579  -1.392   3.824  0.00  0.00    -0.056 C 
BRANCH   8   9
ATOM      9  N   UNL     1       3.020  -0.034   3.828  0.00  0.00    +0.381 N 
ATOM     10  H   UNL     1       2.072  -0.059   3.482  0.00  0.00    -0.090 HD
ATOM     11  H   UNL     1       3.025   0.330   4.769  0.00  0.00    -0.090 HD
ATOM     12  H   UNL     1       3.578   0.562   3.234  0.00  0.00    -0.090 HD
ENDBRANCH   8   9
ENDBRANCH   1   3
BRANCH   1  13
ATOM     13  S   UNL     1       3.937  -0.832  -0.042  0.00  0.00    +0.064 S 
ATOM     14  O   UNL     1       3.679  -2.114  -0.597  0.00  0.00    -0.153 OA
ATOM     15  O   UNL     1       4.894   0.060  -0.597  0.00  0.00    -0.153 OA
BRANCH  13  19
ATOM     16  C   UNL     1      -0.017   1.378   0.010  0.00  0.00    +0.006 A 
ATOM     17  C   UNL     1       1.170   2.086   0.002  0.00  0.00    +0.040 A 
ATOM     18  C   UNL     1       2.379   1.412  -0.013  0.00  0.00    +0.152 A 
ATOM     19  C   UNL     1       2.399   0.028  -0.021  0.00  0.00    +0.175 A 
ATOM     20  C   UNL     1       1.210  -0.681  -0.013  0.00  0.00    +0.152 A 
ATOM     21  C   UNL     1       0.002  -0.004   0.002  0.00  0.00    +0.040 A 
ATOM     22  F   UNL     1       1.228  -2.031  -0.020  0.00  0.00    -0.203 F 
ATOM     23  F   UNL     1       3.539   2.104  -0.022  0.00  0.00    -0.203 F 
ENDBRANCH  13  19
ENDBRANCH   1  13
TORSDOF 4
