REMARK  Name = ZINC39698808
REMARK  6 active torsions:
REMARK  status: ('A' for Active; 'I' for Inactive)
REMARK    1  A    between atoms: C_1  and  O_2
REMARK    2  A    between atoms: O_2  and  C_3
REMARK    3  A    between atoms: C_6  and  C_11
REMARK    4  A    between atoms: C_8  and  O_9
REMARK    5  A    between atoms: O_9  and  C_10
REMARK    6  A    between atoms: C_12  and  N_25
REMARK                            x       y       z     vdW  Elec       q    Type
REMARK                         _______ _______ _______ _____ _____    ______ ____
ROOT
ATOM      1  C   UNL     1      -4.952  -2.609   0.036  0.00  0.00    +0.028 C 
ATOM      2  C   UNL     1      -5.367  -3.384  -1.019  0.00  0.00    +0.129 C 
ATOM      3  N   UNL     1      -6.455  -4.138  -0.968  0.00  0.00    -0.135 NA
ATOM      4  N   UNL     1      -7.106  -4.380   0.120  0.00  0.00    -0.149 NA
ATOM      5  C   UNL     1      -6.743  -3.751   1.226  0.00  0.00    +0.099 C 
ATOM      6  C   UNL     1      -6.911  -4.009   2.562  0.00  0.00    +0.023 A 
ATOM      7  C   UNL     1      -7.771  -4.896   3.252  0.00  0.00    +0.012 A 
ATOM      8  C   UNL     1      -7.643  -4.946   4.609  0.00  0.00    +0.001 A 
ATOM      9  C   UNL     1      -6.722  -4.178   5.322  0.00  0.00    +0.002 A 
ATOM     10  C   UNL     1      -5.877  -3.284   4.737  0.00  0.00    +0.026 A 
ATOM     11  C   UNL     1      -5.960  -3.152   3.323  0.00  0.00    +0.045 A 
ATOM     12  N   UNL     1      -5.325  -2.337   2.516  0.00  0.00    -0.372 N 
ATOM     13  C   UNL     1      -5.887  -2.497   1.196  0.00  0.00    +0.165 C 
ATOM     14  H   UNL     1      -4.605  -1.737   2.763  0.00  0.00    +0.161 HD
ENDROOT
BRANCH   1  18
ATOM     15  C   UNL     1      -1.199  -0.637   0.010  0.00  0.00    +0.162 A 
ATOM     16  C   UNL     1      -2.373   0.107   0.020  0.00  0.00    +0.050 A 
ATOM     17  C   UNL     1      -3.594  -0.528   0.028  0.00  0.00    +0.012 A 
ATOM     18  C   UNL     1      -3.655  -1.930   0.027  0.00  0.00    -0.013 A 
ATOM     19  C   UNL     1      -2.469  -2.678   0.017  0.00  0.00    +0.057 A 
ATOM     20  C   UNL     1      -1.250  -2.032   0.003  0.00  0.00    +0.162 A 
BRANCH  15  22
ATOM     21  C   UNL     1      -0.017   1.425   0.010  0.00  0.00    +0.277 C 
ATOM     22  O   UNL     1       0.002  -0.004   0.002  0.00  0.00    -0.491 OA
ENDBRANCH  15  22
BRANCH  20  23
ATOM     23  O   UNL     1      -0.098  -2.754  -0.012  0.00  0.00    -0.491 OA
ATOM     24  C   UNL     1      -0.225  -4.177  -0.018  0.00  0.00    +0.277 C 
ENDBRANCH  20  23
ENDBRANCH   1  18
BRANCH   2  25
ATOM     25  N   UNL     1      -4.611  -3.377  -2.195  0.00  0.00    -0.401 NA
ATOM     26  H   UNL     1      -3.910  -4.101  -2.148  0.00  0.00    +0.122 HD
ATOM     27  H   UNL     1      -5.216  -3.544  -2.985  0.00  0.00    +0.122 HD
ATOM     28  H   UNL     1      -4.161  -2.479  -2.300  0.00  0.00    +0.122 HD
ENDBRANCH   2  25
TORSDOF 4
