REMARK  Name = ZINC04428869
REMARK  10 active torsions:
REMARK  status: ('A' for Active; 'I' for Inactive)
REMARK    1  A    between atoms: C_1  and  N_2
REMARK    2  A    between atoms: C_1  and  O_6
REMARK    3  A    between atoms: O_6  and  C_7
REMARK    4  A    between atoms: C_7  and  S_9
REMARK    5  A    between atoms: S_9  and  S_10
REMARK    6  A    between atoms: S_10  and  S_11
REMARK    7  A    between atoms: S_11  and  C_12
REMARK    8  A    between atoms: C_12  and  O_14
REMARK    9  A    between atoms: O_14  and  C_15
REMARK   10  A    between atoms: C_15  and  N_16
REMARK                            x       y       z     vdW  Elec       q    Type
REMARK                         _______ _______ _______ _____ _____    ______ ____
ROOT
ATOM      1  S   UNL     1       2.838   1.050  -0.019  0.00  0.00    -0.007 S 
ENDROOT
BRANCH   1   2
ATOM      2  S   UNL     1       1.493   2.609   0.002  0.00  0.00    +0.000 S 
BRANCH   2   3
ATOM      3  C   UNL     1      -0.021   1.708   0.011  0.00  0.00    +0.213 C 
ATOM      4  S   UNL     1       0.002  -0.004   0.002  0.00  0.00    -0.003 S 
BRANCH   3   5
ATOM      5  O   UNL     1      -1.198   2.366   0.021  0.00  0.00    -0.460 OA
BRANCH   5   6
ATOM      6  C   UNL     1      -2.405   1.559   0.022  0.00  0.00    +0.341 C 
BRANCH   6   7
ATOM      7  N   UNL     1      -2.671   1.080   1.381  0.00  0.00    -0.267 N 
ATOM      8  C   UNL     1      -3.512   1.763   2.183  0.00  0.00    +0.299 C 
ATOM      9  O   UNL     1      -4.050   2.775   1.778  0.00  0.00    -0.253 OA
ATOM     10  N   UNL     1      -3.757   1.323   3.433  0.00  0.00    -0.313 N 
ATOM     11  H   UNL     1      -2.241   0.273   1.704  0.00  0.00    +0.153 HD
ATOM     12  H   UNL     1      -3.327   0.515   3.756  0.00  0.00    +0.146 HD
ATOM     13  H   UNL     1      -4.362   1.814   4.010  0.00  0.00    +0.146 HD
ENDBRANCH   6   7
ENDBRANCH   5   6
ENDBRANCH   3   5
ENDBRANCH   2   3
ENDBRANCH   1   2
BRANCH   1  14
ATOM     14  S   UNL     1       3.276   0.797  -2.016  0.00  0.00    +0.000 S 
BRANCH  14  15
ATOM     15  C   UNL     1       4.741   1.770  -2.134  0.00  0.00    +0.213 C 
ATOM     16  S   UNL     1       5.349   2.571  -0.749  0.00  0.00    -0.003 S 
BRANCH  15  17
ATOM     17  O   UNL     1       5.382   1.883  -3.314  0.00  0.00    -0.460 OA
BRANCH  17  18
ATOM     18  C   UNL     1       6.582   2.700  -3.337  0.00  0.00    +0.341 C 
BRANCH  18  19
ATOM     19  N   UNL     1       7.709   1.928  -2.807  0.00  0.00    -0.267 N 
ATOM     20  C   UNL     1       8.530   1.270  -3.650  0.00  0.00    +0.299 C 
ATOM     21  O   UNL     1       8.334   1.317  -4.849  0.00  0.00    -0.253 OA
ATOM     22  N   UNL     1       9.566   0.560  -3.163  0.00  0.00    -0.313 N 
ATOM     23  H   UNL     1       7.864   1.891  -1.851  0.00  0.00    +0.153 HD
ATOM     24  H   UNL     1       9.722   0.523  -2.206  0.00  0.00    +0.146 HD
ATOM     25  H   UNL     1      10.157   0.086  -3.769  0.00  0.00    +0.146 HD
ENDBRANCH  18  19
ENDBRANCH  17  18
ENDBRANCH  15  17
ENDBRANCH  14  15
ENDBRANCH   1  14
TORSDOF 10
