REMARK  Name = ZINC43247010
REMARK  9 active torsions:
REMARK  status: ('A' for Active; 'I' for Inactive)
REMARK    1  A    between atoms: C_1  and  C_2
REMARK    2  A    between atoms: C_2  and  C_3
REMARK    3  A    between atoms: C_3  and  C_5
REMARK    4  A    between atoms: C_3  and  N_22
REMARK    5  A    between atoms: C_5  and  C_7
REMARK    6  A    between atoms: C_5  and  S_13
REMARK    7  A    between atoms: C_10  and  C_12
REMARK    8  A    between atoms: S_13  and  C_14
REMARK    9  A    between atoms: C_18  and  N_20
REMARK                            x       y       z     vdW  Elec       q    Type
REMARK                         _______ _______ _______ _____ _____    ______ ____
ROOT
ATOM      1  C   UNL     1       0.647  -2.041  -1.345  0.00  0.00    +0.076 C 
ENDROOT
BRANCH   1   2
ATOM      2  C   UNL     1      -0.837  -2.307  -1.353  0.00  0.00    +0.002 A 
ATOM      3  C   UNL     1      -1.571  -3.072  -0.509  0.00  0.00    +0.012 A 
ATOM      4  C   UNL     1      -2.935  -3.171  -0.710  0.00  0.00    +0.011 A 
ATOM      5  C   UNL     1      -3.498  -2.500  -1.745  0.00  0.00    -0.013 A 
ATOM      6  S   UNL     1      -2.083  -1.689  -2.472  0.00  0.00    -0.097 S 
ATOM      7  C   UNL     1      -4.943  -2.447  -2.168  0.00  0.00    +0.051 C 
ENDBRANCH   1   2
BRANCH   1   8
ATOM      8  C   UNL     1       0.895  -0.541  -1.176  0.00  0.00    -0.057 C 
BRANCH   8   9
ATOM      9  N   UNL     1       2.337  -0.272  -1.254  0.00  0.00    +0.381 N 
ATOM     10  H   UNL     1       2.822  -0.836  -0.573  0.00  0.00    -0.090 HD
ATOM     11  H   UNL     1       2.672  -0.499  -2.179  0.00  0.00    -0.090 HD
ATOM     12  H   UNL     1       2.508   0.705  -1.065  0.00  0.00    -0.090 HD
ENDBRANCH   8   9
BRANCH   8  14
ATOM     13  C   UNL     1       0.499   1.433   0.303  0.00  0.00    +0.002 C 
ATOM     14  C   UNL     1       0.364  -0.086   0.185  0.00  0.00    -0.018 C 
ENDBRANCH   8  14
ENDBRANCH   1   8
BRANCH   1  15
ATOM     15  S   UNL     1       1.370  -2.601  -2.912  0.00  0.00    -0.079 S 
BRANCH  15  16
ATOM     16  C   UNL     1       1.219  -4.356  -2.848  0.00  0.00    +0.192 A 
ATOM     17  N   UNL     1       0.753  -4.923  -1.745  0.00  0.00    -0.207 NA
ATOM     18  C   UNL     1       0.625  -6.245  -1.661  0.00  0.00    +0.122 A 
ATOM     19  C   UNL     1       0.987  -7.032  -2.751  0.00  0.00    +0.086 A 
ATOM     20  C   UNL     1       1.471  -6.400  -3.892  0.00  0.00    +0.122 A 
ATOM     21  N   UNL     1       1.568  -5.072  -3.906  0.00  0.00    -0.207 NA
ATOM     22  N   UNL     1       0.138  -6.832  -0.503  0.00  0.00    -0.343 N 
ATOM     23  H   UNL     1      -0.112  -6.278   0.253  0.00  0.00    +0.144 HD
ATOM     24  H   UNL     1       0.047  -7.796  -0.449  0.00  0.00    +0.144 HD
BRANCH  20  25
ATOM     25  N   UNL     1       1.844  -7.143  -5.002  0.00  0.00    -0.343 N 
ATOM     26  H   UNL     1       1.768  -8.109  -4.986  0.00  0.00    +0.144 HD
ATOM     27  H   UNL     1       2.181  -6.696  -5.794  0.00  0.00    +0.144 HD
ENDBRANCH  20  25
ENDBRANCH  15  16
ENDBRANCH   1  15
TORSDOF 7
