REMARK  Name = ZINC39776621
REMARK  6 active torsions:
REMARK  status: ('A' for Active; 'I' for Inactive)
REMARK    1  A    between atoms: C_1  and  C_2
REMARK    2  A    between atoms: C_2  and  C_3
REMARK    3  A    between atoms: C_5  and  C_11
REMARK    4  A    between atoms: C_6  and  O_10
REMARK    5  A    between atoms: C_8  and  O_9
REMARK    6  A    between atoms: C_13  and  C_17
REMARK                            x       y       z     vdW  Elec       q    Type
REMARK                         _______ _______ _______ _____ _____    ______ ____
ROOT
ATOM      1  C   UNL     1      -3.928  -1.908  -2.438  0.00  0.00    +0.164 C 
ATOM      2  C   UNL     1      -4.693  -0.778  -3.106  0.00  0.00    +0.008 C 
ATOM      3  C   UNL     1      -4.062  -0.625  -4.294  0.00  0.00    +0.139 C 
ATOM      4  N   UNL     1      -3.051  -1.496  -4.406  0.00  0.00    -0.185 NA
ATOM      5  N   UNL     1      -2.899  -2.247  -3.436  0.00  0.00    -0.297 N 
ATOM      6  H   UNL     1      -2.222  -2.937  -3.345  0.00  0.00    +0.183 HD
ENDROOT
BRANCH   2   7
ATOM      7  C   UNL     1      -5.847  -0.029  -2.585  0.00  0.00    -0.018 A 
ATOM      8  C   UNL     1      -5.706   0.784  -1.456  0.00  0.00    +0.009 A 
ATOM      9  C   UNL     1      -6.791   1.484  -0.974  0.00  0.00    +0.016 A 
ATOM     10  C   UNL     1      -8.020   1.383  -1.605  0.00  0.00    +0.018 A 
ATOM     11  C   UNL     1      -8.168   0.579  -2.724  0.00  0.00    +0.016 A 
ATOM     12  C   UNL     1      -7.090  -0.121  -3.221  0.00  0.00    +0.009 A 
ATOM     13 BR   UNL     1      -9.504   2.346  -0.936  0.00  0.00    -0.050 Br
ENDBRANCH   2   7
BRANCH   1  16
ATOM     14  C   UNL     1      -1.412  -0.526   0.013  0.00  0.00    -0.006 A 
ATOM     15  C   UNL     1      -1.997  -0.959  -1.162  0.00  0.00    +0.016 A 
ATOM     16  C   UNL     1      -3.293  -1.437  -1.155  0.00  0.00    +0.023 A 
ATOM     17  C   UNL     1      -4.010  -1.485   0.032  0.00  0.00    +0.126 A 
ATOM     18  C   UNL     1      -3.426  -1.051   1.211  0.00  0.00    +0.091 A 
ATOM     19  C   UNL     1      -2.123  -0.576   1.203  0.00  0.00    +0.123 A 
BRANCH  14  21
ATOM     20  C   UNL     1      -0.019   1.526   0.010  0.00  0.00    +0.009 C 
ATOM     21  C   UNL     1       0.002  -0.004   0.002  0.00  0.00    +0.035 C 
ENDBRANCH  14  21
BRANCH  19  22
ATOM     22  O   UNL     1      -1.545  -0.156   2.359  0.00  0.00    -0.506 OA
ATOM     23  H   UNL     1      -1.680   0.783   2.547  0.00  0.00    +0.292 HD
ENDBRANCH  19  22
BRANCH  17  24
ATOM     24  O   UNL     1      -5.285  -1.955   0.037  0.00  0.00    -0.506 OA
ATOM     25  H   UNL     1      -5.352  -2.908   0.189  0.00  0.00    +0.292 HD
ENDBRANCH  17  24
ENDBRANCH   1  16
TORSDOF 5
