REMARK  Name = ZINC41585107
REMARK  6 active torsions:
REMARK  status: ('A' for Active; 'I' for Inactive)
REMARK    1  A    between atoms: C_1  and  C_2
REMARK    2  A    between atoms: C_4  and  O_34
REMARK    3  A    between atoms: C_5  and  C_21
REMARK    4  A    between atoms: C_11  and  C_12
REMARK    5  A    between atoms: C_21  and  N_22
REMARK    6  A    between atoms: N_25  and  C_28
REMARK                            x       y       z     vdW  Elec       q    Type
REMARK                         _______ _______ _______ _____ _____    ______ ____
ROOT
ATOM      1  C   UNL     1      -0.463   1.817   0.201  0.00  0.00    +0.045 C 
ATOM      2  C   UNL     1      -0.338   0.320   0.074  0.00  0.00    -0.033 A 
ATOM      3  C   UNL     1      -0.350  -0.265  -1.161  0.00  0.00    +0.050 A 
ATOM      4  C   UNL     1      -0.234  -1.647  -1.280  0.00  0.00    +0.122 A 
ATOM      5  C   UNL     1      -0.106  -2.444  -0.154  0.00  0.00    +0.020 A 
ATOM      6  C   UNL     1      -0.092  -1.865   1.109  0.00  0.00    +0.145 A 
ATOM      7  C   UNL     1      -0.203  -0.469   1.217  0.00  0.00    +0.071 A 
ATOM      8  C   UNL     1      -0.150  -0.158   2.657  0.00  0.00    +0.232 C 
ATOM      9  O   UNL     1      -0.218   0.937   3.186  0.00  0.00    -0.283 OA
ATOM     10  C   UNL     1       0.002  -1.467   3.311  0.00  0.00    +0.176 C 
ATOM     11  C   UNL     1       0.096  -1.690   4.646  0.00  0.00    +0.058 C 
ATOM     12  O   UNL     1       0.018  -2.410   2.340  0.00  0.00    -0.451 OA
ENDROOT
BRANCH  11  13
ATOM     13  C   UNL     1       0.135  -3.066   5.160  0.00  0.00    -0.020 A 
ATOM     14  C   UNL     1       0.212  -4.146   4.274  0.00  0.00    +0.009 A 
ATOM     15  C   UNL     1       0.248  -5.434   4.763  0.00  0.00    +0.022 A 
ATOM     16  C   UNL     1       0.209  -5.661   6.129  0.00  0.00    +0.059 A 
ATOM     17  C   UNL     1       0.133  -4.597   7.014  0.00  0.00    +0.060 A 
ATOM     18  C   UNL     1       0.102  -3.302   6.539  0.00  0.00    +0.029 A 
ATOM     19 CL   UNL     1       0.084  -4.893   8.724  0.00  0.00    -0.082 Cl
ATOM     20 CL   UNL     1       0.256  -7.287   6.736  0.00  0.00    -0.082 Cl
ENDBRANCH  11  13
BRANCH   4  21
ATOM     21  O   UNL     1      -0.248  -2.219  -2.511  0.00  0.00    -0.506 OA
ATOM     22  H   UNL     1       0.627  -2.308  -2.913  0.00  0.00    +0.292 HD
ENDBRANCH   4  21
BRANCH   5  23
ATOM     23  C   UNL     1       0.018  -3.939  -0.298  0.00  0.00    -0.035 C 
BRANCH  23  24
ATOM     24  N   UNL     1       1.436  -4.304  -0.417  0.00  0.00    +0.385 N 
ATOM     25  C   UNL     1       1.984  -3.737  -1.655  0.00  0.00    -0.059 C 
ATOM     26  C   UNL     1       3.488  -4.019  -1.724  0.00  0.00    +0.086 C 
ATOM     27  N   UNL     1       3.699  -5.467  -1.574  0.00  0.00    -0.333 N 
ATOM     28  C   UNL     1       3.047  -6.149  -0.445  0.00  0.00    +0.086 C 
ATOM     29  C   UNL     1       1.563  -5.766  -0.437  0.00  0.00    -0.059 C 
ATOM     30  H   UNL     1       1.944  -3.934   0.373  0.00  0.00    -0.081 HD
BRANCH  27  31
ATOM     31  C   UNL     1       4.495  -6.174  -2.478  0.00  0.00    +0.030 A 
ATOM     32  C   UNL     1       5.202  -5.495  -3.462  0.00  0.00    +0.023 A 
ATOM     33  C   UNL     1       5.989  -6.197  -4.354  0.00  0.00    +0.002 A 
ATOM     34  C   UNL     1       6.072  -7.575  -4.268  0.00  0.00    +0.000 A 
ATOM     35  C   UNL     1       5.370  -8.254  -3.289  0.00  0.00    +0.002 A 
ATOM     36  C   UNL     1       4.586  -7.557  -2.391  0.00  0.00    +0.023 A 
ENDBRANCH  27  31
ENDBRANCH  23  24
ENDBRANCH   5  23
TORSDOF 5
