REMARK  Name = ZINC05369366
REMARK  11 active torsions:
REMARK  status: ('A' for Active; 'I' for Inactive)
REMARK    1  A    between atoms: C_1  and  C_2
REMARK    2  A    between atoms: C_4  and  O_39
REMARK    3  A    between atoms: C_6  and  O_38
REMARK    4  A    between atoms: C_8  and  O_37
REMARK    5  A    between atoms: C_10  and  O_13
REMARK    6  A    between atoms: O_13  and  C_14
REMARK    7  A    between atoms: C_16  and  C_29
REMARK    8  A    between atoms: C_21  and  O_28
REMARK    9  A    between atoms: C_23  and  O_27
REMARK   10  A    between atoms: C_32  and  O_36
REMARK   11  A    between atoms: C_33  and  O_35
REMARK                            x       y       z     vdW  Elec       q    Type
REMARK                         _______ _______ _______ _____ _____    ______ ____
ROOT
ATOM      1  C   UNL     1      -0.137   1.035   2.401  0.00  0.00    +0.237 C 
ATOM      2  C   UNL     1      -1.235   0.951   3.471  0.00  0.00    +0.240 C 
ATOM      3  O   UNL     1      -1.756   2.260   3.716  0.00  0.00    -0.480 OA
ATOM      4  C   UNL     1      -0.891   3.260   4.008  0.00  0.00    +0.139 A 
ATOM      5  C   UNL     1      -1.337   4.382   4.683  0.00  0.00    +0.092 A 
ATOM      6  C   UNL     1      -0.457   5.416   4.978  0.00  0.00    +0.124 A 
ATOM      7  C   UNL     1       0.878   5.340   4.601  0.00  0.00    +0.091 A 
ATOM      8  C   UNL     1       1.345   4.226   3.927  0.00  0.00    +0.134 A 
ATOM      9  C   UNL     1       0.462   3.176   3.631  0.00  0.00    +0.103 A 
ATOM     10  C   UNL     1       0.932   1.978   2.925  0.00  0.00    +0.203 C 
ATOM     11  O   UNL     1       2.114   1.753   2.769  0.00  0.00    -0.289 OA
ENDROOT
BRANCH   2  12
ATOM     12  C   UNL     1      -2.341   0.049   2.987  0.00  0.00    -0.001 A 
ATOM     13  C   UNL     1      -3.291   0.533   2.107  0.00  0.00    +0.011 A 
ATOM     14  C   UNL     1      -4.304  -0.291   1.656  0.00  0.00    +0.049 A 
ATOM     15  C   UNL     1      -4.376  -1.604   2.095  0.00  0.00    +0.158 A 
ATOM     16  C   UNL     1      -3.423  -2.090   2.985  0.00  0.00    +0.159 A 
ATOM     17  C   UNL     1      -2.406  -1.259   3.429  0.00  0.00    +0.056 A 
BRANCH  16  18
ATOM     18  O   UNL     1      -3.489  -3.377   3.418  0.00  0.00    -0.503 OA
ATOM     19  H   UNL     1      -4.013  -3.495   4.223  0.00  0.00    +0.292 HD
ENDBRANCH  16  18
BRANCH  15  20
ATOM     20  O   UNL     1      -5.375  -2.415   1.656  0.00  0.00    -0.503 OA
ATOM     21  H   UNL     1      -6.169  -2.396   2.208  0.00  0.00    +0.292 HD
ENDBRANCH  15  20
ENDBRANCH   2  12
BRANCH   8  22
ATOM     22  O   UNL     1       2.647   4.148   3.556  0.00  0.00    -0.506 OA
ATOM     23  H   UNL     1       2.828   4.509   2.678  0.00  0.00    +0.292 HD
ENDBRANCH   8  22
BRANCH   6  24
ATOM     24  O   UNL     1      -0.906   6.511   5.641  0.00  0.00    -0.507 OA
ATOM     25  H   UNL     1      -0.841   6.442   6.604  0.00  0.00    +0.292 HD
ENDBRANCH   6  24
BRANCH   1  26
ATOM     26  O   UNL     1      -0.682   1.547   1.183  0.00  0.00    -0.333 OA
BRANCH  26  32
ATOM     27  C   UNL     1       2.158  -0.373  -1.157  0.00  0.00    +0.041 C 
ATOM     28  C   UNL     1       2.098   1.155  -1.128  0.00  0.00    +0.149 C 
ATOM     29  C   UNL     1       1.444   1.665  -2.414  0.00  0.00    +0.174 C 
ATOM     30  C   UNL     1       0.005   1.145  -2.487  0.00  0.00    +0.179 C 
ATOM     31  C   UNL     1      -0.752   1.593  -1.233  0.00  0.00    +0.201 C 
ATOM     32  C   UNL     1      -0.013   1.086   0.008  0.00  0.00    +0.283 C 
ATOM     33  O   UNL     1       1.328   1.581  -0.002  0.00  0.00    -0.343 OA
BRANCH  31  34
ATOM     34  O   UNL     1      -0.818   3.020  -1.199  0.00  0.00    -0.384 OA
ATOM     35  H   UNL     1      -1.281   3.374  -0.427  0.00  0.00    +0.210 HD
ENDBRANCH  31  34
BRANCH  30  36
ATOM     36  O   UNL     1      -0.636   1.675  -3.649  0.00  0.00    -0.386 OA
ATOM     37  H   UNL     1      -1.553   1.386  -3.758  0.00  0.00    +0.210 HD
ENDBRANCH  30  36
BRANCH  29  38
ATOM     38  O   UNL     1       1.437   3.094  -2.413  0.00  0.00    -0.387 OA
ATOM     39  H   UNL     1       2.317   3.492  -2.364  0.00  0.00    +0.210 HD
ENDBRANCH  29  38
ENDBRANCH  26  32
ENDBRANCH   1  26
TORSDOF 10
