REMARK  Name = ZINC63363154
REMARK  7 active torsions:
REMARK  status: ('A' for Active; 'I' for Inactive)
REMARK    1  A    between atoms: C_4  and  C_7
REMARK    2  A    between atoms: C_7  and  N_8
REMARK    3  A    between atoms: N_8  and  C_9
REMARK    4  A    between atoms: C_9  and  N_11
REMARK    5  A    between atoms: N_11  and  N_12
REMARK    6  A    between atoms: C_13  and  C_15
REMARK    7  A    between atoms: C_15  and  C_16
REMARK                            x       y       z     vdW  Elec       q    Type
REMARK                         _______ _______ _______ _____ _____    ______ ____
ROOT
ATOM      1  N   UNL     1       4.933  -1.387   3.909  0.00  0.00    -0.235 N 
ATOM      2  C   UNL     1       5.338  -1.613   5.175  0.00  0.00    +0.233 C 
ATOM      3  O   UNL     1       6.381  -2.196   5.383  0.00  0.00    -0.274 OA
ATOM      4  H   UNL     1       4.099  -0.921   3.743  0.00  0.00    +0.173 HD
ENDROOT
BRANCH   1   5
ATOM      5  N   UNL     1       5.716  -1.826   2.834  0.00  0.00    -0.246 N 
ATOM      6  H   UNL     1       6.550  -2.292   3.000  0.00  0.00    +0.172 HD
BRANCH   5   7
ATOM      7  C   UNL     1       5.311  -1.601   1.569  0.00  0.00    +0.147 C 
ATOM      8  S   UNL     1       6.268  -2.137   0.255  0.00  0.00    -0.017 S 
BRANCH   7   9
ATOM      9  N   UNL     1       4.152  -0.952   1.338  0.00  0.00    -0.321 N 
ATOM     10  H   UNL     1       3.610  -0.648   2.082  0.00  0.00    +0.148 HD
BRANCH   9  11
ATOM     11  C   UNL     1       3.711  -0.707  -0.038  0.00  0.00    +0.138 C 
BRANCH  11  15
ATOM     12  C   UNL     1      -0.017   1.378   0.010  0.00  0.00    +0.000 A 
ATOM     13  C   UNL     1       1.171   2.086   0.002  0.00  0.00    +0.000 A 
ATOM     14  C   UNL     1       2.377   1.411  -0.013  0.00  0.00    +0.005 A 
ATOM     15  C   UNL     1       2.396   0.029  -0.020  0.00  0.00    -0.030 A 
ATOM     16  C   UNL     1       1.208  -0.679  -0.012  0.00  0.00    +0.005 A 
ATOM     17  C   UNL     1       0.002  -0.004   0.002  0.00  0.00    +0.000 A 
ENDBRANCH  11  15
ENDBRANCH   9  11
ENDBRANCH   7   9
ENDBRANCH   5   7
ENDBRANCH   1   5
BRANCH   2  18
ATOM     18  C   UNL     1       4.496  -1.140   6.332  0.00  0.00    +0.130 C 
BRANCH  18  19
ATOM     19  C   UNL     1       5.167  -1.515   7.628  0.00  0.00    -0.033 C 
ATOM     20  C   UNL     1       5.980  -0.736   8.377  0.00  0.00    -0.001 A 
ATOM     21  C   UNL     1       6.464   0.640   8.216  0.00  0.00    +0.010 A 
ATOM     22  C   UNL     1       7.288   1.160   9.154  0.00  0.00    +0.001 A 
ATOM     23  C   UNL     1       7.690   0.419  10.274  0.00  0.00    +0.002 A 
ATOM     24  C   UNL     1       7.287  -0.850  10.492  0.00  0.00    +0.026 A 
ATOM     25  C   UNL     1       6.418  -1.496   9.569  0.00  0.00    +0.043 A 
ATOM     26  N   UNL     1       5.897  -2.699   9.557  0.00  0.00    -0.380 N 
ATOM     27  C   UNL     1       5.063  -2.835   8.357  0.00  0.00    +0.145 C 
ATOM     28  H   UNL     1       6.036  -3.384  10.230  0.00  0.00    +0.160 HD
ENDBRANCH  18  19
ENDBRANCH   2  18
TORSDOF 7
