REMARK  Name = ZINC39683842
REMARK  9 active torsions:
REMARK  status: ('A' for Active; 'I' for Inactive)
REMARK    1  A    between atoms: C_1  and  C_2
REMARK    2  A    between atoms: C_2  and  O_3
REMARK    3  A    between atoms: O_3  and  C_4
REMARK    4  A    between atoms: C_7  and  C_10
REMARK    5  A    between atoms: C_14  and  C_23
REMARK    6  A    between atoms: N_25  and  C_26
REMARK    7  A    between atoms: C_26  and  C_28
REMARK    8  A    between atoms: C_26  and  C_29
REMARK    9  A    between atoms: N_31  and  C_32
REMARK                            x       y       z     vdW  Elec       q    Type
REMARK                         _______ _______ _______ _____ _____    ______ ____
ROOT
ATOM      1  C   UNL     1       1.109  -6.018  -1.841  0.00  0.00    +0.247 C 
ATOM      2  O   UNL     1       0.739  -6.769  -0.959  0.00  0.00    -0.270 OA
ATOM      3  N   UNL     1       1.641  -6.518  -2.973  0.00  0.00    -0.296 N 
ATOM      4  C   UNL     1       2.259  -5.770  -4.094  0.00  0.00    +0.121 C 
ATOM      5  C   UNL     1       3.471  -6.630  -4.516  0.00  0.00    +0.100 C 
ATOM      6  C   UNL     1       3.126  -8.053  -4.046  0.00  0.00    -0.004 C 
ATOM      7  C   UNL     1       1.748  -7.941  -3.377  0.00  0.00    +0.115 C 
ATOM      8  C   UNL     1       3.058  -9.002  -5.239  0.00  0.00    -0.010 C 
ATOM      9  C   UNL     1       2.771 -10.421  -4.741  0.00  0.00    -0.082 C 
ATOM     10  N   UNL     1       3.829 -10.841  -3.816  0.00  0.00    +0.379 N 
ATOM     11  C   UNL     1       3.826  -9.980  -2.627  0.00  0.00    -0.082 C 
ATOM     12  C   UNL     1       4.159  -8.542  -3.036  0.00  0.00    -0.010 C 
ATOM     13  H   UNL     1       3.670 -11.798  -3.537  0.00  0.00    -0.086 HD
ATOM     14  H   UNL     1       4.724 -10.772  -4.277  0.00  0.00    -0.086 HD
ENDROOT
BRANCH   1  18
ATOM     15  C   UNL     1       0.717  -1.818  -1.352  0.00  0.00    +0.121 A 
ATOM     16  C   UNL     1       0.767  -2.365  -2.629  0.00  0.00    +0.046 A 
ATOM     17  C   UNL     1       0.894  -3.727  -2.791  0.00  0.00    +0.016 A 
ATOM     18  C   UNL     1       0.973  -4.558  -1.671  0.00  0.00    +0.037 A 
ATOM     19  C   UNL     1       0.922  -4.004  -0.389  0.00  0.00    +0.016 A 
ATOM     20  C   UNL     1       0.800  -2.641  -0.235  0.00  0.00    +0.046 A 
BRANCH  15  21
ATOM     21  O   UNL     1       0.592  -0.475  -1.196  0.00  0.00    -0.492 OA
BRANCH  21  23
ATOM     22  C   UNL     1       0.375   1.789  -2.012  0.00  0.00    +0.048 C 
ATOM     23  C   UNL     1       0.511   0.311  -2.386  0.00  0.00    +0.225 C 
ENDBRANCH  21  23
ENDBRANCH  15  21
ENDBRANCH   1  18
BRANCH   5  24
ATOM     24  C   UNL     1       4.724  -6.141  -3.836  0.00  0.00    +0.219 C 
ATOM     25  O   UNL     1       4.669  -5.700  -2.707  0.00  0.00    -0.275 OA
ATOM     26  N   UNL     1       5.906  -6.192  -4.482  0.00  0.00    -0.304 N 
ATOM     27  H   UNL     1       5.950  -6.544  -5.385  0.00  0.00    +0.149 HD
BRANCH  26  28
ATOM     28  C   UNL     1       7.123  -5.716  -3.821  0.00  0.00    +0.156 C 
ATOM     29  C   UNL     1       7.710  -6.839  -2.964  0.00  0.00    +0.038 C 
BRANCH  28  30
ATOM     30  C   UNL     1       8.130  -5.301  -4.863  0.00  0.00    +0.233 C 
ATOM     31  O   UNL     1       7.858  -5.393  -6.041  0.00  0.00    -0.274 OA
ATOM     32  N   UNL     1       9.334  -4.827  -4.485  0.00  0.00    -0.317 N 
ATOM     33  C   UNL     1      10.313  -4.422  -5.497  0.00  0.00    +0.128 C 
ATOM     34  H   UNL     1       9.552  -4.753  -3.542  0.00  0.00    +0.148 HD
ENDBRANCH  28  30
ENDBRANCH  26  28
ENDBRANCH   5  24
TORSDOF 6
