REMARK  Name = ZINC06462097
REMARK  16 active torsions:
REMARK  status: ('A' for Active; 'I' for Inactive)
REMARK    1  A    between atoms: C_1  and  C_2
REMARK    2  A    between atoms: C_2  and  C_3
REMARK    3  A    between atoms: C_3  and  C_4
REMARK    4  A    between atoms: C_3  and  C_5
REMARK    5  A    between atoms: C_3  and  N_6
REMARK    6  A    between atoms: C_7  and  C_9
REMARK    7  A    between atoms: C_9  and  C_11
REMARK    8  A    between atoms: C_9  and  N_20
REMARK    9  A    between atoms: C_14  and  O_17
REMARK   10  A    between atoms: O_17  and  C_18
REMARK   11  A    between atoms: C_18  and  C_19
REMARK   12  A    between atoms: N_20  and  C_21
REMARK   13  A    between atoms: C_21  and  C_22
REMARK   14  A    between atoms: C_27  and  C_29
REMARK   15  A    between atoms: C_30  and  N_37
REMARK   16  A    between atoms: C_31  and  C_34
REMARK                            x       y       z     vdW  Elec       q    Type
REMARK                         _______ _______ _______ _____ _____    ______ ____
ROOT
ATOM      1  N   UNL     1      -2.654   4.526   0.123  0.00  0.00    -0.274 N 
ATOM      2  C   UNL     1      -3.018   5.823   0.105  0.00  0.00    +0.258 C 
ATOM      3  O   UNL     1      -2.170   6.694   0.164  0.00  0.00    -0.269 OA
ENDROOT
BRANCH   2   4
ATOM      4  C   UNL     1      -4.434   6.186   0.014  0.00  0.00    +0.115 A 
ATOM      5  C   UNL     1      -5.031   7.445   0.085  0.00  0.00    +0.076 A 
ATOM      6  C   UNL     1      -6.418   7.387  -0.048  0.00  0.00    +0.155 A 
ATOM      7  N   UNL     1      -7.001   6.219  -0.208  0.00  0.00    -0.203 NA
ATOM      8  S   UNL     1      -5.855   5.136  -0.208  0.00  0.00    +0.019 S 
BRANCH   6   9
ATOM      9  C   UNL     1      -7.224   8.621  -0.004  0.00  0.00    +0.262 C 
ATOM     10  O   UNL     1      -6.678   9.698   0.144  0.00  0.00    -0.269 OA
ATOM     11  N   UNL     1      -8.564   8.556  -0.128  0.00  0.00    -0.324 N 
ATOM     12  H   UNL     1      -8.999   7.697  -0.247  0.00  0.00    +0.145 HD
ATOM     13  H   UNL     1      -9.094   9.368  -0.099  0.00  0.00    +0.145 HD
ENDBRANCH   6   9
BRANCH   5  14
ATOM     14  N   UNL     1      -4.323   8.626   0.265  0.00  0.00    -0.355 N 
ATOM     15  H   UNL     1      -3.357   8.604   0.350  0.00  0.00    +0.142 HD
ATOM     16  H   UNL     1      -4.794   9.473   0.307  0.00  0.00    +0.142 HD
ENDBRANCH   5  14
ENDBRANCH   2   4
BRANCH   1  17
ATOM     17  C   UNL     1      -1.237   4.161   0.058  0.00  0.00    +0.193 C 
BRANCH  17  18
ATOM     18  C   UNL     1      -0.701   4.472  -1.316  0.00  0.00    -0.018 A 
ATOM     19  C   UNL     1      -1.453   4.167  -2.435  0.00  0.00    +0.009 A 
ATOM     20  C   UNL     1      -0.966   4.456  -3.695  0.00  0.00    +0.046 A 
ATOM     21  C   UNL     1       0.284   5.041  -3.838  0.00  0.00    +0.121 A 
ATOM     22  C   UNL     1       1.039   5.340  -2.713  0.00  0.00    +0.046 A 
ATOM     23  C   UNL     1       0.545   5.055  -1.455  0.00  0.00    +0.009 A 
BRANCH  21  24
ATOM     24  O   UNL     1       0.767   5.320  -5.077  0.00  0.00    -0.492 OA
BRANCH  24  25
ATOM     25  C   UNL     1      -0.065   4.985  -6.189  0.00  0.00    +0.225 C 
ATOM     26  C   UNL     1       0.642   5.370  -7.490  0.00  0.00    +0.048 C 
ENDBRANCH  24  25
ENDBRANCH  21  24
ENDBRANCH  17  18
BRANCH  17  28
ATOM     27  N   UNL     1      -0.047   2.007  -0.192  0.00  0.00    -0.308 N 
ATOM     28  C   UNL     1      -1.084   2.688   0.336  0.00  0.00    +0.239 C 
ATOM     29  O   UNL     1      -1.893   2.115   1.034  0.00  0.00    -0.273 OA
ATOM     30  H   UNL     1       0.598   2.464  -0.753  0.00  0.00    +0.149 HD
BRANCH  27  31
ATOM     31  C   UNL     1       0.102   0.575   0.079  0.00  0.00    +0.029 C 
ATOM     32  C   UNL     1       0.249   0.353   1.585  0.00  0.00    +0.031 C 
ATOM     33  C   UNL     1      -1.134  -0.171  -0.429  0.00  0.00    +0.031 C 
BRANCH  31  35
ATOM     34  C   UNL     1       1.502  -1.448  -0.356  0.00  0.00    +0.006 C 
ATOM     35  C   UNL     1       1.346   0.047  -0.638  0.00  0.00    +0.022 C 
ENDBRANCH  31  35
ENDBRANCH  27  31
ENDBRANCH  17  28
ENDBRANCH   1  17
BRANCH   1  36
ATOM     36  C   UNL     1      -3.676   3.480   0.208  0.00  0.00    +0.183 C 
BRANCH  36  37
ATOM     37  C   UNL     1      -4.131   3.337   1.637  0.00  0.00    +0.122 A 
ATOM     38  C   UNL     1      -5.050   4.104   2.251  0.00  0.00    +0.046 A 
ATOM     39  C   UNL     1      -5.167   3.623   3.575  0.00  0.00    +0.041 A 
ATOM     40  C   UNL     1      -4.314   2.590   3.691  0.00  0.00    +0.195 A 
ATOM     41  O   UNL     1      -3.693   2.417   2.513  0.00  0.00    -0.466 OA
ENDBRANCH  36  37
ENDBRANCH   1  36
TORSDOF 12
