REMARK  Name = ZINC08748349
REMARK  6 active torsions:
REMARK  status: ('A' for Active; 'I' for Inactive)
REMARK    1  A    between atoms: C_1  and  C_2
REMARK    2  A    between atoms: C_2  and  C_4
REMARK    3  A    between atoms: C_2  and  N_14
REMARK    4  A    between atoms: C_15  and  C_17
REMARK    5  A    between atoms: C_18  and  N_30
REMARK    6  A    between atoms: C_29  and  N_62
REMARK                            x       y       z     vdW  Elec       q    Type
REMARK                         _______ _______ _______ _____ _____    ______ ____
ROOT
ATOM      1  C   UNL     1       3.648   1.423  -0.695  0.00  0.00    +0.097 A 
ATOM      2  C   UNL     1       4.751   0.888  -1.323  0.00  0.00    +0.053 A 
ATOM      3  C   UNL     1       6.024   1.580  -1.191  0.00  0.00    +0.029 A 
ATOM      4  C   UNL     1       7.282   1.234  -1.739  0.00  0.00    +0.016 A 
ATOM      5  C   UNL     1       8.377   2.033  -1.482  0.00  0.00    -0.042 A 
ATOM      6  C   UNL     1       8.241   3.164  -0.697  0.00  0.00    +0.042 A 
ATOM      7  N   UNL     1       7.062   3.482  -0.186  0.00  0.00    -0.244 NA
ATOM      8  C   UNL     1       5.992   2.752  -0.402  0.00  0.00    +0.111 A 
ATOM      9  S   UNL     1       4.296   2.876   0.110  0.00  0.00    -0.062 S 
ATOM     10  C   UNL     1       9.413   4.065  -0.399  0.00  0.00    +0.037 C 
ATOM     11  C   UNL     1      10.722   3.335  -0.701  0.00  0.00    -0.073 C 
ATOM     12  C   UNL     1       9.706   1.632  -2.071  0.00  0.00    -0.042 C 
ATOM     13  C   UNL     1      11.964   2.361  -2.540  0.00  0.00    -0.096 C 
ATOM     14  N   UNL     1      10.626   2.781  -2.067  0.00  0.00    +0.381 N 
ATOM     15  H   UNL     1      10.261   3.505  -2.698  0.00  0.00    -0.082 HD
ENDROOT
BRANCH   1  17
ATOM     16  N   UNL     1       1.362   1.593  -0.002  0.00  0.00    -0.308 N 
ATOM     17  C   UNL     1       2.318   0.933  -0.685  0.00  0.00    +0.253 C 
ATOM     18  O   UNL     1       2.040  -0.085  -1.292  0.00  0.00    -0.270 OA
ATOM     19  H   UNL     1       1.583   2.404   0.482  0.00  0.00    +0.149 HD
BRANCH  16  21
ATOM     20  C   UNL     1      -0.753   1.593  -1.232  0.00  0.00    +0.028 C 
ATOM     21  C   UNL     1      -0.013   1.086   0.008  0.00  0.00    +0.076 C 
BRANCH  21  22
ATOM     22  C   UNL     1      -0.729   1.579   1.267  0.00  0.00    -0.010 C 
ATOM     23  C   UNL     1      -0.750   3.109   1.275  0.00  0.00    +0.012 C 
ATOM     24  C   UNL     1      -1.466   3.603   2.534  0.00  0.00    -0.010 C 
ATOM     25  C   UNL     1      -2.901   3.073   2.545  0.00  0.00    +0.007 C 
ATOM     26  C   UNL     1      -2.880   1.543   2.537  0.00  0.00    -0.010 C 
ATOM     27  C   UNL     1      -2.164   1.050   1.278  0.00  0.00    +0.012 C 
ATOM     28  C   UNL     1      -2.140   1.036   3.776  0.00  0.00    +0.007 C 
ATOM     29  C   UNL     1      -0.705   1.566   3.765  0.00  0.00    -0.010 C 
ATOM     30  C   UNL     1      -0.726   3.096   3.774  0.00  0.00    +0.007 C 
ATOM     31  C   UNL     1       0.011   1.072   2.506  0.00  0.00    +0.012 C 
ENDBRANCH  21  22
ENDBRANCH  16  21
ENDBRANCH   1  17
BRANCH   2  32
ATOM     32  N   UNL     1       4.649  -0.279  -2.067  0.00  0.00    -0.356 N 
ATOM     33  H   UNL     1       3.793  -0.728  -2.150  0.00  0.00    +0.142 HD
ATOM     34  H   UNL     1       5.433  -0.645  -2.505  0.00  0.00    +0.142 HD
ENDBRANCH   2  32
TORSDOF 4
