REMARK  Name = ZINC12562761
REMARK  5 active torsions:
REMARK  status: ('A' for Active; 'I' for Inactive)
REMARK    1  A    between atoms: C_13  and  N_17
REMARK    2  A    between atoms: C_18  and  C_20
REMARK    3  A    between atoms: C_25  and  N_26
REMARK    4  A    between atoms: N_26  and  S_27
REMARK    5  A    between atoms: S_27  and  C_30
REMARK                            x       y       z     vdW  Elec       q    Type
REMARK                         _______ _______ _______ _____ _____    ______ ____
ROOT
ATOM      1  N   UNL     1       2.445   5.513  -0.261  0.00  0.00    -0.281 N 
ATOM      2  C   UNL     1       3.603   6.179  -0.081  0.00  0.00    +0.250 C 
ATOM      3  O   UNL     1       4.659   5.577  -0.092  0.00  0.00    -0.270 OA
ATOM      4  H   UNL     1       1.610   6.002  -0.334  0.00  0.00    +0.155 HD
ENDROOT
BRANCH   1  17
ATOM      5  C   UNL     1      -2.744   2.171  -3.766  0.00  0.00    +0.001 A 
ATOM      6  C   UNL     1      -2.756   3.552  -3.691  0.00  0.00    +0.001 A 
ATOM      7  C   UNL     1      -1.765   4.225  -2.998  0.00  0.00    +0.012 A 
ATOM      8  C   UNL     1      -0.736   3.511  -2.391  0.00  0.00    +0.033 A 
ATOM      9  C   UNL     1      -0.719   2.107  -2.474  0.00  0.00    +0.033 A 
ATOM     10  C   UNL     1      -1.733   1.445  -3.162  0.00  0.00    +0.012 A 
ATOM     11  C   UNL     1       0.365   1.341  -1.826  0.00  0.00    +0.195 C 
ATOM     12  O   UNL     1       0.376   0.128  -1.891  0.00  0.00    -0.287 OA
ATOM     13  C   UNL     1       1.439   2.054  -1.103  0.00  0.00    +0.035 A 
ATOM     14  C   UNL     1       2.467   1.341  -0.496  0.00  0.00    +0.012 A 
ATOM     15  C   UNL     1       3.474   2.013   0.181  0.00  0.00    +0.003 A 
ATOM     16  C   UNL     1       3.468   3.390   0.259  0.00  0.00    +0.024 A 
ATOM     17  C   UNL     1       2.447   4.125  -0.343  0.00  0.00    +0.045 A 
ATOM     18  C   UNL     1       1.425   3.459  -1.029  0.00  0.00    +0.054 A 
ATOM     19  C   UNL     1       0.340   4.223  -1.669  0.00  0.00    +0.196 C 
ATOM     20  O   UNL     1       0.329   5.437  -1.603  0.00  0.00    -0.287 OA
ENDBRANCH   1  17
BRANCH   2  21
ATOM     21  C   UNL     1       3.588   7.638   0.129  0.00  0.00    +0.059 A 
ATOM     22  C   UNL     1       2.377   8.335   0.142  0.00  0.00    +0.015 A 
ATOM     23  C   UNL     1       2.370   9.698   0.340  0.00  0.00    +0.001 A 
ATOM     24  C   UNL     1       3.559  10.384   0.526  0.00  0.00    +0.002 A 
ATOM     25  C   UNL     1       4.764   9.711   0.516  0.00  0.00    +0.025 A 
ATOM     26  C   UNL     1       4.791   8.336   0.323  0.00  0.00    +0.060 A 
BRANCH  26  27
ATOM     27  N   UNL     1       6.001   7.655   0.317  0.00  0.00    -0.216 N 
ATOM     28  H   UNL     1       6.130   6.899  -0.277  0.00  0.00    +0.174 HD
BRANCH  27  29
ATOM     29  S   UNL     1       7.225   8.134   1.325  0.00  0.00    +0.072 S 
ATOM     30  O   UNL     1       8.263   7.173   1.189  0.00  0.00    -0.150 OA
ATOM     31  O   UNL     1       7.433   9.519   1.082  0.00  0.00    -0.150 OA
BRANCH  29  32
ATOM     32  C   UNL     1       6.625   7.997   2.975  0.00  0.00    +0.109 A 
ATOM     33  C   UNL     1       5.995   9.073   3.573  0.00  0.00    +0.031 A 
ATOM     34  C   UNL     1       5.519   8.965   4.866  0.00  0.00    +0.040 A 
ATOM     35  C   UNL     1       5.683   7.782   5.567  0.00  0.00    +0.124 A 
ATOM     36  C   UNL     1       6.318   6.707   4.969  0.00  0.00    +0.040 A 
ATOM     37  C   UNL     1       6.788   6.815   3.674  0.00  0.00    +0.031 A 
ATOM     38  F   UNL     1       5.223   7.677   6.833  0.00  0.00    -0.205 F 
ENDBRANCH  29  32
ENDBRANCH  27  29
ENDBRANCH  26  27
ENDBRANCH   2  21
TORSDOF 5
