REMARK  Name = ZINC20183131
REMARK  7 active torsions:
REMARK  status: ('A' for Active; 'I' for Inactive)
REMARK    1  A    between atoms: C_1  and  C_2
REMARK    2  A    between atoms: C_4  and  N_31
REMARK    3  A    between atoms: C_9  and  N_12
REMARK    4  A    between atoms: N_12  and  C_13
REMARK    5  A    between atoms: C_13  and  N_15
REMARK    6  A    between atoms: N_18  and  C_21
REMARK    7  A    between atoms: C_25  and  C_27
REMARK                            x       y       z     vdW  Elec       q    Type
REMARK                         _______ _______ _______ _____ _____    ______ ____
ROOT
ATOM      1  N   UNL     1      -0.193   9.346  -2.463  0.00  0.00    -0.297 N 
ATOM      2  H   UNL     1      -1.197   8.898  -2.488  0.00  0.00    +0.154 HD
ENDROOT
BRANCH   1  11
ATOM      3  C   UNL     1      -2.891  12.018  -5.906  0.00  0.00    +0.044 C 
ATOM      4  C   UNL     1      -1.468  12.515  -5.908  0.00  0.00    -0.038 A 
ATOM      5  C   UNL     1      -1.081  13.523  -6.740  0.00  0.00    +0.045 A 
ATOM      6  C   UNL     1       0.248  13.969  -6.725  0.00  0.00    +0.099 A 
ATOM      7  N   UNL     1       1.144  13.438  -5.920  0.00  0.00    -0.343 N 
ATOM      8  C   UNL     1       0.823  12.446  -5.080  0.00  0.00    +0.048 A 
ATOM      9  C   UNL     1      -0.504  11.950  -5.049  0.00  0.00    +0.003 A 
ATOM     10  C   UNL     1      -0.836  10.910  -4.168  0.00  0.00    +0.033 A 
ATOM     11  C   UNL     1       0.134  10.383  -3.344  0.00  0.00    +0.033 A 
ATOM     12  C   UNL     1       1.441  10.881  -3.376  0.00  0.00    +0.025 A 
ATOM     13  C   UNL     1       1.787  11.885  -4.225  0.00  0.00    +0.028 A 
ATOM     14  H   UNL     1       2.180  13.808  -5.929  0.00  0.00    +0.167 HD
BRANCH   6  15
ATOM     15  N   UNL     1       0.628  14.995  -7.578  0.00  0.00    -0.317 N 
ATOM     16  C   UNL     1      -0.110  16.247  -7.267  0.00  0.00    +0.106 C 
ATOM     17  C   UNL     1       0.775  17.348  -7.904  0.00  0.00    +0.020 C 
ATOM     18  C   UNL     1       2.209  16.837  -7.635  0.00  0.00    +0.020 C 
ATOM     19  C   UNL     1       2.061  15.320  -7.412  0.00  0.00    +0.106 C 
ENDBRANCH   6  15
ENDBRANCH   1  11
BRANCH   1  20
ATOM     20  C   UNL     1       0.724   8.896  -1.583  0.00  0.00    +0.137 C 
ATOM     21  S   UNL     1       1.583   7.450  -1.906  0.00  0.00    -0.018 S 
BRANCH  20  22
ATOM     22  N   UNL     1       0.964   9.583  -0.449  0.00  0.00    -0.309 N 
ATOM     23  C   UNL     1       1.879   9.055   0.575  0.00  0.00    +0.125 C 
ATOM     24  C   UNL     1       1.165   9.090   1.930  0.00  0.00    +0.124 C 
ATOM     25  N   UNL     1       0.668  10.449   2.183  0.00  0.00    -0.327 N 
ATOM     26  C   UNL     1      -0.334  10.844   1.184  0.00  0.00    +0.124 C 
ATOM     27  C   UNL     1       0.318  10.881  -0.202  0.00  0.00    +0.125 C 
BRANCH  25  28
ATOM     28  C   UNL     1       0.155  10.561   3.478  0.00  0.00    +0.030 A 
ATOM     29  C   UNL     1       0.167   9.463   4.329  0.00  0.00    +0.023 A 
ATOM     30  C   UNL     1      -0.341   9.578   5.608  0.00  0.00    +0.002 A 
ATOM     31  C   UNL     1      -0.860  10.784   6.042  0.00  0.00    +0.012 A 
ATOM     32  C   UNL     1      -0.878  11.877   5.196  0.00  0.00    +0.057 A 
ATOM     33  C   UNL     1      -0.367  11.771   3.917  0.00  0.00    +0.035 A 
BRANCH  32  34
ATOM     34  C   UNL     1      -1.451  13.187   5.671  0.00  0.00    +0.417 C 
ATOM     35  F   UNL     1      -1.898  13.050   6.989  0.00  0.00    -0.166 F 
ATOM     36  F   UNL     1      -0.464  14.176   5.613  0.00  0.00    -0.166 F 
ATOM     37  F   UNL     1      -2.525  13.552   4.851  0.00  0.00    -0.166 F 
ENDBRANCH  32  34
ENDBRANCH  25  28
ENDBRANCH  20  22
ENDBRANCH   1  20
TORSDOF 6
