REMARK  Name = ZINC08881181
REMARK  11 active torsions:
REMARK  status: ('A' for Active; 'I' for Inactive)
REMARK    1  A    between atoms: C_1  and  C_2
REMARK    2  A    between atoms: C_2  and  C_3
REMARK    3  A    between atoms: C_3  and  N_71
REMARK    4  A    between atoms: C_9  and  N_16
REMARK    5  A    between atoms: C_10  and  C_11
REMARK    6  A    between atoms: C_11  and  O_13
REMARK    7  A    between atoms: O_13  and  C_14
REMARK    8  A    between atoms: C_14  and  C_15
REMARK    9  A    between atoms: C_17  and  C_19
REMARK   10  A    between atoms: C_22  and  S_25
REMARK   11  A    between atoms: S_25  and  N_28
REMARK                            x       y       z     vdW  Elec       q    Type
REMARK                         _______ _______ _______ _____ _____    ______ ____
ROOT
ATOM      1  N   UNL     1       1.468   2.083   2.486  0.00  0.00    -0.275 N 
ATOM      2  C   UNL     1       2.216   2.522   3.518  0.00  0.00    +0.249 C 
ATOM      3  O   UNL     1       3.244   3.135   3.307  0.00  0.00    -0.270 OA
ATOM      4  H   UNL     1       0.648   1.593   2.655  0.00  0.00    +0.156 HD
ENDROOT
BRANCH   1  10
ATOM      5  C   UNL     1       2.016   2.976  -3.634  0.00  0.00    -0.074 C 
ATOM      6  C   UNL     1       1.329   2.045  -2.631  0.00  0.00    +0.018 C 
ATOM      7  C   UNL     1       1.879   2.354  -1.243  0.00  0.00    -0.025 A 
ATOM      8  C   UNL     1       3.037   3.041  -1.109  0.00  0.00    -0.021 A 
ATOM      9  S   UNL     1       3.285   3.171   0.637  0.00  0.00    -0.079 S 
ATOM     10  C   UNL     1       1.872   2.330   1.185  0.00  0.00    +0.086 A 
ATOM     11  C   UNL     1       1.244   1.962   0.001  0.00  0.00    +0.091 A 
ATOM     12  C   UNL     1       3.894   3.561  -2.220  0.00  0.00    -0.035 C 
ATOM     13  N   UNL     1       3.481   2.878  -3.470  0.00  0.00    +0.383 N 
ATOM     14  H   UNL     1       3.746   1.887  -3.413  0.00  0.00    -0.081 HD
BRANCH  11  15
ATOM     15  C   UNL     1      -0.014   1.212   0.009  0.00  0.00    +0.342 C 
ATOM     16  O   UNL     1       0.002  -0.004   0.002  0.00  0.00    -0.245 OA
BRANCH  15  17
ATOM     17  O   UNL     1      -1.192   1.871   0.018  0.00  0.00    -0.461 OA
BRANCH  17  18
ATOM     18  C   UNL     1      -2.398   1.063   0.019  0.00  0.00    +0.229 C 
ATOM     19  C   UNL     1      -3.624   1.979   0.030  0.00  0.00    +0.048 C 
ENDBRANCH  17  18
ENDBRANCH  15  17
ENDBRANCH  11  15
BRANCH  13  20
ATOM     20  C   UNL     1       4.163   3.491  -4.630  0.00  0.00    -0.079 C 
BRANCH  20  22
ATOM     21  C   UNL     1       4.426   5.553  -6.017  0.00  0.00    +0.002 C 
ATOM     22  C   UNL     1       3.710   4.942  -4.811  0.00  0.00    -0.022 C 
ENDBRANCH  20  22
ENDBRANCH  13  20
ENDBRANCH   1  10
BRANCH   2  23
ATOM     23  C   UNL     1       1.785   2.258   4.907  0.00  0.00    +0.037 A 
ATOM     24  C   UNL     1       0.601   1.560   5.154  0.00  0.00    +0.015 A 
ATOM     25  C   UNL     1       0.208   1.312   6.452  0.00  0.00    +0.029 A 
ATOM     26  C   UNL     1       0.977   1.765   7.510  0.00  0.00    +0.106 A 
ATOM     27  C   UNL     1       2.148   2.463   7.273  0.00  0.00    +0.029 A 
ATOM     28  C   UNL     1       2.556   2.712   5.979  0.00  0.00    +0.015 A 
BRANCH  26  29
ATOM     29  S   UNL     1       0.464   1.450   9.165  0.00  0.00    +0.061 S 
ATOM     30  O   UNL     1      -0.380   0.307   9.119  0.00  0.00    -0.153 OA
ATOM     31  O   UNL     1       1.634   1.501   9.970  0.00  0.00    -0.153 OA
BRANCH  29  32
ATOM     32  N   UNL     1      -0.488   2.722   9.633  0.00  0.00    -0.177 NA
ATOM     33  C   UNL     1       0.139   3.860  10.268  0.00  0.00    +0.109 C 
ATOM     34  C   UNL     1       0.196   3.644  11.795  0.00  0.00    +0.017 C 
ATOM     35  C   UNL     1      -1.151   3.753  12.376  0.00  0.00    +0.001 C 
ATOM     36  C   UNL     1      -2.136   2.698  11.881  0.00  0.00    +0.001 C 
ATOM     37  C   UNL     1      -2.759   3.164  10.588  0.00  0.00    +0.017 C 
ATOM     38  C   UNL     1      -1.942   2.645   9.390  0.00  0.00    +0.109 C 
ENDBRANCH  29  32
ENDBRANCH  26  29
ENDBRANCH   2  23
TORSDOF 9
