REMARK  Name = ZINC21985992
REMARK  15 active torsions:
REMARK  status: ('A' for Active; 'I' for Inactive)
REMARK    1  A    between atoms: C_1  and  C_2
REMARK    2  A    between atoms: C_2  and  C_3
REMARK    3  A    between atoms: C_3  and  C_4
REMARK    4  A    between atoms: C_7  and  C_12
REMARK    5  A    between atoms: N_9  and  C_11
REMARK    6  A    between atoms: N_14  and  C_15
REMARK    7  A    between atoms: C_15  and  C_17
REMARK    8  A    between atoms: C_15  and  C_33
REMARK    9  A    between atoms: C_19  and  O_32
REMARK   10  A    between atoms: C_21  and  O_31
REMARK   11  A    between atoms: C_23  and  O_30
REMARK   12  A    between atoms: C_25  and  S_28
REMARK   13  A    between atoms: S_28  and  C_29
REMARK   14  A    between atoms: C_33  and  C_35
REMARK   15  A    between atoms: C_33  and  O_36
REMARK                            x       y       z     vdW  Elec       q    Type
REMARK                         _______ _______ _______ _____ _____    ______ ____
ROOT
ATOM      1  C   UNL     1      -2.861   3.483   0.149  0.00  0.00    +0.132 C 
ENDROOT
BRANCH   1   2
ATOM      2  C   UNL     1      -2.852   1.953   0.134  0.00  0.00    +0.173 C 
ATOM      3  C   UNL     1      -2.250   1.459  -1.184  0.00  0.00    +0.176 C 
ATOM      4  C   UNL     1      -0.797   1.934  -1.283  0.00  0.00    +0.177 C 
ATOM      5  C   UNL     1      -0.021   1.425  -0.064  0.00  0.00    +0.184 C 
ATOM      6  C   UNL     1      -0.708   1.921   1.212  0.00  0.00    +0.207 C 
ATOM      7  O   UNL     1      -2.065   1.470   1.225  0.00  0.00    -0.356 OA
BRANCH   6   8
ATOM      8  S   UNL     1       0.164   1.265   2.661  0.00  0.00    -0.131 S 
ATOM      9  C   UNL     1      -0.666   2.055   4.067  0.00  0.00    +0.087 C 
ENDBRANCH   6   8
BRANCH   5  10
ATOM     10  O   UNL     1      -0.002  -0.003  -0.072  0.00  0.00    -0.386 OA
ATOM     11  H   UNL     1       0.513  -0.551   0.731  0.00  0.00    +0.210 HD
ENDBRANCH   5  10
BRANCH   4  12
ATOM     12  O   UNL     1      -0.760   3.362  -1.312  0.00  0.00    -0.386 OA
ATOM     13  H   UNL     1       0.205   3.886  -1.381  0.00  0.00    +0.210 HD
ENDBRANCH   4  12
BRANCH   3  14
ATOM     14  O   UNL     1      -2.289   0.031  -1.224  0.00  0.00    -0.387 OA
ATOM     15  H   UNL     1      -1.898  -0.506  -2.100  0.00  0.00    +0.210 HD
ENDBRANCH   3  14
ENDBRANCH   1   2
BRANCH   1  18
ATOM     16  C   UNL     1      -3.247   5.207  -1.528  0.00  0.00    +0.200 C 
ATOM     17  O   UNL     1      -2.432   5.902  -0.959  0.00  0.00    -0.278 OA
ATOM     18  N   UNL     1      -3.534   3.979  -1.054  0.00  0.00    -0.309 N 
ATOM     19  H   UNL     1      -4.273   3.349  -1.570  0.00  0.00    +0.149 HD
BRANCH  16  22
ATOM     20  C   UNL     1      -3.308   6.276  -5.066  0.00  0.00    -0.029 C 
ATOM     21  C   UNL     1      -3.280   5.131  -4.032  0.00  0.00    -0.005 C 
ATOM     22  C   UNL     1      -3.940   5.718  -2.766  0.00  0.00    +0.019 C 
ATOM     23  N   UNL     1      -3.756   7.186  -2.894  0.00  0.00    +0.386 N 
ATOM     24  C   UNL     1      -3.983   7.458  -4.336  0.00  0.00    -0.075 C 
ATOM     25  C   UNL     1      -4.726   7.912  -2.062  0.00  0.00    -0.095 C 
ATOM     26  H   UNL     1      -2.768   7.524  -2.547  0.00  0.00    -0.081 HD
BRANCH  20  27
ATOM     27  C   UNL     1      -4.131   5.868  -6.289  0.00  0.00    +0.001 C 
BRANCH  27  29
ATOM     28  C   UNL     1      -4.866   6.556  -8.576  0.00  0.00    +0.004 C 
ATOM     29  C   UNL     1      -4.043   6.965  -7.352  0.00  0.00    -0.003 C 
ENDBRANCH  27  29
ENDBRANCH  20  27
ENDBRANCH  16  22
ENDBRANCH   1  18
BRANCH   1  30
ATOM     30  C   UNL     1      -3.607   3.976   1.391  0.00  0.00    +0.134 C 
ATOM     31  C   UNL     1      -3.616   5.506   1.406  0.00  0.00    +0.039 C 
BRANCH  30  32
ATOM     32  O   UNL     1      -2.950   3.492   2.564  0.00  0.00    -0.390 OA
ATOM     33  H   UNL     1      -3.345   3.745   3.559  0.00  0.00    +0.210 HD
ENDBRANCH  30  32
ENDBRANCH   1  30
TORSDOF 11
