REMARK  Name = ZINC62595565
REMARK  7 active torsions:
REMARK  status: ('A' for Active; 'I' for Inactive)
REMARK    1  A    between atoms: C_2  and  N_18
REMARK    2  A    between atoms: C_5  and  O_8
REMARK    3  A    between atoms: O_8  and  C_9
REMARK    4  A    between atoms: C_9  and  C_10
REMARK    5  A    between atoms: C_10  and  C_11
REMARK    6  A    between atoms: C_11  and  C_13
REMARK    7  A    between atoms: C_11  and  N_16
REMARK                            x       y       z     vdW  Elec       q    Type
REMARK                         _______ _______ _______ _____ _____    ______ ____
ROOT
ATOM      1  O   UNL     1       1.235  -2.039  -0.022  0.00  0.00    -0.490 OA
ENDROOT
BRANCH   1   6
ATOM      2  C   UNL     1      -0.017   1.378   0.010  0.00  0.00    +0.051 A 
ATOM      3  C   UNL     1       1.170   2.087   0.002  0.00  0.00    +0.129 A 
ATOM      4  C   UNL     1       2.379   1.416  -0.013  0.00  0.00    +0.051 A 
ATOM      5  C   UNL     1       2.404   0.034  -0.021  0.00  0.00    +0.063 A 
ATOM      6  C   UNL     1       1.214  -0.680  -0.013  0.00  0.00    +0.148 A 
ATOM      7  C   UNL     1       0.002  -0.004   0.002  0.00  0.00    +0.063 A 
ATOM      8 BR   UNL     1      -1.622  -0.973   0.013  0.00  0.00    -0.046 Br
ATOM      9 BR   UNL     1       4.058  -0.883  -0.044  0.00  0.00    -0.046 Br
BRANCH   3  10
ATOM     10  N   UNL     1       1.147   3.567   0.010  0.00  0.00    +0.056 N 
ATOM     11  O   UNL     1       0.091   4.155   0.023  0.00  0.00    -0.126 OA
ATOM     12  O   UNL     1       2.184   4.188   0.004  0.00  0.00    -0.126 OA
ENDBRANCH   3  10
ENDBRANCH   1   6
BRANCH   1  13
ATOM     13  C   UNL     1       1.259  -2.696   1.247  0.00  0.00    +0.228 C 
BRANCH  13  14
ATOM     14  C   UNL     1       1.280  -4.211   1.038  0.00  0.00    +0.034 C 
BRANCH  14  15
ATOM     15  C   UNL     1       1.305  -4.914   2.396  0.00  0.00    +0.016 C 
BRANCH  15  16
ATOM     16  C   UNL     1       1.450  -6.400   2.191  0.00  0.00    +0.196 C 
ATOM     17  O   UNL     1       0.476  -7.119   2.258  0.00  0.00    -0.278 OA
ATOM     18  N   UNL     1       2.663  -6.929   1.933  0.00  0.00    -0.331 N 
ATOM     19  H   UNL     1       3.442  -6.353   1.879  0.00  0.00    +0.145 HD
ATOM     20  H   UNL     1       2.756  -7.885   1.800  0.00  0.00    +0.145 HD
ENDBRANCH  15  16
BRANCH  15  21
ATOM     21  N   UNL     1       0.053  -4.638   3.113  0.00  0.00    +0.386 N 
ATOM     22  H   UNL     1      -0.044  -3.644   3.251  0.00  0.00    -0.089 HD
ATOM     23  H   UNL     1      -0.727  -4.981   2.571  0.00  0.00    -0.089 HD
ATOM     24  H   UNL     1       0.069  -5.102   4.009  0.00  0.00    -0.089 HD
ENDBRANCH  15  21
ENDBRANCH  14  15
ENDBRANCH  13  14
ENDBRANCH   1  13
TORSDOF 7
