REMARK  Name = ZINC39700231
REMARK  14 active torsions:
REMARK  status: ('A' for Active; 'I' for Inactive)
REMARK    1  A    between atoms: C_1  and  C_2
REMARK    2  A    between atoms: C_2  and  C_3
REMARK    3  A    between atoms: C_7  and  C_31
REMARK    4  A    between atoms: C_8  and  N_9
REMARK    5  A    between atoms: N_9  and  C_10
REMARK    6  A    between atoms: C_10  and  N_12
REMARK    7  A    between atoms: N_12  and  C_13
REMARK    8  A    between atoms: C_13  and  C_15
REMARK    9  A    between atoms: C_13  and  C_16
REMARK   10  A    between atoms: C_16  and  C_18
REMARK   11  A    between atoms: C_16  and  N_23
REMARK   12  A    between atoms: N_26  and  C_29
REMARK   13  A    between atoms: C_29  and  C_30
REMARK   14  A    between atoms: C_31  and  C_32
REMARK                            x       y       z     vdW  Elec       q    Type
REMARK                         _______ _______ _______ _____ _____    ______ ____
ROOT
ATOM      1  C   UNL     1      -2.534   0.221  -4.652  0.00  0.00    +0.091 C 
ATOM      2  C   UNL     1      -3.562   1.332  -4.871  0.00  0.00    +0.030 C 
ENDROOT
BRANCH   1   3
ATOM      3  N   UNL     1      -1.895   0.397  -3.345  0.00  0.00    -0.322 N 
ATOM      4  H   UNL     1      -1.053   0.873  -3.277  0.00  0.00    +0.148 HD
BRANCH   3   5
ATOM      5  C   UNL     1      -2.479  -0.102  -2.237  0.00  0.00    +0.135 C 
ATOM      6  S   UNL     1      -3.966  -0.941  -2.357  0.00  0.00    -0.019 S 
BRANCH   5   7
ATOM      7  N   UNL     1      -1.892   0.060  -1.035  0.00  0.00    -0.296 N 
ATOM      8  H   UNL     1      -1.083   0.590  -0.958  0.00  0.00    +0.154 HD
BRANCH   7  14
ATOM      9  C   UNL     1      -3.484   0.092   0.780  0.00  0.00    -0.026 A 
ATOM     10  C   UNL     1      -4.036  -0.502   1.898  0.00  0.00    +0.005 A 
ATOM     11  C   UNL     1      -3.554  -1.718   2.345  0.00  0.00    +0.001 A 
ATOM     12  C   UNL     1      -2.518  -2.344   1.675  0.00  0.00    +0.005 A 
ATOM     13  C   UNL     1      -1.963  -1.755   0.556  0.00  0.00    -0.026 A 
ATOM     14  C   UNL     1      -2.448  -0.536   0.101  0.00  0.00    +0.039 A 
BRANCH   9  16
ATOM     15  C   UNL     1      -5.283   1.775   1.063  0.00  0.00    +0.009 C 
ATOM     16  C   UNL     1      -4.010   1.418   0.294  0.00  0.00    +0.033 C 
ENDBRANCH   9  16
BRANCH  13  17
ATOM     17  C   UNL     1      -0.835  -2.438  -0.174  0.00  0.00    +0.033 C 
ATOM     18  C   UNL     1       0.502  -1.873   0.311  0.00  0.00    +0.009 C 
ENDBRANCH  13  17
ENDBRANCH   7  14
ENDBRANCH   5   7
ENDBRANCH   3   5
ENDBRANCH   1   3
BRANCH   1  19
ATOM     19  C   UNL     1      -1.472   0.285  -5.751  0.00  0.00    +0.113 C 
BRANCH  19  20
ATOM     20  N   UNL     1      -2.119   0.166  -7.065  0.00  0.00    -0.297 NA
ATOM     21  C   UNL     1      -1.130   0.250  -8.149  0.00  0.00    +0.066 C 
ATOM     22  C   UNL     1      -1.849   0.182  -9.498  0.00  0.00    -0.063 C 
ATOM     23  N   UNL     1      -2.597  -1.078  -9.591  0.00  0.00    +0.381 N 
ATOM     24  C   UNL     1      -3.597  -1.136  -8.517  0.00  0.00    -0.063 C 
ATOM     25  C   UNL     1      -2.893  -1.079  -7.160  0.00  0.00    +0.066 C 
ATOM     26  H   UNL     1      -1.960  -1.855  -9.499  0.00  0.00    -0.082 HD
BRANCH  23  27
ATOM     27  C   UNL     1      -3.272  -1.151 -10.894  0.00  0.00    -0.082 C 
ATOM     28  C   UNL     1      -3.949  -2.515 -11.042  0.00  0.00    -0.017 C 
ENDBRANCH  23  27
ENDBRANCH  19  20
BRANCH  19  29
ATOM     29  C   UNL     1      -0.742   1.601  -5.668  0.00  0.00    +0.009 A 
ATOM     30  C   UNL     1       0.483   1.866  -5.153  0.00  0.00    +0.013 A 
ATOM     31  C   UNL     1       0.958   3.164  -5.185  0.00  0.00    +0.008 A 
ATOM     32  C   UNL     1       0.184   4.133  -5.732  0.00  0.00    +0.045 A 
ATOM     33  S   UNL     1      -1.263   3.213  -6.230  0.00  0.00    -0.100 S 
ENDBRANCH  19  29
ENDBRANCH   1  19
TORSDOF 10
