REMARK  Name = ZINC23456058
REMARK  12 active torsions:
REMARK  status: ('A' for Active; 'I' for Inactive)
REMARK    1  A    between atoms: C_1  and  C_2
REMARK    2  A    between atoms: C_4  and  C_38
REMARK    3  A    between atoms: C_5  and  C_37
REMARK    4  A    between atoms: C_6  and  S_9
REMARK    5  A    between atoms: C_7  and  C_8
REMARK    6  A    between atoms: S_9  and  N_12
REMARK    7  A    between atoms: N_15  and  C_18
REMARK    8  A    between atoms: C_18  and  C_19
REMARK    9  A    between atoms: C_19  and  O_20
REMARK   10  A    between atoms: O_20  and  C_21
REMARK   11  A    between atoms: C_21  and  C_23
REMARK   12  A    between atoms: C_21  and  C_29
REMARK                            x       y       z     vdW  Elec       q    Type
REMARK                         _______ _______ _______ _____ _____    ______ ____
ROOT
ATOM      1  N   UNL     1       2.808   4.303   1.099  0.00  0.00    -0.180 NA
ATOM      2  C   UNL     1       2.459   5.513   0.338  0.00  0.00    +0.091 C 
ATOM      3  C   UNL     1       0.932   5.607   0.247  0.00  0.00    -0.061 C 
ATOM      4  N   UNL     1       0.399   4.353  -0.301  0.00  0.00    +0.383 N 
ATOM      5  C   UNL     1       0.685   3.219   0.587  0.00  0.00    -0.061 C 
ATOM      6  C   UNL     1       2.202   3.026   0.692  0.00  0.00    +0.091 C 
ATOM      7  H   UNL     1       0.906   4.164  -1.259  0.00  0.00    -0.082 HD
ENDROOT
BRANCH   1   8
ATOM      8  S   UNL     1       3.855   4.377   2.380  0.00  0.00    +0.061 S 
ATOM      9  O   UNL     1       4.474   3.101   2.472  0.00  0.00    -0.153 OA
ATOM     10  O   UNL     1       4.601   5.576   2.225  0.00  0.00    -0.153 OA
BRANCH   8  16
ATOM     11  C   UNL     1       1.565   2.442   6.662  0.00  0.00    +0.044 C 
ATOM     12  C   UNL     1       1.855   3.633   5.784  0.00  0.00    -0.045 A 
ATOM     13  C   UNL     1       1.359   4.878   6.122  0.00  0.00    +0.007 A 
ATOM     14  C   UNL     1       1.625   5.970   5.318  0.00  0.00    -0.045 A 
ATOM     15  C   UNL     1       2.387   5.817   4.175  0.00  0.00    -0.021 A 
ATOM     16  C   UNL     1       2.884   4.572   3.837  0.00  0.00    +0.112 A 
ATOM     17  C   UNL     1       2.614   3.479   4.639  0.00  0.00    -0.021 A 
ATOM     18  C   UNL     1       3.150   2.121   4.267  0.00  0.00    +0.046 C 
ATOM     19  C   UNL     1       2.676   7.008   3.297  0.00  0.00    +0.046 C 
ATOM     20  C   UNL     1       1.084   7.327   5.686  0.00  0.00    +0.044 C 
ENDBRANCH   8  16
ENDBRANCH   1   8
BRANCH   4  21
ATOM     21  C   UNL     1      -1.042   4.465  -0.565  0.00  0.00    -0.050 C 
BRANCH  21  22
ATOM     22  C   UNL     1      -1.265   5.288  -1.835  0.00  0.00    +0.142 C 
BRANCH  22  23
ATOM     23  O   UNL     1      -0.749   4.577  -2.962  0.00  0.00    -0.369 OA
BRANCH  23  24
ATOM     24  C   UNL     1      -0.908   5.263  -4.205  0.00  0.00    +0.178 C 
BRANCH  24  25
ATOM     25  C   UNL     1      -1.047   4.258  -5.319  0.00  0.00    -0.012 A 
ATOM     26  C   UNL     1      -0.341   3.070  -5.270  0.00  0.00    +0.009 A 
ATOM     27  C   UNL     1      -0.471   2.145  -6.288  0.00  0.00    +0.041 A 
ATOM     28  C   UNL     1      -1.300   2.411  -7.364  0.00  0.00    +0.158 A 
ATOM     29  C   UNL     1      -2.004   3.605  -7.416  0.00  0.00    +0.159 A 
ATOM     30  C   UNL     1      -1.876   4.527  -6.392  0.00  0.00    +0.047 A 
ATOM     31  F   UNL     1      -2.814   3.867  -8.464  0.00  0.00    -0.202 F 
ATOM     32  F   UNL     1      -1.423   1.509  -8.362  0.00  0.00    -0.202 F 
ENDBRANCH  24  25
BRANCH  24  33
ATOM     33  C   UNL     1       0.299   6.130  -4.458  0.00  0.00    -0.015 A 
ATOM     34  C   UNL     1       1.562   5.665  -4.143  0.00  0.00    +0.006 A 
ATOM     35  C   UNL     1       2.669   6.459  -4.380  0.00  0.00    +0.000 A 
ATOM     36  C   UNL     1       2.512   7.721  -4.922  0.00  0.00    +0.000 A 
ATOM     37  C   UNL     1       1.248   8.187  -5.233  0.00  0.00    +0.000 A 
ATOM     38  C   UNL     1       0.142   7.392  -5.000  0.00  0.00    +0.006 A 
ENDBRANCH  24  33
ENDBRANCH  23  24
ENDBRANCH  22  23
ENDBRANCH  21  22
ENDBRANCH   4  21
TORSDOF 8
