REMARK  Name = ZINC61560365
REMARK  8 active torsions:
REMARK  status: ('A' for Active; 'I' for Inactive)
REMARK    1  A    between atoms: C_1  and  C_2
REMARK    2  A    between atoms: C_6  and  C_8
REMARK    3  A    between atoms: C_8  and  C_10
REMARK    4  A    between atoms: C_8  and  N_21
REMARK    5  A    between atoms: C_12  and  O_19
REMARK    6  A    between atoms: C_13  and  O_17
REMARK    7  A    between atoms: O_17  and  C_18
REMARK    8  A    between atoms: O_19  and  C_20
REMARK                            x       y       z     vdW  Elec       q    Type
REMARK                         _______ _______ _______ _____ _____    ______ ____
ROOT
ATOM      1  C   UNL     1       0.053  -2.843   2.491  0.00  0.00    -0.008 C 
ENDROOT
BRANCH   1   7
ATOM      2  C   UNL     1      -0.018   1.503   0.010  0.00  0.00    +0.044 C 
ATOM      3  C   UNL     1       0.002  -0.004   0.002  0.00  0.00    -0.050 A 
ATOM      4  C   UNL     1       0.006  -0.688  -1.200  0.00  0.00    +0.006 A 
ATOM      5  C   UNL     1       0.025  -2.070  -1.208  0.00  0.00    +0.039 A 
ATOM      6  C   UNL     1       0.041  -2.769  -0.013  0.00  0.00    +0.125 A 
ATOM      7  C   UNL     1       0.037  -2.083   1.189  0.00  0.00    -0.022 A 
ATOM      8  C   UNL     1       0.023  -0.701   1.196  0.00  0.00    +0.008 A 
ATOM      9  F   UNL     1       0.059  -4.120  -0.021  0.00  0.00    -0.205 F 
ENDBRANCH   1   7
BRANCH   1  10
ATOM     10  C   UNL     1       1.475  -3.184   2.855  0.00  0.00    -0.019 A 
ATOM     11  C   UNL     1       2.149  -2.421   3.792  0.00  0.00    +0.054 A 
ATOM     12  C   UNL     1       3.456  -2.733   4.128  0.00  0.00    +0.162 A 
ATOM     13  C   UNL     1       4.089  -3.814   3.523  0.00  0.00    +0.164 A 
ATOM     14  C   UNL     1       3.410  -4.575   2.586  0.00  0.00    +0.088 A 
ATOM     15  C   UNL     1       2.102  -4.263   2.257  0.00  0.00    +0.129 A 
ATOM     16  F   UNL     1       1.438  -5.009   1.347  0.00  0.00    -0.205 F 
BRANCH  13  17
ATOM     17  O   UNL     1       5.373  -4.123   3.850  0.00  0.00    -0.491 OA
ATOM     18  C   UNL     1       5.959  -5.246   3.189  0.00  0.00    +0.277 C 
ENDBRANCH  13  17
BRANCH  12  19
ATOM     19  O   UNL     1       4.120  -1.982   5.048  0.00  0.00    -0.491 OA
ATOM     20  C   UNL     1       3.408  -0.888   5.628  0.00  0.00    +0.277 C 
ENDBRANCH  12  19
ENDBRANCH   1  10
BRANCH   1  21
ATOM     21  N   UNL     1      -0.539  -2.014   3.549  0.00  0.00    +0.385 N 
ATOM     22  H   UNL     1      -0.004  -1.164   3.649  0.00  0.00    -0.089 HD
ATOM     23  H   UNL     1      -1.491  -1.785   3.305  0.00  0.00    -0.089 HD
ATOM     24  H   UNL     1      -0.528  -2.522   4.420  0.00  0.00    -0.089 HD
ENDBRANCH   1  21
TORSDOF 5
