REMARK  Name = ZINC28214194
REMARK  10 active torsions:
REMARK  status: ('A' for Active; 'I' for Inactive)
REMARK    1  A    between atoms: C_1  and  C_2
REMARK    2  A    between atoms: C_2  and  C_4
REMARK    3  A    between atoms: C_2  and  S_27
REMARK    4  A    between atoms: N_6  and  N_7
REMARK    5  A    between atoms: C_8  and  C_9
REMARK    6  A    between atoms: C_12  and  O_15
REMARK    7  A    between atoms: O_15  and  C_16
REMARK    8  A    between atoms: C_16  and  C_17
REMARK    9  A    between atoms: N_19  and  C_20
REMARK   10  A    between atoms: S_27  and  C_28
REMARK                            x       y       z     vdW  Elec       q    Type
REMARK                         _______ _______ _______ _____ _____    ______ ____
ROOT
ATOM      1  C   UNL     1      -4.897  -2.003   1.547  0.00  0.00    -0.005 A 
ATOM      2  C   UNL     1      -5.310  -2.483   0.301  0.00  0.00    +0.013 A 
ATOM      3  C   UNL     1      -6.584  -2.984   0.146  0.00  0.00    +0.046 A 
ATOM      4  C   UNL     1      -7.458  -3.013   1.226  0.00  0.00    +0.121 A 
ATOM      5  C   UNL     1      -7.051  -2.537   2.466  0.00  0.00    +0.046 A 
ATOM      6  C   UNL     1      -5.777  -2.039   2.632  0.00  0.00    +0.013 A 
ENDROOT
BRANCH   1   8
ATOM      7  N   UNL     1      -2.718  -1.435   0.709  0.00  0.00    -0.188 NA
ATOM      8  C   UNL     1      -3.534  -1.467   1.718  0.00  0.00    +0.138 C 
BRANCH   7  11
ATOM      9  C   UNL     1      -0.576  -0.891  -0.176  0.00  0.00    +0.245 C 
ATOM     10  O   UNL     1      -0.935  -1.303  -1.259  0.00  0.00    -0.273 OA
ATOM     11  N   UNL     1      -1.424  -0.925   0.872  0.00  0.00    -0.206 N 
ATOM     12  H   UNL     1      -1.137  -0.596   1.738  0.00  0.00    +0.177 HD
BRANCH   9  14
ATOM     13  C   UNL     1       0.771   1.186  -0.038  0.00  0.00    +0.029 C 
ATOM     14  C   UNL     1       0.816  -0.343  -0.001  0.00  0.00    +0.136 C 
BRANCH  14  15
ATOM     15  S   UNL     1       1.877  -0.949  -1.342  0.00  0.00    -0.113 S 
BRANCH  15  16
ATOM     16  C   UNL     1       1.999  -2.680  -1.040  0.00  0.00    +0.009 A 
ATOM     17  C   UNL     1       1.433  -3.229   0.104  0.00  0.00    +0.016 A 
ATOM     18  C   UNL     1       1.530  -4.586   0.338  0.00  0.00    +0.021 A 
ATOM     19  C   UNL     1       2.189  -5.400  -0.566  0.00  0.00    +0.041 A 
ATOM     20  C   UNL     1       2.753  -4.857  -1.707  0.00  0.00    +0.021 A 
ATOM     21  C   UNL     1       2.655  -3.501  -1.949  0.00  0.00    +0.016 A 
ATOM     22 CL   UNL     1       2.309  -7.106  -0.268  0.00  0.00    -0.084 Cl
ENDBRANCH  15  16
ENDBRANCH  14  15
ENDBRANCH   9  14
ENDBRANCH   7  11
ENDBRANCH   1   8
BRANCH   4  23
ATOM     23  O   UNL     1      -8.713  -3.508   1.069  0.00  0.00    -0.483 OA
BRANCH  23  24
ATOM     24  C   UNL     1      -9.559  -3.508   2.220  0.00  0.00    +0.324 C 
BRANCH  24  25
ATOM     25  C   UNL     1     -10.902  -4.089   1.857  0.00  0.00    +0.255 C 
ATOM     26  O   UNL     1     -11.113  -4.466   0.724  0.00  0.00    -0.272 OA
ATOM     27  N   UNL     1     -11.867  -4.189   2.792  0.00  0.00    -0.281 N 
ATOM     28  H   UNL     1     -11.728  -3.816   3.676  0.00  0.00    +0.155 HD
BRANCH  27  29
ATOM     29  C   UNL     1     -13.072  -4.833   2.486  0.00  0.00    +0.052 A 
ATOM     30  C   UNL     1     -13.136  -5.723   1.423  0.00  0.00    +0.025 A 
ATOM     31  C   UNL     1     -14.326  -6.357   1.124  0.00  0.00    +0.002 A 
ATOM     32  C   UNL     1     -15.455  -6.106   1.882  0.00  0.00    +0.002 A 
ATOM     33  C   UNL     1     -15.396  -5.219   2.942  0.00  0.00    +0.022 A 
ATOM     34  C   UNL     1     -14.207  -4.586   3.250  0.00  0.00    +0.062 A 
ATOM     35 CL   UNL     1     -14.132  -3.478   4.585  0.00  0.00    -0.082 Cl
ENDBRANCH  27  29
ENDBRANCH  24  25
ENDBRANCH  23  24
ENDBRANCH   4  23
TORSDOF 9
