REMARK  Name = ZINC40546190
REMARK  11 active torsions:
REMARK  status: ('A' for Active; 'I' for Inactive)
REMARK    1  A    between atoms: C_1  and  C_2
REMARK    2  A    between atoms: C_4  and  O_16
REMARK    3  A    between atoms: C_5  and  C_15
REMARK    4  A    between atoms: C_6  and  C_14
REMARK    5  A    between atoms: C_7  and  O_8
REMARK    6  A    between atoms: O_8  and  C_9
REMARK    7  A    between atoms: C_9  and  C_10
REMARK    8  A    between atoms: N_12  and  N_13
REMARK    9  A    between atoms: O_16  and  C_17
REMARK   10  A    between atoms: C_17  and  C_18
REMARK   11  A    between atoms: N_20  and  N_21
REMARK                            x       y       z     vdW  Elec       q    Type
REMARK                         _______ _______ _______ _____ _____    ______ ____
ROOT
ATOM      1  C   UNL     1      -0.018   1.503   0.010  0.00  0.00    +0.047 C 
ATOM      2  C   UNL     1       0.002  -0.004   0.002  0.00  0.00    -0.005 A 
ATOM      3  C   UNL     1       0.006  -0.688  -1.198  0.00  0.00    +0.053 A 
ATOM      4  C   UNL     1       0.025  -2.075  -1.206  0.00  0.00    +0.125 A 
ATOM      5  C   UNL     1       0.041  -2.775  -0.008  0.00  0.00    -0.002 A 
ATOM      6  C   UNL     1       0.037  -2.091   1.192  0.00  0.00    -0.002 A 
ATOM      7  C   UNL     1       0.023  -0.704   1.199  0.00  0.00    +0.127 A 
ATOM      8  C   UNL     1       0.053  -2.852   2.492  0.00  0.00    +0.048 C 
ATOM      9  C   UNL     1       0.061  -4.282  -0.017  0.00  0.00    +0.048 C 
ENDROOT
BRANCH   7  10
ATOM     10  O   UNL     1       0.025  -0.030   2.380  0.00  0.00    -0.482 OA
BRANCH  10  11
ATOM     11  C   UNL     1      -1.247   0.274   2.956  0.00  0.00    +0.325 C 
BRANCH  11  12
ATOM     12  C   UNL     1      -1.048   1.016   4.252  0.00  0.00    +0.264 C 
ATOM     13  O   UNL     1       0.074   1.261   4.644  0.00  0.00    -0.271 OA
ATOM     14  N   UNL     1      -2.115   1.408   4.975  0.00  0.00    -0.251 N 
ATOM     15  H   UNL     1      -3.012   1.213   4.662  0.00  0.00    +0.169 HD
BRANCH  14  16
ATOM     16  N   UNL     1      -1.934   2.082   6.150  0.00  0.00    -0.254 NA
ATOM     17  H   UNL     1      -1.378   2.912   6.009  0.00  0.00    +0.140 HD
ATOM     18  H   UNL     1      -2.820   2.308   6.577  0.00  0.00    +0.140 HD
ENDBRANCH  14  16
ENDBRANCH  11  12
ENDBRANCH  10  11
ENDBRANCH   7  10
BRANCH   4  19
ATOM     19  O   UNL     1       0.028  -2.748  -2.387  0.00  0.00    -0.482 OA
BRANCH  19  20
ATOM     20  C   UNL     1       0.011  -1.964  -3.581  0.00  0.00    +0.325 C 
BRANCH  20  21
ATOM     21  C   UNL     1       0.018  -2.875  -4.782  0.00  0.00    +0.264 C 
ATOM     22  O   UNL     1       0.035  -4.078  -4.629  0.00  0.00    -0.271 OA
ATOM     23  N   UNL     1       0.004  -2.353  -6.024  0.00  0.00    -0.251 N 
ATOM     24  H   UNL     1      -0.010  -1.391  -6.146  0.00  0.00    +0.169 HD
BRANCH  23  25
ATOM     25  N   UNL     1       0.010  -3.179  -7.112  0.00  0.00    -0.254 NA
ATOM     26  H   UNL     1      -0.763  -3.828  -7.078  0.00  0.00    +0.140 HD
ATOM     27  H   UNL     1      -0.002  -2.648  -7.970  0.00  0.00    +0.140 HD
ENDBRANCH  23  25
ENDBRANCH  20  21
ENDBRANCH  19  20
ENDBRANCH   4  19
TORSDOF 8
