REMARK  Name = ZINC02413475
REMARK  6 active torsions:
REMARK  status: ('A' for Active; 'I' for Inactive)
REMARK    1  A    between atoms: C_1  and  C_2
REMARK    2  A    between atoms: C_7  and  N_8
REMARK    3  A    between atoms: C_11  and  N_16
REMARK    4  A    between atoms: N_16  and  C_17
REMARK    5  A    between atoms: C_20  and  S_23
REMARK    6  A    between atoms: S_23  and  N_26
REMARK                            x       y       z     vdW  Elec       q    Type
REMARK                         _______ _______ _______ _____ _____    ______ ____
ROOT
ATOM      1  N   UNL     1       0.597   2.173   0.470  0.00  0.00    -0.199 N 
ATOM      2  C   UNL     1      -0.426   1.340   0.381  0.00  0.00    +0.258 C 
ATOM      3  O   UNL     1      -1.573   1.704   0.528  0.00  0.00    -0.272 OA
ATOM      4  C   UNL     1      -0.064  -0.106   0.074  0.00  0.00    +0.226 C 
ATOM      5  S   UNL     1       1.764   0.041  -0.028  0.00  0.00    -0.035 S 
ATOM      6  C   UNL     1       1.878   1.793   0.305  0.00  0.00    +0.287 C 
ATOM      7  O   UNL     1       2.878   2.481   0.367  0.00  0.00    -0.262 OA
ENDROOT
BRANCH   1  14
ATOM      8  C   UNL     1       0.183   3.947  -1.717  0.00  0.00    +0.045 C 
ATOM      9  C   UNL     1       0.126   4.420  -0.287  0.00  0.00    -0.029 A 
ATOM     10  C   UNL     1      -0.139   5.747  -0.008  0.00  0.00    +0.005 A 
ATOM     11  C   UNL     1      -0.185   6.183   1.303  0.00  0.00    +0.000 A 
ATOM     12  C   UNL     1       0.028   5.291   2.339  0.00  0.00    +0.002 A 
ATOM     13  C   UNL     1       0.287   3.962   2.066  0.00  0.00    +0.024 A 
ATOM     14  C   UNL     1       0.334   3.522   0.750  0.00  0.00    +0.048 A 
ENDBRANCH   1  14
BRANCH   4  15
ATOM     15  N   UNL     1      -0.636  -0.539  -1.204  0.00  0.00    -0.325 N 
ATOM     16  H   UNL     1      -1.470  -0.155  -1.517  0.00  0.00    +0.148 HD
BRANCH  15  17
ATOM     17  C   UNL     1       0.020  -1.504  -1.971  0.00  0.00    +0.028 A 
ATOM     18  C   UNL     1      -0.126  -1.513  -3.352  0.00  0.00    +0.025 A 
ATOM     19  C   UNL     1       0.528  -2.466  -4.108  0.00  0.00    +0.030 A 
ATOM     20  C   UNL     1       1.319  -3.417  -3.491  0.00  0.00    +0.105 A 
ATOM     21  C   UNL     1       1.463  -3.414  -2.116  0.00  0.00    +0.030 A 
ATOM     22  C   UNL     1       0.816  -2.461  -1.354  0.00  0.00    +0.025 A 
BRANCH  20  23
ATOM     23  S   UNL     1       2.146  -4.636  -4.459  0.00  0.00    +0.056 S 
ATOM     24  O   UNL     1       2.287  -4.090  -5.764  0.00  0.00    -0.153 OA
ATOM     25  O   UNL     1       3.259  -5.076  -3.693  0.00  0.00    -0.153 OA
BRANCH  23  26
ATOM     26  N   UNL     1       1.122  -5.930  -4.595  0.00  0.00    -0.204 NA
ATOM     27  H   UNL     1       0.249  -5.904  -4.173  0.00  0.00    +0.144 HD
ATOM     28  H   UNL     1       1.395  -6.714  -5.096  0.00  0.00    +0.144 HD
ENDBRANCH  23  26
ENDBRANCH  20  23
ENDBRANCH  15  17
ENDBRANCH   4  15
TORSDOF 5
