REMARK  Name = ZINC47966259
REMARK  8 active torsions:
REMARK  status: ('A' for Active; 'I' for Inactive)
REMARK    1  A    between atoms: C_1  and  C_2
REMARK    2  A    between atoms: C_2  and  C_4
REMARK    3  A    between atoms: C_2  and  N_13
REMARK    4  A    between atoms: C_7  and  O_11
REMARK    5  A    between atoms: O_11  and  C_12
REMARK    6  A    between atoms: C_14  and  C_16
REMARK    7  A    between atoms: N_18  and  C_19
REMARK    8  A    between atoms: C_20  and  C_24
REMARK                            x       y       z     vdW  Elec       q    Type
REMARK                         _______ _______ _______ _____ _____    ______ ____
ROOT
ATOM      1  N   UNL     1       0.711  -0.489   1.189  0.00  0.00    -0.301 N 
ATOM      2  C   UNL     1       0.051  -0.633   2.355  0.00  0.00    +0.300 C 
ATOM      3  O   UNL     1      -1.130  -0.361   2.423  0.00  0.00    -0.265 OA
ATOM      4  H   UNL     1       1.654  -0.707   1.135  0.00  0.00    +0.150 HD
ENDROOT
BRANCH   2   5
ATOM      5  C   UNL     1       0.773  -1.128   3.565  0.00  0.00    +0.304 C 
ATOM      6  O   UNL     1       1.954  -1.400   3.498  0.00  0.00    -0.265 OA
ATOM      7  N   UNL     1       0.114  -1.272   4.731  0.00  0.00    -0.272 N 
ATOM      8  H   UNL     1      -0.830  -1.054   4.785  0.00  0.00    +0.156 HD
BRANCH   7   9
ATOM      9  C   UNL     1       0.783  -1.731   5.853  0.00  0.00    +0.084 A 
ATOM     10  C   UNL     1       0.271  -1.944   7.125  0.00  0.00    +0.065 A 
ATOM     11  C   UNL     1       1.196  -2.431   8.121  0.00  0.00    +0.022 A 
ATOM     12  C   UNL     1       2.461  -2.625   7.702  0.00  0.00    +0.048 A 
ATOM     13  S   UNL     1       2.399  -2.163   5.985  0.00  0.00    -0.081 S 
BRANCH  10  14
ATOM     14  C   UNL     1      -1.139  -1.688   7.441  0.00  0.00    +0.244 C 
ATOM     15  O   UNL     1      -1.891  -1.278   6.577  0.00  0.00    -0.270 OA
ATOM     16  N   UNL     1      -1.600  -1.908   8.688  0.00  0.00    -0.325 N 
ATOM     17  H   UNL     1      -1.000  -2.235   9.377  0.00  0.00    +0.145 HD
ATOM     18  H   UNL     1      -2.532  -1.739   8.898  0.00  0.00    +0.145 HD
ENDBRANCH  10  14
ENDBRANCH   7   9
ENDBRANCH   2   5
BRANCH   1  20
ATOM     19  C   UNL     1      -0.019   1.526   0.010  0.00  0.00    +0.033 C 
ATOM     20  C   UNL     1       0.002  -0.004   0.002  0.00  0.00    +0.101 C 
BRANCH  20  21
ATOM     21  C   UNL     1       0.707  -0.490  -1.238  0.00  0.00    -0.025 A 
ATOM     22  C   UNL     1       2.089  -0.510  -1.282  0.00  0.00    +0.009 A 
ATOM     23  C   UNL     1       2.739  -0.955  -2.418  0.00  0.00    +0.049 A 
ATOM     24  C   UNL     1       2.005  -1.382  -3.514  0.00  0.00    +0.155 A 
ATOM     25  C   UNL     1       0.617  -1.361  -3.468  0.00  0.00    +0.165 A 
ATOM     26  C   UNL     1      -0.028  -0.920  -2.326  0.00  0.00    +0.047 A 
ATOM     27  F   UNL     1      -0.102  -1.777  -4.534  0.00  0.00    -0.202 F 
BRANCH  24  28
ATOM     28  O   UNL     1       2.643  -1.819  -4.632  0.00  0.00    -0.492 OA
ATOM     29  C   UNL     1       4.072  -1.812  -4.609  0.00  0.00    +0.277 C 
ENDBRANCH  24  28
ENDBRANCH  20  21
ENDBRANCH   1  20
TORSDOF 6
