REMARK  Name = ZINC00805813
REMARK  7 active torsions:
REMARK  status: ('A' for Active; 'I' for Inactive)
REMARK    1  A    between atoms: C_1  and  O_2
REMARK    2  A    between atoms: O_2  and  C_3
REMARK    3  A    between atoms: C_5  and  C_10
REMARK    4  A    between atoms: C_8  and  O_9
REMARK    5  A    between atoms: C_11  and  N_19
REMARK    6  A    between atoms: C_20  and  C_21
REMARK    7  A    between atoms: C_26  and  O_27
REMARK                            x       y       z     vdW  Elec       q    Type
REMARK                         _______ _______ _______ _____ _____    ______ ____
ROOT
ATOM      1  C   UNL     1      -4.859   0.231   0.038  0.00  0.00    +0.091 A 
ATOM      2  C   UNL     1      -5.969  -0.008   0.847  0.00  0.00    +0.163 A 
ATOM      3  N   UNL     1      -6.899   0.957   0.527  0.00  0.00    -0.286 N 
ATOM      4  C   UNL     1      -8.156   1.210   0.994  0.00  0.00    +0.094 A 
ATOM      5  C   UNL     1      -8.877   2.241   0.503  0.00  0.00    +0.018 A 
ATOM      6  C   UNL     1      -8.340   3.067  -0.497  0.00  0.00    +0.005 A 
ATOM      7  C   UNL     1      -7.087   2.825  -0.972  0.00  0.00    +0.045 A 
ATOM      8  C   UNL     1      -6.346   1.745  -0.450  0.00  0.00    +0.117 A 
ATOM      9  N   UNL     1      -5.127   1.298  -0.723  0.00  0.00    -0.338 N 
ATOM     10  H   UNL     1      -4.523   1.685  -1.375  0.00  0.00    +0.167 HD
ENDROOT
BRANCH   1  13
ATOM     11  C   UNL     1      -1.201  -0.638   0.010  0.00  0.00    +0.162 A 
ATOM     12  C   UNL     1      -2.371   0.099   0.019  0.00  0.00    +0.059 A 
ATOM     13  C   UNL     1      -3.604  -0.554   0.028  0.00  0.00    +0.006 A 
ATOM     14  C   UNL     1      -3.651  -1.948   0.027  0.00  0.00    +0.014 A 
ATOM     15  C   UNL     1      -2.481  -2.679   0.017  0.00  0.00    +0.050 A 
ATOM     16  C   UNL     1      -1.255  -2.030   0.003  0.00  0.00    +0.158 A 
BRANCH  11  18
ATOM     17  C   UNL     1      -0.017   1.425   0.010  0.00  0.00    +0.277 C 
ATOM     18  O   UNL     1       0.002  -0.004   0.002  0.00  0.00    -0.491 OA
ENDBRANCH  11  18
BRANCH  16  19
ATOM     19  O   UNL     1      -0.104  -2.753  -0.012  0.00  0.00    -0.503 OA
ATOM     20  H   UNL     1       0.237  -2.967   0.867  0.00  0.00    +0.292 HD
ENDBRANCH  16  19
ENDBRANCH   1  13
BRANCH   2  21
ATOM     21  N   UNL     1      -6.105  -0.990   1.763  0.00  0.00    -0.235 NA
ATOM     22  C   UNL     1      -6.604  -2.146   1.413  0.00  0.00    +0.124 C 
BRANCH  22  23
ATOM     23  C   UNL     1      -6.752  -3.215   2.410  0.00  0.00    +0.037 A 
ATOM     24  C   UNL     1      -7.280  -4.457   2.038  0.00  0.00    +0.028 A 
ATOM     25  C   UNL     1      -7.417  -5.455   2.979  0.00  0.00    +0.020 A 
ATOM     26  C   UNL     1      -7.033  -5.235   4.292  0.00  0.00    +0.034 A 
ATOM     27  C   UNL     1      -6.511  -4.012   4.673  0.00  0.00    +0.061 A 
ATOM     28  C   UNL     1      -6.360  -2.999   3.740  0.00  0.00    +0.139 A 
ATOM     29 BR   UNL     1      -5.993  -3.725   6.469  0.00  0.00    -0.046 Br
ATOM     30 BR   UNL     1      -8.130  -7.132   2.475  0.00  0.00    -0.050 Br
BRANCH  28  31
ATOM     31  O   UNL     1      -5.842  -1.800   4.112  0.00  0.00    -0.505 OA
ATOM     32  H   UNL     1      -6.503  -1.162   4.411  0.00  0.00    +0.292 HD
ENDBRANCH  28  31
ENDBRANCH  22  23
ENDBRANCH   2  21
TORSDOF 6
