REMARK  Name = ZINC36158968
REMARK  14 active torsions:
REMARK  status: ('A' for Active; 'I' for Inactive)
REMARK    1  A    between atoms: C_1  and  C_2
REMARK    2  A    between atoms: C_2  and  C_3
REMARK    3  A    between atoms: C_2  and  N_4
REMARK    4  A    between atoms: N_4  and  C_5
REMARK    5  A    between atoms: N_4  and  C_20
REMARK    6  A    between atoms: C_5  and  C_6
REMARK    7  A    between atoms: C_20  and  C_21
REMARK    8  A    between atoms: C_21  and  C_23
REMARK    9  A    between atoms: C_21  and  O_29
REMARK   10  A    between atoms: C_23  and  O_24
REMARK   11  A    between atoms: O_24  and  C_25
REMARK   12  A    between atoms: C_25  and  C_26
REMARK   13  A    between atoms: C_25  and  C_27
REMARK   14  A    between atoms: C_25  and  C_28
REMARK                            x       y       z     vdW  Elec       q    Type
REMARK                         _______ _______ _______ _____ _____    ______ ____
ROOT
ATOM      1  N   UNL     1      -1.246  -0.480   0.180  0.00  0.00    +0.388 N 
ATOM      2  H   UNL     1      -1.494  -0.066   1.066  0.00  0.00    -0.081 HD
ENDROOT
BRANCH   1   4
ATOM      3  C   UNL     1       0.493  -0.703  -1.530  0.00  0.00    -0.014 C 
ATOM      4  C   UNL     1       0.111  -0.061  -0.194  0.00  0.00    -0.074 C 
ATOM      5  C   UNL     1       0.157   1.462  -0.329  0.00  0.00    -0.014 C 
ENDBRANCH   1   4
BRANCH   1   6
ATOM      6  C   UNL     1      -2.196  -0.037  -0.850  0.00  0.00    -0.003 C 
BRANCH   6   7
ATOM      7  C   UNL     1      -2.561   1.405  -0.610  0.00  0.00    +0.094 A 
ATOM      8  N   UNL     1      -3.321   2.061  -1.524  0.00  0.00    -0.312 N 
ATOM      9  H   UNL     1      -3.619   1.592  -2.319  0.00  0.00    +0.170 HD
ATOM     10  C   UNL     1      -3.669   3.350  -1.349  0.00  0.00    +0.260 A 
ATOM     11  O   UNL     1      -4.352   3.927  -2.178  0.00  0.00    -0.267 OA
ATOM     12  C   UNL     1      -3.222   4.032  -0.171  0.00  0.00    +0.075 A 
ATOM     13  C   UNL     1      -3.479   5.425   0.224  0.00  0.00    -0.023 A 
ATOM     14  C   UNL     1      -2.945   5.835   1.387  0.00  0.00    -0.004 A 
ATOM     15  S   UNL     1      -2.082   4.415   2.022  0.00  0.00    -0.073 S 
ATOM     16  C   UNL     1      -2.443   3.274   0.714  0.00  0.00    +0.116 A 
ATOM     17  N   UNL     1      -2.143   2.000   0.476  0.00  0.00    -0.229 NA
ATOM     18  C   UNL     1      -3.268   7.274   1.685  0.00  0.00    +0.043 C 
ATOM     19  C   UNL     1      -3.731   7.856   0.330  0.00  0.00    +0.010 C 
ATOM     20  C   UNL     1      -4.251   6.596  -0.390  0.00  0.00    +0.037 C 
ENDBRANCH   6   7
ENDBRANCH   1   6
BRANCH   1  21
ATOM     21  C   UNL     1      -1.294  -1.944   0.292  0.00  0.00    -0.044 C 
BRANCH  21  22
ATOM     22  C   UNL     1      -0.399  -2.396   1.448  0.00  0.00    +0.124 C 
BRANCH  22  23
ATOM     23  O   UNL     1      -0.862  -1.810   2.667  0.00  0.00    -0.391 OA
ATOM     24  H   UNL     1      -1.770  -2.050   2.898  0.00  0.00    +0.210 HD
ENDBRANCH  22  23
BRANCH  22  25
ATOM     25  C   UNL     1      -0.447  -3.920   1.564  0.00  0.00    +0.189 C 
BRANCH  25  26
ATOM     26  O   UNL     1       0.477  -4.351   2.566  0.00  0.00    -0.372 OA
BRANCH  26  27
ATOM     27  C   UNL     1       0.511  -5.767   2.755  0.00  0.00    +0.061 C 
ATOM     28  C   UNL     1       0.916  -6.447   1.446  0.00  0.00    +0.041 C 
ATOM     29  C   UNL     1       1.529  -6.112   3.844  0.00  0.00    +0.041 C 
ATOM     30  C   UNL     1      -0.875  -6.259   3.178  0.00  0.00    +0.041 C 
ENDBRANCH  26  27
ENDBRANCH  25  26
ENDBRANCH  22  25
ENDBRANCH  21  22
ENDBRANCH   1  21
TORSDOF 9
