REMARK  Name = ZINC03999067
REMARK  13 active torsions:
REMARK  status: ('A' for Active; 'I' for Inactive)
REMARK    1  A    between atoms: C_1  and  C_2
REMARK    2  A    between atoms: C_5  and  N_24
REMARK    3  A    between atoms: C_7  and  N_8
REMARK    4  A    between atoms: N_8  and  C_9
REMARK    5  A    between atoms: C_11  and  O_23
REMARK    6  A    between atoms: C_13  and  O_22
REMARK    7  A    between atoms: C_15  and  O_21
REMARK    8  A    between atoms: C_17  and  C_20
REMARK    9  A    between atoms: N_24  and  C_25
REMARK   10  A    between atoms: C_27  and  O_39
REMARK   11  A    between atoms: C_29  and  O_38
REMARK   12  A    between atoms: C_31  and  O_37
REMARK   13  A    between atoms: C_33  and  C_36
REMARK                            x       y       z     vdW  Elec       q    Type
REMARK                         _______ _______ _______ _____ _____    ______ ____
ROOT
ATOM      1  C   UNL     1      -3.920  -1.641  -0.539  0.00  0.00    +0.045 C 
ATOM      2  C   UNL     1      -2.921  -2.299   0.377  0.00  0.00    -0.029 A 
ATOM      3  C   UNL     1      -3.160  -3.572   0.859  0.00  0.00    +0.007 A 
ATOM      4  C   UNL     1      -2.247  -4.179   1.699  0.00  0.00    +0.023 A 
ATOM      5  C   UNL     1      -1.083  -3.511   2.061  0.00  0.00    +0.031 A 
ATOM      6  C   UNL     1      -0.836  -2.236   1.573  0.00  0.00    +0.046 A 
ATOM      7  C   UNL     1      -1.759  -1.626   0.735  0.00  0.00    +0.034 A 
ENDROOT
BRANCH   7   8
ATOM      8  N   UNL     1      -1.517  -0.340   0.246  0.00  0.00    -0.317 N 
ATOM      9  H   UNL     1      -2.114   0.048  -0.413  0.00  0.00    +0.149 HD
BRANCH   8  10
ATOM     10  C   UNL     1      -0.364   0.422   0.730  0.00  0.00    +0.235 C 
ATOM     11  C   UNL     1      -0.708   1.914   0.747  0.00  0.00    +0.192 C 
ATOM     12  C   UNL     1       0.522   2.709   1.196  0.00  0.00    +0.178 C 
ATOM     13  C   UNL     1       1.691   2.393   0.258  0.00  0.00    +0.174 C 
ATOM     14  C   UNL     1       1.943   0.883   0.260  0.00  0.00    +0.149 C 
ATOM     15  O   UNL     1       0.751   0.202  -0.137  0.00  0.00    -0.351 OA
ATOM     16  C   UNL     1       3.070   0.552  -0.720  0.00  0.00    +0.041 C 
BRANCH  13  17
ATOM     17  O   UNL     1       1.371   2.822  -1.067  0.00  0.00    -0.387 OA
ATOM     18  H   UNL     1       2.068   2.648  -1.715  0.00  0.00    +0.210 HD
ENDBRANCH  13  17
BRANCH  12  19
ATOM     19  O   UNL     1       0.232   4.107   1.145  0.00  0.00    -0.386 OA
ATOM     20  H   UNL     1      -0.504   4.378   1.710  0.00  0.00    +0.210 HD
ENDBRANCH  12  19
BRANCH  11  21
ATOM     21  O   UNL     1      -1.785   2.145   1.657  0.00  0.00    -0.385 OA
ATOM     22  H   UNL     1      -2.596   1.668   1.436  0.00  0.00    +0.210 HD
ENDBRANCH  11  21
ENDBRANCH   8  10
ENDBRANCH   7   8
BRANCH   5  23
ATOM     23  N   UNL     1      -0.160  -4.125   2.910  0.00  0.00    -0.317 N 
ATOM     24  H   UNL     1       0.693  -3.699   3.090  0.00  0.00    +0.149 HD
BRANCH  23  25
ATOM     25  C   UNL     1      -0.479  -5.414   3.530  0.00  0.00    +0.235 C 
ATOM     26  C   UNL     1       0.180  -5.495   4.909  0.00  0.00    +0.192 C 
ATOM     27  C   UNL     1      -0.108  -6.868   5.524  0.00  0.00    +0.178 C 
ATOM     28  C   UNL     1       0.398  -7.957   4.574  0.00  0.00    +0.174 C 
ATOM     29  C   UNL     1      -0.270  -7.781   3.207  0.00  0.00    +0.149 C 
ATOM     30  O   UNL     1       0.012  -6.473   2.706  0.00  0.00    -0.351 OA
ATOM     31  C   UNL     1       0.275  -8.829   2.235  0.00  0.00    +0.041 C 
BRANCH  28  32
ATOM     32  O   UNL     1       1.815  -7.846   4.431  0.00  0.00    -0.387 OA
ATOM     33  H   UNL     1       2.203  -8.504   3.837  0.00  0.00    +0.210 HD
ENDBRANCH  28  32
BRANCH  27  34
ATOM     34  O   UNL     1       0.563  -6.981   6.781  0.00  0.00    -0.386 OA
ATOM     35  H   UNL     1       0.291  -6.320   7.433  0.00  0.00    +0.210 HD
ENDBRANCH  27  34
BRANCH  26  36
ATOM     36  O   UNL     1       1.592  -5.318   4.775  0.00  0.00    -0.385 OA
ATOM     37  H   UNL     1       1.847  -4.470   4.386  0.00  0.00    +0.210 HD
ENDBRANCH  26  36
ENDBRANCH  23  25
ENDBRANCH   5  23
TORSDOF 10
