REMARK  Name = ZINC65622648
REMARK  12 active torsions:
REMARK  status: ('A' for Active; 'I' for Inactive)
REMARK    1  A    between atoms: C_1  and  C_2
REMARK    2  A    between atoms: C_2  and  C_3
REMARK    3  A    between atoms: C_3  and  C_4
REMARK    4  A    between atoms: C_3  and  C_5
REMARK    5  A    between atoms: C_5  and  C_6
REMARK    6  A    between atoms: C_5  and  N_18
REMARK    7  A    between atoms: N_8  and  N_9
REMARK    8  A    between atoms: N_12  and  C_13
REMARK    9  A    between atoms: C_13  and  C_14
REMARK   10  A    between atoms: C_14  and  C_15
REMARK   11  A    between atoms: C_15  and  C_16
REMARK   12  A    between atoms: C_15  and  C_17
REMARK                            x       y       z     vdW  Elec       q    Type
REMARK                         _______ _______ _______ _____ _____    ______ ____
ROOT
ATOM      1  C   UNL     1       1.645  -2.416   0.013  0.00  0.00    +0.250 C 
ATOM      2  O   UNL     1       1.147  -3.130   0.857  0.00  0.00    -0.272 OA
ATOM      3  N   UNL     1       2.909  -1.975   0.164  0.00  0.00    -0.232 N 
ATOM      4  H   UNL     1       3.308  -1.403  -0.511  0.00  0.00    +0.173 HD
ENDROOT
BRANCH   3   5
ATOM      5  N   UNL     1       3.649  -2.342   1.296  0.00  0.00    -0.218 N 
ATOM      6  C   UNL     1       4.913  -1.901   1.447  0.00  0.00    +0.316 C 
ATOM      7  O   UNL     1       5.555  -2.219   2.429  0.00  0.00    -0.251 OA
ATOM      8  N   UNL     1       5.467  -1.107   0.508  0.00  0.00    -0.298 N 
ATOM      9  H   UNL     1       3.250  -2.913   1.971  0.00  0.00    +0.174 HD
ATOM     10  H   UNL     1       4.955  -0.853  -0.275  0.00  0.00    +0.150 HD
BRANCH   8  11
ATOM     11  C   UNL     1       6.841  -0.628   0.672  0.00  0.00    +0.106 C 
BRANCH  11  12
ATOM     12  C   UNL     1       7.222   0.248  -0.523  0.00  0.00    +0.022 C 
BRANCH  12  13
ATOM     13  C   UNL     1       8.658   0.748  -0.352  0.00  0.00    -0.016 C 
ATOM     14  C   UNL     1       9.082   1.520  -1.603  0.00  0.00    +0.007 C 
ATOM     15  C   UNL     1       8.734   1.671   0.866  0.00  0.00    +0.007 C 
ENDBRANCH  12  13
ENDBRANCH  11  12
ENDBRANCH   8  11
ENDBRANCH   3   5
BRANCH   1  16
ATOM     16  C   UNL     1       0.849  -2.021  -1.205  0.00  0.00    +0.165 C 
BRANCH  16  17
ATOM     17  N   UNL     1      -0.484  -2.624  -1.134  0.00  0.00    -0.288 N 
ATOM     18  C   UNL     1      -1.182  -2.851  -2.264  0.00  0.00    +0.298 C 
ATOM     19  O   UNL     1      -0.705  -2.557  -3.343  0.00  0.00    -0.253 OA
ATOM     20  N   UNL     1      -2.409  -3.406  -2.199  0.00  0.00    -0.313 N 
ATOM     21  H   UNL     1      -0.865  -2.859  -0.273  0.00  0.00    +0.151 HD
ATOM     22  H   UNL     1      -2.789  -3.641  -1.338  0.00  0.00    +0.146 HD
ATOM     23  H   UNL     1      -2.911  -3.570  -3.012  0.00  0.00    +0.146 HD
ENDBRANCH  16  17
BRANCH  16  24
ATOM     24  C   UNL     1       0.718  -0.497  -1.257  0.00  0.00    +0.015 C 
ATOM     25  C   UNL     1      -0.089  -0.097  -2.493  0.00  0.00    +0.010 C 
BRANCH  24  27
ATOM     26  C   UNL     1      -0.019   1.526   0.010  0.00  0.00    +0.004 C 
ATOM     27  C   UNL     1       0.002  -0.004   0.002  0.00  0.00    +0.002 C 
ENDBRANCH  24  27
ENDBRANCH  16  24
ENDBRANCH   1  16
TORSDOF 8
