REMARK  Name = ZINC36369717
REMARK  4 active torsions:
REMARK  status: ('A' for Active; 'I' for Inactive)
REMARK    1  A    between atoms: C_1  and  C_2
REMARK    2  A    between atoms: C_7  and  C_9
REMARK    3  A    between atoms: C_7  and  C_10
REMARK    4  A    between atoms: N_31  and  C_34
REMARK                            x       y       z     vdW  Elec       q    Type
REMARK                         _______ _______ _______ _____ _____    ______ ____
ROOT
ATOM      1  C   UNL     1      -0.019   1.532   0.011  0.00  0.00    +0.013 C 
ATOM      2  C   UNL     1       0.002  -0.004   0.002  0.00  0.00    -0.010 C 
ATOM      3  C   UNL     1       0.765  -0.554  -1.240  0.00  0.00    +0.031 C 
ATOM      4  C   UNL     1       0.250  -2.015  -1.237  0.00  0.00    +0.076 C 
ATOM      5  C   UNL     1       0.964  -2.760  -0.118  0.00  0.00    +0.029 C 
ATOM      6  C   UNL     1       0.965  -2.056   1.223  0.00  0.00    -0.033 C 
ATOM      7  C   UNL     1       0.754  -0.557   1.226  0.00  0.00    +0.015 C 
ATOM      8  C   UNL     1      -0.067  -2.730   2.144  0.00  0.00    +0.011 C 
ATOM      9  C   UNL     1       2.351  -2.322   1.868  0.00  0.00    +0.011 C 
ATOM     10  N   UNL     1      -1.176  -1.881  -0.935  0.00  0.00    -0.308 N 
ATOM     11  C   UNL     1      -1.362  -0.698  -0.060  0.00  0.00    +0.105 C 
ATOM     12  C   UNL     1      -2.510   0.102  -0.661  0.00  0.00    +0.146 C 
ATOM     13  C   UNL     1      -3.771  -0.782  -0.665  0.00  0.00    +0.066 C 
ATOM     14  C   UNL     1      -3.526  -2.158  -1.208  0.00  0.00    -0.007 A 
ATOM     15  C   UNL     1      -2.229  -2.680  -1.345  0.00  0.00    +0.103 A 
ATOM     16  N   UNL     1      -2.011  -3.879  -1.838  0.00  0.00    -0.343 N 
ATOM     17  C   UNL     1      -3.021  -4.666  -2.227  0.00  0.00    +0.048 A 
ATOM     18  C   UNL     1      -2.782  -5.945  -2.758  0.00  0.00    +0.026 A 
ATOM     19  C   UNL     1      -3.830  -6.725  -3.139  0.00  0.00    +0.002 A 
ATOM     20  C   UNL     1      -5.143  -6.275  -3.012  0.00  0.00    +0.001 A 
ATOM     21  C   UNL     1      -5.412  -5.041  -2.503  0.00  0.00    +0.010 A 
ATOM     22  C   UNL     1      -4.355  -4.209  -2.103  0.00  0.00    -0.001 A 
ATOM     23  C   UNL     1      -4.594  -2.922  -1.582  0.00  0.00    +0.017 A 
ATOM     24  C   UNL     1      -2.846   1.305   0.182  0.00  0.00    +0.238 C 
ATOM     25  O   UNL     1      -2.976   1.169   1.378  0.00  0.00    -0.274 OA
ATOM     26  N   UNL     1      -3.013   2.519  -0.362  0.00  0.00    -0.239 N 
ATOM     27  C   UNL     1      -2.802   2.747  -1.667  0.00  0.00    +0.315 C 
ATOM     28  O   UNL     1      -2.988   3.863  -2.112  0.00  0.00    -0.252 OA
ATOM     29  N   UNL     1      -2.386   1.775  -2.493  0.00  0.00    -0.228 N 
ATOM     30  C   UNL     1      -2.208   0.513  -2.072  0.00  0.00    +0.240 C 
ATOM     31  O   UNL     1      -1.799  -0.309  -2.862  0.00  0.00    -0.274 OA
ATOM     32  C   UNL     1      -2.119   2.099  -3.897  0.00  0.00    +0.143 C 
ATOM     33  H   UNL     1      -3.298   3.253   0.203  0.00  0.00    +0.159 HD
ATOM     34  H   UNL     1      -1.100  -4.202  -1.921  0.00  0.00    +0.167 HD
ENDROOT
TORSDOF 0
