REMARK  Name = ZINC40963435
REMARK  10 active torsions:
REMARK  status: ('A' for Active; 'I' for Inactive)
REMARK    1  A    between atoms: C_1  and  C_2
REMARK    2  A    between atoms: C_5  and  N_8
REMARK    3  A    between atoms: C_9  and  C_11
REMARK    4  A    between atoms: C_11  and  N_12
REMARK    5  A    between atoms: N_15  and  C_18
REMARK    6  A    between atoms: C_18  and  C_19
REMARK    7  A    between atoms: C_20  and  C_33
REMARK    8  A    between atoms: C_22  and  C_24
REMARK    9  A    between atoms: C_29  and  O_30
REMARK   10  A    between atoms: O_30  and  C_31
REMARK                            x       y       z     vdW  Elec       q    Type
REMARK                         _______ _______ _______ _____ _____    ______ ____
ROOT
ATOM      1  N   UNL     1       0.420  -6.846   2.499  0.00  0.00    +0.387 N 
ATOM      2  C   UNL     1      -0.831  -6.573   3.220  0.00  0.00    -0.063 C 
ATOM      3  C   UNL     1      -0.708  -7.074   4.661  0.00  0.00    +0.066 C 
ATOM      4  N   UNL     1      -0.432  -8.517   4.654  0.00  0.00    -0.300 NA
ATOM      5  C   UNL     1       0.804  -8.808   3.914  0.00  0.00    +0.066 C 
ATOM      6  C   UNL     1       0.670  -8.294   2.479  0.00  0.00    -0.063 C 
ATOM      7  H   UNL     1       1.184  -6.380   2.964  0.00  0.00    -0.081 HD
ENDROOT
BRANCH   1   8
ATOM      8  C   UNL     1       0.309  -6.349   1.121  0.00  0.00    +0.019 C 
BRANCH   8  10
ATOM      9  N   UNL     1       0.059  -4.170  -0.021  0.00  0.00    -0.287 N 
ATOM     10  C   UNL     1       0.175  -4.848   1.138  0.00  0.00    +0.201 C 
ATOM     11  O   UNL     1       0.173  -4.251   2.193  0.00  0.00    -0.278 OA
ATOM     12  H   UNL     1      -0.017  -4.651  -0.860  0.00  0.00    +0.155 HD
BRANCH   9  17
ATOM     13  C   UNL     1       0.008   1.503   0.007  0.00  0.00    +0.044 C 
ATOM     14  C   UNL     1       0.022  -0.004  -0.001  0.00  0.00    -0.050 A 
ATOM     15  C   UNL     1       0.777  -0.692   0.931  0.00  0.00    +0.005 A 
ATOM     16  C   UNL     1       0.791  -2.073   0.927  0.00  0.00    +0.023 A 
ATOM     17  C   UNL     1       0.046  -2.771  -0.014  0.00  0.00    +0.033 A 
ATOM     18  C   UNL     1      -0.712  -2.077  -0.948  0.00  0.00    +0.023 A 
ATOM     19  C   UNL     1      -0.726  -0.696  -0.936  0.00  0.00    +0.005 A 
ENDBRANCH   9  17
ENDBRANCH   8  10
ENDBRANCH   1   8
BRANCH   4  20
ATOM     20  C   UNL     1      -0.364  -9.047   6.022  0.00  0.00    +0.143 C 
BRANCH  20  21
ATOM     21  C   UNL     1      -0.326 -10.553   5.976  0.00  0.00    +0.097 A 
ATOM     22  C   UNL     1      -1.392 -11.373   5.990  0.00  0.00    +0.127 A 
ATOM     23  O   UNL     1      -0.926 -12.637   5.935  0.00  0.00    -0.440 OA
ATOM     24  C   UNL     1       0.416 -12.576   5.889  0.00  0.00    +0.231 A 
ATOM     25  N   UNL     1       0.778 -11.314   5.909  0.00  0.00    -0.212 NA
ATOM     26  C   UNL     1      -2.839 -10.956   6.054  0.00  0.00    +0.088 C 
BRANCH  24  27
ATOM     27  C   UNL     1       1.330 -13.734   5.822  0.00  0.00    +0.079 A 
ATOM     28  C   UNL     1       2.712 -13.536   5.785  0.00  0.00    +0.032 A 
ATOM     29  C   UNL     1       3.561 -14.622   5.722  0.00  0.00    +0.019 A 
ATOM     30  C   UNL     1       3.047 -15.909   5.696  0.00  0.00    +0.019 A 
ATOM     31  C   UNL     1       1.682 -16.116   5.732  0.00  0.00    +0.047 A 
ATOM     32  C   UNL     1       0.816 -15.037   5.801  0.00  0.00    +0.132 A 
ATOM     33 BR   UNL     1       5.432 -14.354   5.672  0.00  0.00    -0.050 Br
BRANCH  32  34
ATOM     34  O   UNL     1      -0.526 -15.240   5.843  0.00  0.00    -0.494 OA
ATOM     35  C   UNL     1      -0.977 -16.596   5.819  0.00  0.00    +0.277 C 
ENDBRANCH  32  34
ENDBRANCH  24  27
ENDBRANCH  20  21
ENDBRANCH   4  20
TORSDOF 7
