REMARK  Name = ZINC03840141
REMARK  10 active torsions:
REMARK  status: ('A' for Active; 'I' for Inactive)
REMARK    1  A    between atoms: C_1  and  O_2
REMARK    2  A    between atoms: O_2  and  C_3
REMARK    3  A    between atoms: C_5  and  S_34
REMARK    4  A    between atoms: C_8  and  C_9
REMARK    5  A    between atoms: N_11  and  C_12
REMARK    6  A    between atoms: C_15  and  C_23
REMARK    7  A    between atoms: C_17  and  O_22
REMARK    8  A    between atoms: C_19  and  O_21
REMARK    9  A    between atoms: N_25  and  C_26
REMARK   10  A    between atoms: S_34  and  C_35
REMARK                            x       y       z     vdW  Elec       q    Type
REMARK                         _______ _______ _______ _____ _____    ______ ____
ROOT
ATOM      1  C   UNL     1      -8.024  -2.009  -0.168  0.00  0.00    +0.128 C 
ATOM      2  C   UNL     1      -8.086  -3.299   0.597  0.00  0.00    +0.006 C 
ATOM      3  C   UNL     1      -8.045  -4.487   0.034  0.00  0.00    +0.015 C 
ATOM      4  C   UNL     1      -7.941  -4.705  -1.447  0.00  0.00    +0.074 C 
ATOM      5  C   UNL     1      -7.470  -3.423  -2.137  0.00  0.00    +0.149 C 
ATOM      6  C   UNL     1      -8.336  -2.261  -1.645  0.00  0.00    +0.167 C 
ENDROOT
BRANCH   1   9
ATOM      7  C   UNL     1      -6.369  -0.674   1.021  0.00  0.00    +0.248 C 
ATOM      8  O   UNL     1      -7.201  -0.464   1.883  0.00  0.00    -0.270 OA
ATOM      9  N   UNL     1      -6.682  -1.435  -0.046  0.00  0.00    -0.302 N 
ATOM     10  H   UNL     1      -6.019  -1.603  -0.734  0.00  0.00    +0.150 HD
BRANCH   7  16
ATOM     11  C   UNL     1      -4.691   0.696   2.254  0.00  0.00    +0.133 A 
ATOM     12  C   UNL     1      -3.419   1.229   2.362  0.00  0.00    +0.061 A 
ATOM     13  C   UNL     1      -2.480   0.986   1.367  0.00  0.00    +0.011 A 
ATOM     14  C   UNL     1      -2.811   0.196   0.266  0.00  0.00    +0.015 A 
ATOM     15  C   UNL     1      -4.061  -0.338   0.153  0.00  0.00    +0.018 A 
ATOM     16  C   UNL     1      -5.020  -0.098   1.143  0.00  0.00    +0.078 A 
BRANCH  11  18
ATOM     17  C   UNL     1      -5.208   1.750   4.319  0.00  0.00    +0.277 C 
ATOM     18  O   UNL     1      -5.615   0.934   3.219  0.00  0.00    -0.494 OA
ENDBRANCH  11  18
BRANCH  13  19
ATOM     19  S   UNL     1      -0.862   1.671   1.500  0.00  0.00    -0.128 S 
ATOM     20  C   UNL     1      -0.013   1.086   0.008  0.00  0.00    +0.090 C 
ENDBRANCH  13  19
ENDBRANCH   7  16
ENDBRANCH   1   9
BRANCH   3  21
ATOM     21  C   UNL     1      -8.104  -5.670   0.906  0.00  0.00    +0.241 C 
ATOM     22  O   UNL     1      -8.188  -5.533   2.112  0.00  0.00    -0.271 OA
ATOM     23  N   UNL     1      -8.065  -6.905   0.369  0.00  0.00    -0.300 N 
ATOM     24  H   UNL     1      -7.998  -7.015  -0.592  0.00  0.00    +0.150 HD
BRANCH  23  25
ATOM     25  C   UNL     1      -8.124  -8.084   1.238  0.00  0.00    +0.159 C 
ATOM     26  C   UNL     1      -8.689  -9.268   0.451  0.00  0.00    +0.033 C 
ATOM     27  C   UNL     1      -8.487 -10.542   1.280  0.00  0.00    +0.021 C 
ATOM     28  C   UNL     1      -6.989 -10.837   1.369  0.00  0.00    +0.104 C 
ATOM     29  N   UNL     1      -6.261  -9.651   1.802  0.00  0.00    -0.314 N 
ATOM     30  C   UNL     1      -6.743  -8.410   1.731  0.00  0.00    +0.233 C 
ATOM     31  O   UNL     1      -6.029  -7.495   2.084  0.00  0.00    -0.274 OA
ATOM     32  H   UNL     1      -5.369  -9.772   2.164  0.00  0.00    +0.149 HD
ENDBRANCH  23  25
ENDBRANCH   3  21
BRANCH   6  33
ATOM     33  O   UNL     1      -8.038  -1.089  -2.405  0.00  0.00    -0.387 OA
ATOM     34  H   UNL     1      -8.212  -1.179  -3.352  0.00  0.00    +0.210 HD
ENDBRANCH   6  33
BRANCH   5  35
ATOM     35  O   UNL     1      -7.608  -3.561  -3.553  0.00  0.00    -0.389 OA
ATOM     36  H   UNL     1      -7.096  -4.290  -3.929  0.00  0.00    +0.210 HD
ENDBRANCH   5  35
TORSDOF 8
