REMARK  Name = ZINC46762516
REMARK  11 active torsions:
REMARK  status: ('A' for Active; 'I' for Inactive)
REMARK    1  A    between atoms: C_1  and  C_2
REMARK    2  A    between atoms: C_5  and  C_27
REMARK    3  A    between atoms: N_8  and  C_10
REMARK    4  A    between atoms: C_10  and  C_11
REMARK    5  A    between atoms: C_11  and  C_12
REMARK    6  A    between atoms: C_12  and  C_13
REMARK    7  A    between atoms: C_13  and  N_14
REMARK    8  A    between atoms: N_17  and  N_18
REMARK    9  A    between atoms: N_18  and  C_19
REMARK   10  A    between atoms: C_19  and  N_21
REMARK   11  A    between atoms: N_21  and  C_22
REMARK                            x       y       z     vdW  Elec       q    Type
REMARK                         _______ _______ _______ _____ _____    ______ ____
ROOT
ATOM      1  N   UNL     1       2.861   0.005   7.382  0.00  0.00    -0.298 N 
ATOM      2  C   UNL     1       2.440   0.457   8.580  0.00  0.00    +0.316 C 
ATOM      3  O   UNL     1       1.492   1.216   8.645  0.00  0.00    -0.251 OA
ATOM      4  N   UNL     1       3.068   0.066   9.707  0.00  0.00    -0.219 N 
ATOM      5  H   UNL     1       3.617  -0.601   7.331  0.00  0.00    +0.150 HD
ATOM      6  H   UNL     1       2.765   0.391  10.569  0.00  0.00    +0.174 HD
ENDROOT
BRANCH   4   7
ATOM      7  N   UNL     1       4.160  -0.809   9.633  0.00  0.00    -0.245 N 
ATOM      8  H   UNL     1       4.463  -1.134   8.771  0.00  0.00    +0.172 HD
BRANCH   7   9
ATOM      9  C   UNL     1       4.789  -1.199  10.759  0.00  0.00    +0.147 C 
ATOM     10  S   UNL     1       6.123  -2.268  10.668  0.00  0.00    -0.017 S 
BRANCH   9  11
ATOM     11  N   UNL     1       4.367  -0.748  11.957  0.00  0.00    -0.323 N 
ATOM     12  H   UNL     1       3.611  -0.142  12.008  0.00  0.00    +0.148 HD
BRANCH  11  13
ATOM     13  C   UNL     1       5.050  -1.172  13.181  0.00  0.00    +0.072 C 
ATOM     14  C   UNL     1       4.433  -2.486  13.703  0.00  0.00    +0.022 C 
ATOM     15  C   UNL     1       4.458  -2.332  15.244  0.00  0.00    +0.002 C 
ATOM     16  C   UNL     1       4.117  -0.834  15.444  0.00  0.00    +0.002 C 
ATOM     17  C   UNL     1       4.849  -0.122  14.288  0.00  0.00    +0.022 C 
ENDBRANCH  11  13
ENDBRANCH   9  11
ENDBRANCH   7   9
ENDBRANCH   4   7
BRANCH   1  18
ATOM     18  C   UNL     1       2.178   0.429   6.158  0.00  0.00    +0.106 C 
BRANCH  18  19
ATOM     19  C   UNL     1       2.850  -0.222   4.947  0.00  0.00    +0.017 C 
BRANCH  19  20
ATOM     20  C   UNL     1       2.136   0.221   3.668  0.00  0.00    -0.017 C 
BRANCH  20  21
ATOM     21  C   UNL     1       2.808  -0.431   2.458  0.00  0.00    -0.079 C 
BRANCH  21  27
ATOM     22  C   UNL     1      -0.019   1.526   0.010  0.00  0.00    +0.005 C 
ATOM     23  C   UNL     1       0.002  -0.004   0.002  0.00  0.00    -0.031 C 
ATOM     24  C   UNL     1       0.721  -0.499  -1.257  0.00  0.00    +0.003 C 
ATOM     25  C   UNL     1       2.177  -0.027  -1.220  0.00  0.00    -0.031 C 
ATOM     26  C   UNL     1       2.839  -0.534   0.063  0.00  0.00    -0.076 C 
ATOM     27  N   UNL     1       2.123  -0.005   1.230  0.00  0.00    +0.380 N 
ATOM     28  C   UNL     1       0.744  -0.512   1.240  0.00  0.00    -0.076 C 
ATOM     29  C   UNL     1       2.924  -0.581  -2.434  0.00  0.00    +0.005 C 
ATOM     30  H   UNL     1       2.109   1.003   1.187  0.00  0.00    -0.082 HD
ENDBRANCH  21  27
ENDBRANCH  20  21
ENDBRANCH  19  20
ENDBRANCH  18  19
ENDBRANCH   1  18
TORSDOF 9
