REMARK  Name = ZINC36276325
REMARK  9 active torsions:
REMARK  status: ('A' for Active; 'I' for Inactive)
REMARK    1  A    between atoms: C_1  and  C_2
REMARK    2  A    between atoms: C_7  and  C_9
REMARK    3  A    between atoms: C_7  and  C_10
REMARK    4  A    between atoms: N_11  and  C_13
REMARK    5  A    between atoms: C_13  and  C_14
REMARK    6  A    between atoms: C_14  and  C_15
REMARK    7  A    between atoms: C_15  and  C_17
REMARK    8  A    between atoms: C_15  and  O_24
REMARK    9  A    between atoms: C_21  and  N_23
REMARK                            x       y       z     vdW  Elec       q    Type
REMARK                         _______ _______ _______ _____ _____    ______ ____
ROOT
ATOM      1  C   UNL     1      -2.112  -2.876  -0.589  0.00  0.00    -0.076 C 
ENDROOT
BRANCH   1  11
ATOM      2  C   UNL     1      -0.019   1.532   0.011  0.00  0.00    +0.009 C 
ATOM      3  C   UNL     1       0.002  -0.004   0.002  0.00  0.00    -0.048 C 
ATOM      4  C   UNL     1       0.709  -0.579  -1.256  0.00  0.00    -0.011 C 
ATOM      5  C   UNL     1       0.075  -1.998  -1.275  0.00  0.00    -0.068 C 
ATOM      6  C   UNL     1       0.699  -2.799  -0.149  0.00  0.00    -0.009 C 
ATOM      7  C   UNL     1       0.880  -2.099   1.179  0.00  0.00    -0.036 C 
ATOM      8  C   UNL     1       0.727  -0.591   1.213  0.00  0.00    +0.011 C 
ATOM      9  C   UNL     1       2.317  -2.418   1.669  0.00  0.00    +0.011 C 
ATOM     10  C   UNL     1      -0.069  -2.724   2.219  0.00  0.00    +0.011 C 
ATOM     11  N   UNL     1      -1.355  -1.714  -1.040  0.00  0.00    +0.382 N 
ATOM     12  C   UNL     1      -1.418  -0.611  -0.062  0.00  0.00    -0.072 C 
ATOM     13  H   UNL     1      -1.763  -1.380  -1.915  0.00  0.00    -0.081 HD
ENDBRANCH   1  11
BRANCH   1  14
ATOM     14  C   UNL     1      -3.595  -2.512  -0.493  0.00  0.00    +0.017 C 
BRANCH  14  15
ATOM     15  C   UNL     1      -4.389  -3.731  -0.020  0.00  0.00    +0.143 C 
BRANCH  15  16
ATOM     16  C   UNL     1      -5.829  -3.341   0.192  0.00  0.00    -0.017 A 
ATOM     17  C   UNL     1      -6.712  -3.352  -0.873  0.00  0.00    +0.006 A 
ATOM     18  C   UNL     1      -8.034  -2.995  -0.683  0.00  0.00    +0.002 A 
ATOM     19  C   UNL     1      -8.478  -2.626   0.572  0.00  0.00    +0.023 A 
ATOM     20  C   UNL     1      -7.595  -2.614   1.643  0.00  0.00    +0.025 A 
ATOM     21  C   UNL     1      -6.268  -2.979   1.450  0.00  0.00    +0.029 A 
BRANCH  20  22
ATOM     22  N   UNL     1      -8.040  -2.242   2.914  0.00  0.00    -0.358 N 
ATOM     23  H   UNL     1      -8.967  -1.991   3.048  0.00  0.00    +0.142 HD
ATOM     24  H   UNL     1      -7.422  -2.234   3.662  0.00  0.00    +0.142 HD
ENDBRANCH  20  22
ENDBRANCH  15  16
BRANCH  15  25
ATOM     25  O   UNL     1      -4.315  -4.761  -1.008  0.00  0.00    -0.387 OA
ATOM     26  H   UNL     1      -4.671  -4.506  -1.870  0.00  0.00    +0.210 HD
ENDBRANCH  15  25
ENDBRANCH  14  15
ENDBRANCH   1  14
TORSDOF 6
