REMARK  Name = ZINC22789325
REMARK  9 active torsions:
REMARK  status: ('A' for Active; 'I' for Inactive)
REMARK    1  A    between atoms: C_1  and  C_2
REMARK    2  A    between atoms: C_2  and  C_4
REMARK    3  A    between atoms: C_2  and  N_18
REMARK    4  A    between atoms: N_6  and  C_7
REMARK    5  A    between atoms: C_8  and  C_15
REMARK    6  A    between atoms: N_21  and  C_24
REMARK    7  A    between atoms: C_24  and  C_25
REMARK    8  A    between atoms: C_25  and  O_26
REMARK    9  A    between atoms: O_26  and  C_27
REMARK                            x       y       z     vdW  Elec       q    Type
REMARK                         _______ _______ _______ _____ _____    ______ ____
ROOT
ATOM      1  C   UNL     1      -1.961   0.677  -4.999  0.00  0.00    -0.004 C 
ATOM      2  C   UNL     1      -2.020   2.177  -4.702  0.00  0.00    +0.017 C 
ENDROOT
BRANCH   2   3
ATOM      3  N   UNL     1      -2.954   2.825  -5.633  0.00  0.00    +0.389 N 
ATOM      4  C   UNL     1      -4.348   2.550  -5.255  0.00  0.00    -0.062 C 
ATOM      5  C   UNL     1      -5.287   3.305  -6.199  0.00  0.00    +0.066 C 
ATOM      6  N   UNL     1      -5.027   2.886  -7.583  0.00  0.00    -0.303 NA
ATOM      7  C   UNL     1      -3.634   3.160  -7.960  0.00  0.00    +0.066 C 
ATOM      8  C   UNL     1      -2.695   2.405  -7.017  0.00  0.00    -0.062 C 
ATOM      9  H   UNL     1      -2.793   3.911  -5.571  0.00  0.00    -0.081 HD
BRANCH   6  10
ATOM     10  C   UNL     1      -5.962   3.533  -8.513  0.00  0.00    +0.125 C 
BRANCH  10  11
ATOM     11  C   UNL     1      -6.013   5.035  -8.223  0.00  0.00    +0.244 C 
BRANCH  11  12
ATOM     12  O   UNL     1      -4.740   5.619  -8.510  0.00  0.00    -0.491 OA
BRANCH  12  13
ATOM     13  C   UNL     1      -4.615   6.956  -8.304  0.00  0.00    +0.121 A 
ATOM     14  C   UNL     1      -5.695   7.692  -7.841  0.00  0.00    +0.045 A 
ATOM     15  C   UNL     1      -5.564   9.051  -7.628  0.00  0.00    +0.004 A 
ATOM     16  C   UNL     1      -4.359   9.678  -7.885  0.00  0.00    +0.000 A 
ATOM     17  C   UNL     1      -3.282   8.948  -8.352  0.00  0.00    +0.004 A 
ATOM     18  C   UNL     1      -3.407   7.588  -8.562  0.00  0.00    +0.045 A 
ENDBRANCH  12  13
ENDBRANCH  11  12
ENDBRANCH  10  11
ENDBRANCH   6  10
ENDBRANCH   2   3
BRANCH   2  19
ATOM     19  C   UNL     1      -0.647   2.776  -4.870  0.00  0.00    +0.204 C 
ATOM     20  O   UNL     1      -0.402   3.466  -5.837  0.00  0.00    -0.277 OA
ATOM     21  N   UNL     1       0.306   2.546  -3.946  0.00  0.00    -0.281 N 
ATOM     22  H   UNL     1       0.083   1.920  -3.070  0.00  0.00    +0.155 HD
BRANCH  21  23
ATOM     23  C   UNL     1       1.569   3.098  -4.101  0.00  0.00    +0.084 A 
ATOM     24  C   UNL     1       2.669   2.977  -3.269  0.00  0.00    +0.068 A 
ATOM     25  C   UNL     1       3.898   3.660  -3.668  0.00  0.00    -0.023 A 
ATOM     26  C   UNL     1       3.821   4.348  -4.821  0.00  0.00    -0.004 A 
ATOM     27  S   UNL     1       2.153   4.106  -5.381  0.00  0.00    -0.077 S 
ATOM     28  C   UNL     1       5.123   5.019  -5.167  0.00  0.00    +0.043 C 
ATOM     29  C   UNL     1       6.173   4.308  -4.285  0.00  0.00    +0.010 C 
ATOM     30  C   UNL     1       5.311   3.817  -3.104  0.00  0.00    +0.037 C 
BRANCH  24  31
ATOM     31  C   UNL     1       2.604   2.187  -2.035  0.00  0.00    +0.244 C 
ATOM     32  O   UNL     1       2.274   2.716  -0.990  0.00  0.00    -0.270 OA
ATOM     33  N   UNL     1       2.906   0.873  -2.060  0.00  0.00    -0.325 N 
ATOM     34  H   UNL     1       2.858   0.281  -1.134  0.00  0.00    +0.145 HD
ATOM     35  H   UNL     1       3.200   0.394  -3.005  0.00  0.00    +0.145 HD
ENDBRANCH  24  31
ENDBRANCH  21  23
ENDBRANCH   2  19
TORSDOF 8
