REMARK  Name = ZINC67128678
REMARK  11 active torsions:
REMARK  status: ('A' for Active; 'I' for Inactive)
REMARK    1  A    between atoms: C_1  and  C_2
REMARK    2  A    between atoms: C_2  and  C_3
REMARK    3  A    between atoms: C_2  and  C_4
REMARK    4  A    between atoms: C_8  and  C_25
REMARK    5  A    between atoms: C_9  and  N_10
REMARK    6  A    between atoms: C_11  and  C_13
REMARK    7  A    between atoms: C_13  and  N_14
REMARK    8  A    between atoms: C_16  and  O_24
REMARK    9  A    between atoms: C_19  and  C_21
REMARK   10  A    between atoms: C_25  and  C_26
REMARK   11  A    between atoms: C_25  and  C_27
REMARK                            x       y       z     vdW  Elec       q    Type
REMARK                         _______ _______ _______ _____ _____    ______ ____
ROOT
ATOM      1  N   UNL     1      -0.965  -0.201  -2.346  0.00  0.00    -0.287 N 
ATOM      2  C   UNL     1      -0.790  -1.103  -3.332  0.00  0.00    +0.201 C 
ATOM      3  O   UNL     1      -1.326  -2.188  -3.264  0.00  0.00    -0.278 OA
ATOM      4  H   UNL     1      -0.601   0.693  -2.436  0.00  0.00    +0.155 HD
ENDROOT
BRANCH   1  10
ATOM      5  C   UNL     1      -1.048  -0.513   0.048  0.00  0.00    -0.023 A 
ATOM      6  C   UNL     1      -1.751  -0.858   1.186  0.00  0.00    +0.006 A 
ATOM      7  C   UNL     1      -3.073  -1.251   1.091  0.00  0.00    +0.001 A 
ATOM      8  C   UNL     1      -3.696  -1.300  -0.143  0.00  0.00    +0.006 A 
ATOM      9  C   UNL     1      -2.999  -0.956  -1.284  0.00  0.00    -0.023 A 
ATOM     10  C   UNL     1      -1.672  -0.556  -1.192  0.00  0.00    +0.040 A 
BRANCH   5  12
ATOM     11  C   UNL     1       0.495   1.153   1.044  0.00  0.00    +0.012 C 
ATOM     12  C   UNL     1       0.394  -0.086   0.152  0.00  0.00    +0.015 C 
ATOM     13  C   UNL     1       1.220  -1.221   0.760  0.00  0.00    +0.012 C 
ENDBRANCH   5  12
BRANCH   9  14
ATOM     14  C   UNL     1      -3.679  -1.010  -2.628  0.00  0.00    +0.015 C 
ATOM     15  C   UNL     1      -4.817  -2.031  -2.583  0.00  0.00    +0.012 C 
ATOM     16  C   UNL     1      -4.245   0.370  -2.969  0.00  0.00    +0.012 C 
ENDBRANCH   9  14
ENDBRANCH   1  10
BRANCH   2  17
ATOM     17  C   UNL     1       0.073  -0.761  -4.520  0.00  0.00    +0.020 C 
BRANCH  17  18
ATOM     18  N   UNL     1       0.104  -1.901  -5.446  0.00  0.00    +0.395 N 
ATOM     19  C   UNL     1      -1.229  -2.086  -6.076  0.00  0.00    -0.045 C 
ATOM     20  C   UNL     1      -0.905  -2.882  -7.365  0.00  0.00    +0.097 C 
ATOM     21  C   UNL     1       0.436  -2.267  -7.824  0.00  0.00    +0.023 C 
ATOM     22  C   UNL     1       1.040  -1.630  -6.558  0.00  0.00    +0.022 C 
ATOM     23  H   UNL     1       0.378  -2.740  -4.957  0.00  0.00    -0.080 HD
BRANCH  22  24
ATOM     24  C   UNL     1       2.382  -2.249  -6.262  0.00  0.00    +0.197 C 
ATOM     25  O   UNL     1       2.553  -2.860  -5.228  0.00  0.00    -0.278 OA
ATOM     26  N   UNL     1       3.392  -2.124  -7.146  0.00  0.00    -0.331 N 
ATOM     27  H   UNL     1       3.255  -1.636  -7.973  0.00  0.00    +0.145 HD
ATOM     28  H   UNL     1       4.255  -2.523  -6.955  0.00  0.00    +0.145 HD
ENDBRANCH  22  24
BRANCH  20  29
ATOM     29  O   UNL     1      -1.920  -2.684  -8.350  0.00  0.00    -0.394 OA
ATOM     30  H   UNL     1      -1.765  -3.161  -9.177  0.00  0.00    +0.210 HD
ENDBRANCH  20  29
ENDBRANCH  17  18
ENDBRANCH   2  17
TORSDOF 7
