REMARK  Name = ZINC30499841
REMARK  10 active torsions:
REMARK  status: ('A' for Active; 'I' for Inactive)
REMARK    1  A    between atoms: C_1  and  C_2
REMARK    2  A    between atoms: C_2  and  C_3
REMARK    3  A    between atoms: N_5  and  C_6
REMARK    4  A    between atoms: C_9  and  C_12
REMARK    5  A    between atoms: C_12  and  C_14
REMARK    6  A    between atoms: C_12  and  N_15
REMARK    7  A    between atoms: N_15  and  C_16
REMARK    8  A    between atoms: C_16  and  C_18
REMARK    9  A    between atoms: C_16  and  C_19
REMARK   10  A    between atoms: N_24  and  C_25
REMARK                            x       y       z     vdW  Elec       q    Type
REMARK                         _______ _______ _______ _____ _____    ______ ____
ROOT
ATOM      1  N   UNL     1      -0.665   1.397  -1.247  0.00  0.00    +0.391 N 
ATOM      2  H   UNL     1      -1.080   2.415  -1.207  0.00  0.00    -0.084 HD
ATOM      3  H   UNL     1       0.073   1.333  -2.061  0.00  0.00    -0.084 HD
ENDROOT
BRANCH   1   4
ATOM      4  C   UNL     1      -0.012   1.084   0.032  0.00  0.00    -0.043 C 
ATOM      5  C   UNL     1      -0.785   1.744   1.175  0.00  0.00    -0.009 C 
BRANCH   4   9
ATOM      6  C   UNL     1       3.997   2.564  -0.018  0.00  0.00    +0.033 A 
ATOM      7  C   UNL     1       3.718   1.330   0.554  0.00  0.00    +0.023 A 
ATOM      8  C   UNL     1       2.422   0.854   0.569  0.00  0.00    +0.004 A 
ATOM      9  C   UNL     1       1.402   1.606   0.015  0.00  0.00    -0.062 A 
ATOM     10  C   UNL     1       1.677   2.833  -0.560  0.00  0.00    +0.004 A 
ATOM     11  C   UNL     1       2.971   3.317  -0.573  0.00  0.00    +0.023 A 
BRANCH   6  14
ATOM     12  C   UNL     1       6.343   2.192  -0.150  0.00  0.00    +0.217 C 
ATOM     13  O   UNL     1       6.134   1.012  -0.337  0.00  0.00    -0.275 OA
ATOM     14  N   UNL     1       5.310   3.049  -0.034  0.00  0.00    -0.286 N 
ATOM     15  H   UNL     1       5.498   4.130   0.048  0.00  0.00    +0.155 HD
BRANCH  12  17
ATOM     16  C   UNL     1       8.733   1.531  -0.214  0.00  0.00    +0.013 C 
ATOM     17  C   UNL     1       7.758   2.699  -0.048  0.00  0.00    +0.093 C 
ENDBRANCH  12  17
ENDBRANCH   6  14
ENDBRANCH   4   9
ENDBRANCH   1   4
BRANCH   1  18
ATOM     18  C   UNL     1      -1.756   0.454  -1.525  0.00  0.00    +0.014 C 
ATOM     19  C   UNL     1      -1.189  -0.799  -2.197  0.00  0.00    -0.004 C 
BRANCH  18  20
ATOM     20  C   UNL     1      -2.760   1.104  -2.441  0.00  0.00    +0.206 C 
ATOM     21  O   UNL     1      -2.584   2.240  -2.825  0.00  0.00    -0.277 OA
ATOM     22  N   UNL     1      -3.854   0.422  -2.835  0.00  0.00    -0.242 N 
ATOM     23  C   UNL     1      -4.752   1.003  -3.654  0.00  0.00    +0.306 C 
ATOM     24  O   UNL     1      -4.576   2.143  -4.038  0.00  0.00    -0.252 OA
ATOM     25  N   UNL     1      -5.846   0.321  -4.048  0.00  0.00    -0.296 N 
ATOM     26  H   UNL     1      -4.014  -0.610  -2.487  0.00  0.00    +0.159 HD
ATOM     27  H   UNL     1      -6.006  -0.710  -3.700  0.00  0.00    +0.151 HD
BRANCH  25  28
ATOM     28  C   UNL     1      -6.823   0.953  -4.939  0.00  0.00    +0.074 C 
ATOM     29  C   UNL     1      -7.870   1.727  -4.111  0.00  0.00    +0.022 C 
ATOM     30  C   UNL     1      -9.198   1.506  -4.877  0.00  0.00    +0.002 C 
ATOM     31  C   UNL     1      -9.079   0.035  -5.349  0.00  0.00    +0.002 C 
ATOM     32  C   UNL     1      -7.592  -0.122  -5.726  0.00  0.00    +0.022 C 
ENDBRANCH  25  28
ENDBRANCH  18  20
ENDBRANCH   1  18
TORSDOF 7
