REMARK  Name = ZINC38032650
REMARK  6 active torsions:
REMARK  status: ('A' for Active; 'I' for Inactive)
REMARK    1  A    between atoms: C_1  and  C_2
REMARK    2  A    between atoms: C_2  and  C_3
REMARK    3  A    between atoms: C_3  and  C_5
REMARK    4  A    between atoms: C_3  and  N_12
REMARK    5  A    between atoms: C_8  and  O_11
REMARK    6  A    between atoms: C_20  and  N_21
REMARK                            x       y       z     vdW  Elec       q    Type
REMARK                         _______ _______ _______ _____ _____    ______ ____
ROOT
ATOM      1  N   UNL     1      -2.140   0.062   1.188  0.00  0.00    +0.387 N 
ATOM      2  C   UNL     1      -3.526  -0.428   1.214  0.00  0.00    -0.073 C 
ATOM      3  C   UNL     1      -4.104  -0.181   2.607  0.00  0.00    +0.019 C 
ATOM      4  C   UNL     1      -3.878   1.254   3.006  0.00  0.00    -0.027 A 
ATOM      5  C   UNL     1      -2.964   2.048   2.349  0.00  0.00    -0.059 A 
ATOM      6  C   UNL     1      -2.781   3.364   2.749  0.00  0.00    +0.002 A 
ATOM      7  C   UNL     1      -3.510   3.885   3.799  0.00  0.00    +0.002 A 
ATOM      8  C   UNL     1      -4.430   3.095   4.460  0.00  0.00    +0.023 A 
ATOM      9  C   UNL     1      -4.616   1.778   4.065  0.00  0.00    +0.028 A 
ATOM     10  C   UNL     1      -2.152   1.528   1.192  0.00  0.00    -0.042 C 
ATOM     11  H   UNL     1      -1.646  -0.273   2.001  0.00  0.00    -0.080 HD
ENDROOT
BRANCH   9  12
ATOM     12  N   UNL     1      -5.544   0.975   4.732  0.00  0.00    -0.358 N 
ATOM     13  H   UNL     1      -5.675   0.054   4.457  0.00  0.00    +0.142 HD
ATOM     14  H   UNL     1      -6.059   1.338   5.470  0.00  0.00    +0.142 HD
ENDBRANCH   9  12
BRANCH   1  15
ATOM     15  C   UNL     1      -1.470  -0.420  -0.027  0.00  0.00    -0.037 C 
BRANCH  15  16
ATOM     16  C   UNL     1      -1.452  -1.927  -0.026  0.00  0.00    -0.061 A 
ATOM     17  C   UNL     1      -1.213  -2.614   1.150  0.00  0.00    +0.005 A 
ATOM     18  C   UNL     1      -1.196  -3.995   1.153  0.00  0.00    +0.045 A 
ATOM     19  C   UNL     1      -1.419  -4.693  -0.025  0.00  0.00    +0.117 A 
ATOM     20  C   UNL     1      -1.658  -4.002  -1.203  0.00  0.00    +0.045 A 
ATOM     21  C   UNL     1      -1.680  -2.621  -1.201  0.00  0.00    +0.005 A 
BRANCH  19  22
ATOM     22  O   UNL     1      -1.401  -6.052  -0.024  0.00  0.00    -0.507 OA
ATOM     23  H   UNL     1      -2.263  -6.456   0.147  0.00  0.00    +0.292 HD
ENDBRANCH  19  22
ENDBRANCH  15  16
BRANCH  15  25
ATOM     24  C   UNL     1       0.622  -0.286  -1.387  0.00  0.00    +0.002 C 
ATOM     25  C   UNL     1      -0.034   0.107  -0.062  0.00  0.00    -0.014 C 
ENDBRANCH  15  25
ENDBRANCH   1  15
TORSDOF 5
