REMARK  Name = ZINC20436943
REMARK  7 active torsions:
REMARK  status: ('A' for Active; 'I' for Inactive)
REMARK    1  A    between atoms: C_1  and  C_2
REMARK    2  A    between atoms: C_4  and  C_35
REMARK    3  A    between atoms: C_6  and  N_8
REMARK    4  A    between atoms: N_8  and  C_9
REMARK    5  A    between atoms: C_9  and  C_10
REMARK    6  A    between atoms: N_12  and  C_13
REMARK    7  A    between atoms: C_17  and  C_19
REMARK                            x       y       z     vdW  Elec       q    Type
REMARK                         _______ _______ _______ _____ _____    ______ ____
ROOT
ATOM      1  N   UNL     1       2.430   7.940   0.328  0.00  0.00    -0.273 N 
ATOM      2  C   UNL     1       3.102   8.312  -0.816  0.00  0.00    +0.136 C 
ATOM      3  N   UNL     1       4.358   8.740  -0.914  0.00  0.00    -0.362 N 
ATOM      4  C   UNL     1       4.793   9.177  -2.197  0.00  0.00    +0.117 C 
ATOM      5  C   UNL     1       6.232   9.414  -2.610  0.00  0.00    +0.191 C 
ATOM      6  S   UNL     1       6.016   9.634  -4.437  0.00  0.00    -0.028 S 
ATOM      7  O   UNL     1       6.792   8.657  -5.117  0.00  0.00    -0.174 OA
ATOM      8  O   UNL     1       6.178  11.008  -4.761  0.00  0.00    -0.174 OA
ATOM      9  C   UNL     1       4.221   9.186  -4.577  0.00  0.00    +0.182 C 
ATOM     10  C   UNL     1       4.101   8.318  -3.318  0.00  0.00    +0.099 C 
ATOM     11  S   UNL     1       2.467   8.331  -2.500  0.00  0.00    -0.085 S 
ATOM     12  H   UNL     1       5.009   8.744  -0.026  0.00  0.00    +0.162 HD
ENDROOT
BRANCH   1  18
ATOM     13  C   UNL     1       5.953   6.612   3.489  0.00  0.00    +0.044 C 
ATOM     14  C   UNL     1       4.753   7.453   3.136  0.00  0.00    -0.048 A 
ATOM     15  C   UNL     1       4.257   8.366   4.047  0.00  0.00    +0.006 A 
ATOM     16  C   UNL     1       3.156   9.139   3.727  0.00  0.00    -0.048 A 
ATOM     17  C   UNL     1       2.548   9.000   2.495  0.00  0.00    +0.027 A 
ATOM     18  C   UNL     1       3.044   8.083   1.577  0.00  0.00    +0.037 A 
ATOM     19  C   UNL     1       4.146   7.305   1.904  0.00  0.00    +0.027 A 
ATOM     20  C   UNL     1       2.618  10.134   4.723  0.00  0.00    +0.044 C 
ENDBRANCH   1  18
BRANCH   1  21
ATOM     21  C   UNL     1       1.073   7.395   0.236  0.00  0.00    +0.208 C 
BRANCH  21  22
ATOM     22  C   UNL     1       1.143   5.896   0.093  0.00  0.00    +0.235 C 
ATOM     23  O   UNL     1       2.220   5.339   0.069  0.00  0.00    -0.274 OA
ATOM     24  N   UNL     1       0.009   5.176  -0.009  0.00  0.00    -0.284 N 
ATOM     25  H   UNL     1      -0.964   5.687  -0.073  0.00  0.00    +0.155 HD
BRANCH  24  26
ATOM     26  C   UNL     1       0.067   3.778  -0.034  0.00  0.00    +0.034 A 
ATOM     27  C   UNL     1       1.050   3.110   0.685  0.00  0.00    +0.023 A 
ATOM     28  C   UNL     1       1.105   1.730   0.658  0.00  0.00    +0.002 A 
ATOM     29  C   UNL     1       0.184   1.014  -0.085  0.00  0.00    +0.012 A 
ATOM     30  C   UNL     1      -0.791   1.677  -0.806  0.00  0.00    +0.057 A 
ATOM     31  C   UNL     1      -0.856   3.056  -0.779  0.00  0.00    +0.035 A 
BRANCH  30  32
ATOM     32  C   UNL     1      -1.789   0.893  -1.619  0.00  0.00    +0.417 C 
ATOM     33  F   UNL     1      -1.527  -0.475  -1.486  0.00  0.00    -0.166 F 
ATOM     34  F   UNL     1      -3.082   1.166  -1.160  0.00  0.00    -0.166 F 
ATOM     35  F   UNL     1      -1.685   1.259  -2.965  0.00  0.00    -0.166 F 
ENDBRANCH  30  32
ENDBRANCH  24  26
ENDBRANCH  21  22
ENDBRANCH   1  21
TORSDOF 5
