REMARK  Name = ZINC36579389
REMARK  17 active torsions:
REMARK  status: ('A' for Active; 'I' for Inactive)
REMARK    1  A    between atoms: C_1  and  C_2
REMARK    2  A    between atoms: C_2  and  C_3
REMARK    3  A    between atoms: C_3  and  C_4
REMARK    4  A    between atoms: C_4  and  N_5
REMARK    5  A    between atoms: C_6  and  C_8
REMARK    6  A    between atoms: C_8  and  C_10
REMARK    7  A    between atoms: C_8  and  N_19
REMARK    8  A    between atoms: C_13  and  O_18
REMARK    9  A    between atoms: C_14  and  O_16
REMARK   10  A    between atoms: O_16  and  C_17
REMARK   11  A    between atoms: N_19  and  C_36
REMARK   12  A    between atoms: C_20  and  C_22
REMARK   13  A    between atoms: C_22  and  C_30
REMARK   14  A    between atoms: C_23  and  C_24
REMARK   15  A    between atoms: C_36  and  C_37
REMARK   16  A    between atoms: C_36  and  C_38
REMARK   17  A    between atoms: C_36  and  C_39
REMARK                            x       y       z     vdW  Elec       q    Type
REMARK                         _______ _______ _______ _____ _____    ______ ____
ROOT
ATOM      1  N   UNL     1       3.249  -5.841  -4.649  0.00  0.00    -0.277 N 
ATOM      2  C   UNL     1       2.654  -6.253  -5.785  0.00  0.00    +0.248 C 
ATOM      3  O   UNL     1       2.071  -7.320  -5.814  0.00  0.00    -0.270 OA
ENDROOT
BRANCH   1   4
ATOM      4  C   UNL     1       2.917  -6.482  -3.374  0.00  0.00    +0.030 C 
ATOM      5  C   UNL     1       3.551  -5.694  -2.226  0.00  0.00    +0.031 C 
ATOM      6  C   UNL     1       1.397  -6.506  -3.196  0.00  0.00    +0.031 C 
ATOM      7  C   UNL     1       3.454  -7.915  -3.368  0.00  0.00    +0.031 C 
ENDBRANCH   1   4
BRANCH   2   8
ATOM      8  C   UNL     1       2.712  -5.413  -6.992  0.00  0.00    +0.045 C 
ATOM      9  C   UNL     1       2.521  -5.969  -8.218  0.00  0.00    +0.021 C 
BRANCH   9  10
ATOM     10  C   UNL     1       2.497  -5.119  -9.416  0.00  0.00    -0.024 A 
ATOM     11  C   UNL     1       3.022  -5.590 -10.624  0.00  0.00    +0.008 A 
ATOM     12  C   UNL     1       2.995  -4.785 -11.744  0.00  0.00    +0.001 A 
ATOM     13  C   UNL     1       2.451  -3.514 -11.674  0.00  0.00    +0.000 A 
ATOM     14  C   UNL     1       1.930  -3.041 -10.483  0.00  0.00    +0.001 A 
ATOM     15  C   UNL     1       1.944  -3.834  -9.356  0.00  0.00    +0.008 A 
ENDBRANCH   9  10
BRANCH   8  16
ATOM     16  C   UNL     1       2.977  -3.961  -6.872  0.00  0.00    -0.013 A 
ATOM     17  C   UNL     1       4.080  -3.395  -7.510  0.00  0.00    +0.008 A 
ATOM     18  C   UNL     1       4.322  -2.042  -7.394  0.00  0.00    +0.001 A 
ATOM     19  C   UNL     1       3.472  -1.246  -6.646  0.00  0.00    +0.000 A 
ATOM     20  C   UNL     1       2.376  -1.801  -6.010  0.00  0.00    +0.001 A 
ATOM     21  C   UNL     1       2.120  -3.152  -6.124  0.00  0.00    +0.008 A 
ENDBRANCH   8  16
ENDBRANCH   2   8
BRANCH   1  22
ATOM     22  C   UNL     1       4.228  -4.752  -4.687  0.00  0.00    +0.193 C 
BRANCH  22  23
ATOM     23  C   UNL     1       5.593  -5.291  -4.344  0.00  0.00    -0.014 A 
ATOM     24  C   UNL     1       5.720  -6.306  -3.414  0.00  0.00    +0.010 A 
ATOM     25  C   UNL     1       6.970  -6.804  -3.096  0.00  0.00    +0.049 A 
ATOM     26  C   UNL     1       8.099  -6.286  -3.711  0.00  0.00    +0.158 A 
ATOM     27  C   UNL     1       7.971  -5.265  -4.648  0.00  0.00    +0.162 A 
ATOM     28  C   UNL     1       6.715  -4.774  -4.965  0.00  0.00    +0.055 A 
BRANCH  27  29
ATOM     29  O   UNL     1       9.076  -4.754  -5.254  0.00  0.00    -0.491 OA
ATOM     30  C   UNL     1       8.869  -3.707  -6.205  0.00  0.00    +0.277 C 
ENDBRANCH  27  29
BRANCH  26  31
ATOM     31  O   UNL     1       9.329  -6.775  -3.399  0.00  0.00    -0.503 OA
ATOM     32  H   UNL     1       9.610  -7.516  -3.953  0.00  0.00    +0.292 HD
ENDBRANCH  26  31
ENDBRANCH  22  23
BRANCH  22  34
ATOM     33  N   UNL     1       4.794  -2.955  -3.085  0.00  0.00    -0.313 N 
ATOM     34  C   UNL     1       3.841  -3.693  -3.688  0.00  0.00    +0.238 C 
ATOM     35  O   UNL     1       2.672  -3.504  -3.426  0.00  0.00    -0.273 OA
ATOM     36  H   UNL     1       5.729  -3.105  -3.294  0.00  0.00    +0.149 HD
BRANCH  33  37
ATOM     37  C   UNL     1       4.418  -1.925  -2.113  0.00  0.00    +0.104 C 
BRANCH  37  38
ATOM     38  C   UNL     1       5.678  -1.240  -1.582  0.00  0.00    +0.018 C 
BRANCH  38  40
ATOM     39  C   UNL     1       6.546   0.521  -0.036  0.00  0.00    +0.004 C 
ATOM     40  C   UNL     1       5.285  -0.164  -0.567  0.00  0.00    -0.002 C 
ENDBRANCH  38  40
ENDBRANCH  37  38
ENDBRANCH  33  37
ENDBRANCH  22  34
ENDBRANCH   1  22
TORSDOF 12
