REMARK  Name = ZINC36677619
REMARK  6 active torsions:
REMARK  status: ('A' for Active; 'I' for Inactive)
REMARK    1  A    between atoms: C_1  and  C_2
REMARK    2  A    between atoms: N_5  and  C_9
REMARK    3  A    between atoms: C_9  and  C_10
REMARK    4  A    between atoms: C_10  and  C_12
REMARK    5  A    between atoms: C_10  and  C_13
REMARK    6  A    between atoms: C_13  and  N_15
REMARK                            x       y       z     vdW  Elec       q    Type
REMARK                         _______ _______ _______ _____ _____    ______ ____
ROOT
ATOM      1  C   UNL     1       1.439  -2.486  -2.440  0.00  0.00    +0.094 C 
ENDROOT
BRANCH   1   5
ATOM      2  C   UNL     1      -0.019   1.526   0.010  0.00  0.00    +0.039 C 
ATOM      3  C   UNL     1       0.002  -0.004   0.002  0.00  0.00    +0.129 C 
ATOM      4  C   UNL     1       0.720  -0.499  -1.256  0.00  0.00    +0.115 C 
ATOM      5  N   UNL     1       0.805  -1.966  -1.221  0.00  0.00    -0.297 NA
ATOM      6  C   UNL     1       1.523  -2.417  -0.020  0.00  0.00    +0.112 C 
ATOM      7  C   UNL     1       0.797  -1.904   1.226  0.00  0.00    +0.175 C 
ATOM      8  O   UNL     1       0.695  -0.479   1.159  0.00  0.00    -0.374 OA
ENDBRANCH   1   5
BRANCH   1   9
ATOM      9  C   UNL     1       1.287  -4.008  -2.484  0.00  0.00    +0.051 C 
ATOM     10  C   UNL     1      -0.194  -4.369  -2.612  0.00  0.00    +0.015 C 
BRANCH   9  11
ATOM     11  C   UNL     1       2.041  -4.554  -3.669  0.00  0.00    +0.050 C 
ATOM     12  S   UNL     1       2.833  -3.560  -4.640  0.00  0.00    -0.040 S 
BRANCH  11  13
ATOM     13  N   UNL     1       2.049  -5.880  -3.910  0.00  0.00    -0.355 N 
ATOM     14  H   UNL     1       1.569  -6.483  -3.321  0.00  0.00    +0.143 HD
ATOM     15  H   UNL     1       2.535  -6.231  -4.673  0.00  0.00    +0.143 HD
ENDBRANCH  11  13
ENDBRANCH   9  11
ENDBRANCH   1   9
TORSDOF 4
