REMARK  Name = ZINC38045060
REMARK  3 active torsions:
REMARK  status: ('A' for Active; 'I' for Inactive)
REMARK    1  A    between atoms: C_3  and  C_8
REMARK    2  A    between atoms: C_8  and  N_9
REMARK    3  A    between atoms: N_9  and  C_10
REMARK                            x       y       z     vdW  Elec       q    Type
REMARK                         _______ _______ _______ _____ _____    ______ ____
ROOT
ATOM      1  C   UNL     1       5.721   1.908   2.340  0.00  0.00    -0.069 C 
ATOM      2  C   UNL     1       5.782   3.436   2.385  0.00  0.00    +0.003 C 
ATOM      3  C   UNL     1       7.244   3.887   2.307  0.00  0.00    +0.108 C 
ATOM      4  N   UNL     1       8.002   3.221   3.374  0.00  0.00    -0.286 N 
ATOM      5  C   UNL     1       7.939   1.757   3.477  0.00  0.00    +0.108 C 
ATOM      6  C   UNL     1       6.470   1.329   3.542  0.00  0.00    +0.003 C 
ATOM      7  C   UNL     1       8.742   3.939   4.242  0.00  0.00    +0.300 C 
ATOM      8  O   UNL     1       8.860   5.140   4.092  0.00  0.00    -0.253 OA
ATOM      9  N   UNL     1       9.350   3.327   5.277  0.00  0.00    -0.313 N 
ATOM     10  H   UNL     1       9.317   2.361   5.356  0.00  0.00    +0.146 HD
ATOM     11  H   UNL     1       9.821   3.852   5.943  0.00  0.00    +0.146 HD
ENDROOT
BRANCH   1  12
ATOM     12  N   UNL     1       4.318   1.473   2.381  0.00  0.00    +0.381 N 
ATOM     13  H   UNL     1       3.867   1.869   3.192  0.00  0.00    -0.086 HD
ATOM     14  H   UNL     1       4.280   0.466   2.433  0.00  0.00    -0.086 HD
BRANCH  12  15
ATOM     15  C   UNL     1       3.628   1.927   1.166  0.00  0.00    -0.077 C 
BRANCH  15  18
ATOM     16  C   UNL     1      -0.023   1.530   0.018  0.00  0.00    +0.028 C 
ATOM     17  C   UNL     1       1.417   2.052   0.006  0.00  0.00    +0.006 C 
ATOM     18  C   UNL     1       2.168   1.474   1.210  0.00  0.00    -0.002 C 
ATOM     19  C   UNL     1       2.103  -0.055   1.155  0.00  0.00    +0.161 C 
ATOM     20  O   UNL     1       0.737  -0.472   1.138  0.00  0.00    -0.380 OA
ATOM     21  C   UNL     1      -0.003  -0.001   0.010  0.00  0.00    +0.160 C 
ENDBRANCH  15  18
ENDBRANCH  12  15
ENDBRANCH   1  12
TORSDOF 3
