REMARK  Name = ZINC63503138
REMARK  5 active torsions:
REMARK  status: ('A' for Active; 'I' for Inactive)
REMARK    1  A    between atoms: C_4  and  C_7
REMARK    2  A    between atoms: C_11  and  S_20
REMARK    3  A    between atoms: N_13  and  C_14
REMARK    4  A    between atoms: S_20  and  C_21
REMARK    5  A    between atoms: C_21  and  C_22
REMARK                            x       y       z     vdW  Elec       q    Type
REMARK                         _______ _______ _______ _____ _____    ______ ____
ROOT
ATOM      1  C   UNL     1       3.543  -0.638  -0.186  0.00  0.00    +0.188 C 
ATOM      2  N   UNL     1       4.591   0.057  -0.968  0.00  0.00    -0.230 NA
ATOM      3  N   UNL     1       5.504  -1.017  -1.392  0.00  0.00    -0.226 NA
ATOM      4  C   UNL     1       4.580  -2.144  -1.685  0.00  0.00    +0.217 C 
ATOM      5  N   UNL     1       3.537  -2.039  -0.643  0.00  0.00    -0.284 N 
ATOM      6  H   UNL     1       5.074   0.738  -0.401  0.00  0.00    +0.143 HD
ATOM      7  H   UNL     1       6.146  -1.259  -0.653  0.00  0.00    +0.143 HD
ENDROOT
BRANCH   1  11
ATOM      8  C   UNL     1      -0.261   1.161  -0.919  0.00  0.00    +0.000 A 
ATOM      9  C   UNL     1       0.281   1.185   0.352  0.00  0.00    +0.000 A 
ATOM     10  C   UNL     1       1.512   0.602   0.589  0.00  0.00    +0.007 A 
ATOM     11  C   UNL     1       2.201  -0.004  -0.445  0.00  0.00    -0.012 A 
ATOM     12  C   UNL     1       1.658  -0.029  -1.716  0.00  0.00    +0.007 A 
ATOM     13  C   UNL     1       0.427   0.554  -1.953  0.00  0.00    +0.000 A 
ENDBRANCH   1  11
BRANCH   5  14
ATOM     14  C   UNL     1       2.708  -3.065  -0.182  0.00  0.00    +0.033 A 
ATOM     15  C   UNL     1       1.858  -2.843   0.894  0.00  0.00    +0.023 A 
ATOM     16  C   UNL     1       1.040  -3.859   1.347  0.00  0.00    +0.002 A 
ATOM     17  C   UNL     1       1.065  -5.096   0.731  0.00  0.00    +0.000 A 
ATOM     18  C   UNL     1       1.910  -5.321  -0.341  0.00  0.00    +0.002 A 
ATOM     19  C   UNL     1       2.727  -4.307  -0.803  0.00  0.00    +0.023 A 
ENDBRANCH   5  14
BRANCH   4  20
ATOM     20  S   UNL     1       5.452  -3.729  -1.556  0.00  0.00    -0.117 S 
BRANCH  20  21
ATOM     21  C   UNL     1       6.075  -3.750   0.147  0.00  0.00    +0.105 C 
BRANCH  21  22
ATOM     22  C   UNL     1       6.830  -5.032   0.390  0.00  0.00    -0.032 C 
ATOM     23  C   UNL     1       8.165  -5.221   0.287  0.00  0.00    -0.000 A 
ATOM     24  C   UNL     1       9.272  -4.325  -0.069  0.00  0.00    +0.010 A 
ATOM     25  C   UNL     1      10.533  -4.814  -0.086  0.00  0.00    +0.001 A 
ATOM     26  C   UNL     1      10.808  -6.153   0.225  0.00  0.00    +0.002 A 
ATOM     27  C   UNL     1       9.845  -7.037   0.561  0.00  0.00    +0.026 A 
ATOM     28  C   UNL     1       8.483  -6.630   0.612  0.00  0.00    +0.043 A 
ATOM     29  N   UNL     1       7.386  -7.286   0.904  0.00  0.00    -0.380 N 
ATOM     30  C   UNL     1       6.249  -6.365   0.803  0.00  0.00    +0.145 C 
ATOM     31  H   UNL     1       7.336  -8.223   1.150  0.00  0.00    +0.160 HD
ENDBRANCH  21  22
ENDBRANCH  20  21
ENDBRANCH   4  20
TORSDOF 5
