REMARK  Name = ZINC58228211
REMARK  7 active torsions:
REMARK  status: ('A' for Active; 'I' for Inactive)
REMARK    1  A    between atoms: C_1  and  N_2
REMARK    2  A    between atoms: C_3  and  C_5
REMARK    3  A    between atoms: C_10  and  N_11
REMARK    4  A    between atoms: C_12  and  C_14
REMARK    5  A    between atoms: C_18  and  O_20
REMARK    6  A    between atoms: O_20  and  C_21
REMARK    7  A    between atoms: C_21  and  C_22
REMARK                            x       y       z     vdW  Elec       q    Type
REMARK                         _______ _______ _______ _____ _____    ______ ____
ROOT
ATOM      1  N   UNL     1       1.657  -2.221  -3.265  0.00  0.00    -0.281 N 
ATOM      2  C   UNL     1       2.049  -2.929  -4.342  0.00  0.00    +0.248 C 
ATOM      3  O   UNL     1       1.869  -4.131  -4.378  0.00  0.00    -0.270 OA
ATOM      4  H   UNL     1       1.730  -1.254  -3.267  0.00  0.00    +0.155 HD
ENDROOT
BRANCH   1  10
ATOM      5  C   UNL     1       0.128  -2.286  -1.387  0.00  0.00    +0.059 A 
ATOM      6  C   UNL     1      -0.380  -2.957  -0.272  0.00  0.00    +0.035 A 
ATOM      7  C   UNL     1       0.126  -4.192   0.076  0.00  0.00    +0.042 A 
ATOM      8  C   UNL     1       1.136  -4.772  -0.676  0.00  0.00    +0.022 A 
ATOM      9  C   UNL     1       1.647  -4.120  -1.780  0.00  0.00    +0.025 A 
ATOM     10  C   UNL     1       1.147  -2.878  -2.148  0.00  0.00    +0.046 A 
ATOM     11 CL   UNL     1      -0.506  -5.025   1.462  0.00  0.00    -0.084 Cl
BRANCH   5  14
ATOM     12  C   UNL     1      -1.986   0.869  -1.467  0.00  0.00    +0.128 C 
ATOM     13  N   UNL     1      -1.454  -0.444  -1.092  0.00  0.00    -0.314 N 
ATOM     14  C   UNL     1      -0.408  -0.964  -1.764  0.00  0.00    +0.246 C 
ATOM     15  O   UNL     1       0.094  -0.345  -2.683  0.00  0.00    -0.270 OA
ATOM     16  H   UNL     1      -1.854  -0.938  -0.359  0.00  0.00    +0.149 HD
ENDBRANCH   5  14
ENDBRANCH   1  10
BRANCH   2  17
ATOM     17  C   UNL     1       2.698  -2.245  -5.480  0.00  0.00    +0.040 A 
ATOM     18  C   UNL     1       2.912  -0.866  -5.439  0.00  0.00    +0.013 A 
ATOM     19  C   UNL     1       3.518  -0.230  -6.503  0.00  0.00    +0.004 A 
ATOM     20  C   UNL     1       3.915  -0.955  -7.612  0.00  0.00    +0.046 A 
ATOM     21  C   UNL     1       3.707  -2.326  -7.662  0.00  0.00    +0.122 A 
ATOM     22  C   UNL     1       3.105  -2.975  -6.597  0.00  0.00    +0.058 A 
BRANCH  21  23
ATOM     23  O   UNL     1       4.099  -3.033  -8.755  0.00  0.00    -0.483 OA
BRANCH  23  24
ATOM     24  C   UNL     1       4.718  -2.300  -9.813  0.00  0.00    +0.324 C 
BRANCH  24  25
ATOM     25  C   UNL     1       5.082  -3.243 -10.931  0.00  0.00    +0.248 C 
ATOM     26  O   UNL     1       4.835  -4.426 -10.831  0.00  0.00    -0.272 OA
ATOM     27  N   UNL     1       5.682  -2.772 -12.042  0.00  0.00    -0.327 N 
ATOM     28  H   UNL     1       5.880  -1.826 -12.122  0.00  0.00    +0.145 HD
ATOM     29  H   UNL     1       5.916  -3.379 -12.762  0.00  0.00    +0.145 HD
ENDBRANCH  24  25
ENDBRANCH  23  24
ENDBRANCH  21  23
ENDBRANCH   2  17
TORSDOF 6
