REMARK  Name = ZINC09805432
REMARK  14 active torsions:
REMARK  status: ('A' for Active; 'I' for Inactive)
REMARK    1  A    between atoms: C_1  and  C_2
REMARK    2  A    between atoms: C_8  and  C_9
REMARK    3  A    between atoms: C_8  and  N_78
REMARK    4  A    between atoms: N_11  and  C_12
REMARK    5  A    between atoms: C_13  and  C_26
REMARK    6  A    between atoms: C_18  and  C_22
REMARK    7  A    between atoms: C_22  and  C_23
REMARK    8  A    between atoms: C_22  and  C_24
REMARK    9  A    between atoms: C_22  and  C_25
REMARK   10  A    between atoms: N_28  and  C_29
REMARK   11  A    between atoms: C_32  and  O_37
REMARK   12  A    between atoms: C_34  and  O_35
REMARK   13  A    between atoms: O_35  and  C_36
REMARK   14  A    between atoms: O_37  and  C_38
REMARK                            x       y       z     vdW  Elec       q    Type
REMARK                         _______ _______ _______ _____ _____    ______ ____
ROOT
ATOM      1  C   UNL     1      -4.316   6.137   1.522  0.00  0.00    +0.084 A 
ATOM      2  C   UNL     1      -3.751   5.887   0.279  0.00  0.00    +0.069 A 
ATOM      3  C   UNL     1      -4.474   6.351  -0.893  0.00  0.00    -0.023 A 
ATOM      4  C   UNL     1      -5.636   6.991  -0.636  0.00  0.00    -0.004 A 
ATOM      5  S   UNL     1      -5.776   6.983   1.129  0.00  0.00    -0.077 S 
ATOM      6  C   UNL     1      -6.586   7.574  -1.636  0.00  0.00    +0.046 C 
ATOM      7  C   UNL     1      -5.866   7.669  -2.989  0.00  0.00    -0.000 C 
ATOM      8  C   UNL     1      -5.173   6.333  -3.275  0.00  0.00    +0.009 C 
ATOM      9  C   UNL     1      -3.990   6.147  -2.323  0.00  0.00    +0.037 C 
ENDROOT
BRANCH   1  12
ATOM     10  C   UNL     1      -4.524   6.124   3.881  0.00  0.00    +0.201 C 
ATOM     11  O   UNL     1      -5.575   6.721   3.781  0.00  0.00    -0.278 OA
ATOM     12  N   UNL     1      -3.829   5.794   2.774  0.00  0.00    -0.281 N 
ATOM     13  H   UNL     1      -2.989   5.317   2.854  0.00  0.00    +0.155 HD
BRANCH  10  14
ATOM     14  C   UNL     1      -3.995   5.752   5.242  0.00  0.00    +0.019 C 
BRANCH  14  21
ATOM     15  C   UNL     1      -6.205   9.655   7.261  0.00  0.00    +0.005 C 
ATOM     16  C   UNL     1      -5.983   8.145   7.363  0.00  0.00    -0.031 C 
ATOM     17  C   UNL     1      -7.335   7.426   7.322  0.00  0.00    -0.001 C 
ATOM     18  C   UNL     1      -7.100   5.913   7.366  0.00  0.00    -0.018 C 
ATOM     19  C   UNL     1      -6.209   5.506   6.190  0.00  0.00    -0.078 C 
ATOM     20  C   UNL     1      -5.124   7.673   6.188  0.00  0.00    -0.075 C 
ATOM     21  N   UNL     1      -4.916   6.214   6.301  0.00  0.00    +0.386 N 
ATOM     22  H   UNL     1      -4.500   6.007   7.217  0.00  0.00    -0.081 HD
ENDBRANCH  14  21
ENDBRANCH  10  14
ENDBRANCH   1  12
BRANCH   7  23
ATOM     23  C   UNL     1      -6.884   7.965  -4.092  0.00  0.00    -0.035 C 
ATOM     24  C   UNL     1      -7.930   6.848  -4.134  0.00  0.00    +0.011 C 
ATOM     25  C   UNL     1      -7.575   9.300  -3.805  0.00  0.00    +0.011 C 
ATOM     26  C   UNL     1      -6.167   8.042  -5.441  0.00  0.00    +0.011 C 
ENDBRANCH   7  23
BRANCH   2  27
ATOM     27  C   UNL     1      -2.475   5.177   0.153  0.00  0.00    +0.251 C 
ATOM     28  O   UNL     1      -1.429   5.800   0.146  0.00  0.00    -0.270 OA
ATOM     29  N   UNL     1      -2.459   3.833   0.045  0.00  0.00    -0.278 N 
ATOM     30  H   UNL     1      -3.293   3.342  -0.014  0.00  0.00    +0.155 HD
BRANCH  29  31
ATOM     31  C   UNL     1      -1.237   3.146   0.019  0.00  0.00    +0.076 A 
ATOM     32  C   UNL     1      -0.132   3.718  -0.594  0.00  0.00    +0.030 A 
ATOM     33  C   UNL     1       1.073   3.041  -0.620  0.00  0.00    +0.047 A 
ATOM     34  C   UNL     1       1.179   1.788  -0.034  0.00  0.00    +0.124 A 
ATOM     35  C   UNL     1       0.077   1.212   0.580  0.00  0.00    +0.093 A 
ATOM     36  C   UNL     1      -1.133   1.886   0.603  0.00  0.00    +0.145 A 
BRANCH  36  37
ATOM     37  O   UNL     1      -2.216   1.320   1.199  0.00  0.00    -0.493 OA
ATOM     38  C   UNL     1      -2.035   0.028   1.781  0.00  0.00    +0.277 C 
ENDBRANCH  36  37
BRANCH  34  39
ATOM     39  O   UNL     1       2.366   1.125  -0.061  0.00  0.00    -0.495 OA
ATOM     40  C   UNL     1       3.459   1.777  -0.709  0.00  0.00    +0.277 C 
ENDBRANCH  34  39
ENDBRANCH  29  31
ENDBRANCH   2  27
TORSDOF 8
