REMARK  Name = ZINC00625749
REMARK  7 active torsions:
REMARK  status: ('A' for Active; 'I' for Inactive)
REMARK    1  A    between atoms: C_1  and  C_2
REMARK    2  A    between atoms: C_3  and  C_17
REMARK    3  A    between atoms: C_4  and  C_10
REMARK    4  A    between atoms: C_15  and  O_16
REMARK    5  A    between atoms: N_19  and  C_20
REMARK    6  A    between atoms: C_25  and  O_26
REMARK    7  A    between atoms: O_26  and  C_27
REMARK                            x       y       z     vdW  Elec       q    Type
REMARK                         _______ _______ _______ _____ _____    ______ ____
ROOT
ATOM      1  C   UNL     1      -4.160   3.877   6.606  0.00  0.00    +0.061 C 
ATOM      2  C   UNL     1      -2.682   4.101   6.414  0.00  0.00    +0.019 C 
ATOM      3  C   UNL     1      -2.087   3.669   5.283  0.00  0.00    +0.056 C 
ATOM      4  C   UNL     1      -0.598   3.909   5.133  0.00  0.00    +0.145 C 
ATOM      5  N   UNL     1       0.080   4.609   6.237  0.00  0.00    -0.288 N 
ATOM      6  C   UNL     1      -0.651   4.979   7.307  0.00  0.00    +0.304 C 
ATOM      7  O   UNL     1      -0.100   5.553   8.226  0.00  0.00    -0.252 OA
ATOM      8  N   UNL     1      -1.966   4.737   7.389  0.00  0.00    -0.273 N 
ATOM      9  H   UNL     1       1.031   4.794   6.198  0.00  0.00    +0.151 HD
ATOM     10  H   UNL     1      -2.436   5.029   8.186  0.00  0.00    +0.156 HD
ENDROOT
BRANCH   4  11
ATOM     11  C   UNL     1       0.071   2.572   4.943  0.00  0.00    +0.019 A 
ATOM     12  C   UNL     1       0.627   1.917   6.026  0.00  0.00    +0.009 A 
ATOM     13  C   UNL     1       1.241   0.691   5.852  0.00  0.00    +0.001 A 
ATOM     14  C   UNL     1       1.300   0.116   4.596  0.00  0.00    +0.004 A 
ATOM     15  C   UNL     1       0.744   0.766   3.511  0.00  0.00    +0.046 A 
ATOM     16  C   UNL     1       0.124   1.995   3.683  0.00  0.00    +0.122 A 
BRANCH  16  17
ATOM     17  O   UNL     1      -0.427   2.634   2.618  0.00  0.00    -0.506 OA
ATOM     18  H   UNL     1       0.182   3.225   2.156  0.00  0.00    +0.292 HD
ENDBRANCH  16  17
ENDBRANCH   4  11
BRANCH   3  19
ATOM     19  C   UNL     1      -2.828   3.009   4.272  0.00  0.00    +0.248 C 
ATOM     20  O   UNL     1      -3.195   3.623   3.287  0.00  0.00    -0.270 OA
ATOM     21  N   UNL     1      -3.127   1.701   4.401  0.00  0.00    -0.279 N 
ATOM     22  H   UNL     1      -2.856   1.218   5.198  0.00  0.00    +0.155 HD
BRANCH  21  23
ATOM     23  C   UNL     1      -3.828   1.039   3.385  0.00  0.00    +0.076 A 
ATOM     24  C   UNL     1      -4.669   1.752   2.543  0.00  0.00    +0.027 A 
ATOM     25  C   UNL     1      -5.364   1.095   1.545  0.00  0.00    +0.002 A 
ATOM     26  C   UNL     1      -5.219  -0.270   1.379  0.00  0.00    +0.004 A 
ATOM     27  C   UNL     1      -4.378  -0.985   2.211  0.00  0.00    +0.047 A 
ATOM     28  C   UNL     1      -3.678  -0.335   3.214  0.00  0.00    +0.141 A 
BRANCH  28  29
ATOM     29  O   UNL     1      -2.850  -1.038   4.033  0.00  0.00    -0.493 OA
ATOM     30  C   UNL     1      -2.751  -2.445   3.802  0.00  0.00    +0.277 C 
ENDBRANCH  28  29
ENDBRANCH  21  23
ENDBRANCH   3  19
TORSDOF 5
