REMARK  Name = ZINC06093671
REMARK  6 active torsions:
REMARK  status: ('A' for Active; 'I' for Inactive)
REMARK    1  A    between atoms: C_4  and  N_7
REMARK    2  A    between atoms: N_7  and  S_8
REMARK    3  A    between atoms: S_8  and  C_11
REMARK    4  A    between atoms: C_14  and  C_17
REMARK    5  A    between atoms: C_20  and  C_22
REMARK    6  A    between atoms: N_23  and  N_24
REMARK                            x       y       z     vdW  Elec       q    Type
REMARK                         _______ _______ _______ _____ _____    ______ ____
ROOT
ATOM      1  C   UNL     1       5.187  -2.820  -0.063  0.00  0.00    +0.111 A 
ATOM      2  C   UNL     1       5.836  -3.011  -1.270  0.00  0.00    +0.029 A 
ATOM      3  C   UNL     1       7.154  -3.418  -1.292  0.00  0.00    +0.013 A 
ATOM      4  C   UNL     1       7.834  -3.636  -0.092  0.00  0.00    +0.017 A 
ATOM      5  C   UNL     1       7.173  -3.442   1.123  0.00  0.00    +0.013 A 
ATOM      6  C   UNL     1       5.857  -3.030   1.130  0.00  0.00    +0.029 A 
ENDROOT
BRANCH   4   7
ATOM      7  C   UNL     1       9.244  -4.072  -0.108  0.00  0.00    +0.136 A 
ATOM      8  C   UNL     1      10.011  -4.322   0.991  0.00  0.00    +0.050 A 
ATOM      9  C   UNL     1      11.277  -4.708   0.530  0.00  0.00    +0.051 A 
ATOM     10  C   UNL     1      11.226  -4.676  -0.846  0.00  0.00    +0.148 A 
ATOM     11  O   UNL     1       9.985  -4.293  -1.211  0.00  0.00    -0.454 OA
BRANCH  10  12
ATOM     12  C   UNL     1      12.326  -5.005  -1.755  0.00  0.00    +0.178 C 
ATOM     13  N   UNL     1      12.149  -4.934  -3.043  0.00  0.00    -0.177 NA
BRANCH  13  14
ATOM     14  N   UNL     1      13.202  -5.249  -3.913  0.00  0.00    -0.258 N 
ATOM     15  C   UNL     1      13.016  -5.176  -5.265  0.00  0.00    +0.156 C 
ATOM     16  N   UNL     1      11.803  -4.794  -5.769  0.00  0.00    -0.338 N 
ATOM     17  S   UNL     1      14.263  -5.548  -6.295  0.00  0.00    -0.015 SA
ATOM     18  H   UNL     1      11.075  -4.576  -5.167  0.00  0.00    +0.144 HD
ATOM     19  H   UNL     1      11.671  -4.742  -6.729  0.00  0.00    +0.144 HD
ATOM     20  H   UNL     1      14.062  -5.520  -3.555  0.00  0.00    +0.191 HD
ENDBRANCH  13  14
ENDBRANCH  10  12
ENDBRANCH   4   7
BRANCH   1  21
ATOM     21  S   UNL     1       3.504  -2.301  -0.044  0.00  0.00    +0.094 S 
ATOM     22  O   UNL     1       2.965  -2.714   1.205  0.00  0.00    -0.148 OA
ATOM     23  O   UNL     1       2.942  -2.701  -1.286  0.00  0.00    -0.148 OA
BRANCH  21  24
ATOM     24  N   UNL     1       3.502  -0.645  -0.035  0.00  0.00    -0.058 NA
BRANCH  24  28
ATOM     25  C   UNL     1      -0.017   1.382   0.010  0.00  0.00    +0.039 A 
ATOM     26  C   UNL     1       1.192   2.061   0.002  0.00  0.00    +0.116 A 
ATOM     27  N   UNL     1       2.320   1.371  -0.013  0.00  0.00    -0.220 NA
ATOM     28  C   UNL     1       2.303   0.046  -0.020  0.00  0.00    +0.257 A 
ATOM     29  N   UNL     1       1.165  -0.633  -0.013  0.00  0.00    -0.220 NA
ATOM     30  C   UNL     1       0.002  -0.004   0.002  0.00  0.00    +0.116 A 
ENDBRANCH  24  28
ENDBRANCH  21  24
ENDBRANCH   1  21
TORSDOF 6
