REMARK  Name = ZINC00818619
REMARK  9 active torsions:
REMARK  status: ('A' for Active; 'I' for Inactive)
REMARK    1  A    between atoms: C_1  and  C_2
REMARK    2  A    between atoms: C_2  and  C_28
REMARK    3  A    between atoms: C_6  and  C_14
REMARK    4  A    between atoms: C_8  and  C_12
REMARK    5  A    between atoms: C_9  and  N_11
REMARK    6  A    between atoms: C_17  and  O_22
REMARK    7  A    between atoms: C_19  and  O_20
REMARK    8  A    between atoms: O_20  and  C_21
REMARK    9  A    between atoms: O_22  and  C_23
REMARK                            x       y       z     vdW  Elec       q    Type
REMARK                         _______ _______ _______ _____ _____    ______ ____
ROOT
ATOM      1  C   UNL     1      -2.010  -4.485  -3.469  0.00  0.00    +0.012 C 
ATOM      2  C   UNL     1      -2.812  -5.060  -2.300  0.00  0.00    -0.021 C 
ATOM      3  C   UNL     1      -1.891  -5.888  -1.402  0.00  0.00    +0.081 C 
ATOM      4  C   UNL     1      -0.798  -5.006  -0.844  0.00  0.00    +0.115 C 
ATOM      5  C   UNL     1      -1.026  -3.702  -0.602  0.00  0.00    +0.046 C 
ATOM      6  C   UNL     1       0.060  -2.826  -0.025  0.00  0.00    +0.105 C 
ATOM      7  C   UNL     1       1.130  -3.676   0.602  0.00  0.00    +0.098 C 
ATOM      8  C   UNL     1       1.236  -4.989   0.284  0.00  0.00    +0.198 C 
ATOM      9  O   UNL     1       0.400  -5.566  -0.594  0.00  0.00    -0.445 OA
ATOM     10  C   UNL     1      -2.275  -3.113  -0.877  0.00  0.00    +0.164 C 
ATOM     11  O   UNL     1      -2.446  -1.936  -0.633  0.00  0.00    -0.292 OA
ATOM     12  C   UNL     1      -3.402  -3.916  -1.468  0.00  0.00    +0.086 C 
ATOM     13  C   UNL     1      -3.938  -5.946  -2.836  0.00  0.00    +0.012 C 
ENDROOT
BRANCH   6  14
ATOM     14  C   UNL     1       0.666  -1.992  -1.124  0.00  0.00    +0.008 A 
ATOM     15  C   UNL     1       1.275  -2.606  -2.202  0.00  0.00    +0.027 A 
ATOM     16  C   UNL     1       1.836  -1.843  -3.209  0.00  0.00    +0.060 A 
ATOM     17  C   UNL     1       1.783  -0.457  -3.142  0.00  0.00    +0.137 A 
ATOM     18  C   UNL     1       1.167   0.161  -2.064  0.00  0.00    +0.092 A 
ATOM     19  C   UNL     1       0.606  -0.607  -1.056  0.00  0.00    +0.128 A 
ATOM     20 BR   UNL     1       2.675  -2.686  -4.678  0.00  0.00    -0.047 Br
BRANCH  19  21
ATOM     21  O   UNL     1       0.002  -0.004   0.002  0.00  0.00    -0.495 OA
ATOM     22  C   UNL     1      -0.017   1.425   0.010  0.00  0.00    +0.277 C 
ENDBRANCH  19  21
BRANCH  17  23
ATOM     23  O   UNL     1       2.334   0.294  -4.132  0.00  0.00    -0.494 OA
ATOM     24  C   UNL     1       2.242   1.713  -3.998  0.00  0.00    +0.277 C 
ENDBRANCH  17  23
ENDBRANCH   6  14
BRANCH   8  25
ATOM     25  N   UNL     1       2.218  -5.746   0.873  0.00  0.00    -0.328 N 
ATOM     26  H   UNL     1       2.827  -5.340   1.510  0.00  0.00    +0.145 HD
ATOM     27  H   UNL     1       2.303  -6.687   0.653  0.00  0.00    +0.145 HD
ENDBRANCH   8  25
BRANCH   7  28
ATOM     28  C   UNL     1       2.042  -3.095   1.540  0.00  0.00    +0.101 C 
ATOM     29  N   UNL     1       2.766  -2.634   2.284  0.00  0.00    -0.191 NA
ENDBRANCH   7  28
TORSDOF 5
