REMARK  Name = ZINC32181191
REMARK  9 active torsions:
REMARK  status: ('A' for Active; 'I' for Inactive)
REMARK    1  A    between atoms: C_1  and  C_2
REMARK    2  A    between atoms: C_5  and  C_23
REMARK    3  A    between atoms: C_6  and  O_9
REMARK    4  A    between atoms: C_7  and  C_8
REMARK    5  A    between atoms: O_9  and  C_10
REMARK    6  A    between atoms: C_13  and  N_16
REMARK    7  A    between atoms: C_17  and  C_19
REMARK    8  A    between atoms: C_19  and  C_21
REMARK    9  A    between atoms: C_19  and  N_22
REMARK                            x       y       z     vdW  Elec       q    Type
REMARK                         _______ _______ _______ _____ _____    ______ ____
ROOT
ATOM      1  C   UNL     1       2.377   1.419   0.004  0.00  0.00    +0.129 A 
ATOM      2  C   UNL     1       1.173   2.082   0.193  0.00  0.00    +0.048 A 
ATOM      3  C   UNL     1      -0.013   1.374   0.195  0.00  0.00    +0.027 A 
ATOM      4  C   UNL     1       0.001  -0.002   0.007  0.00  0.00    +0.034 A 
ATOM      5  C   UNL     1       1.206  -0.665  -0.182  0.00  0.00    +0.027 A 
ATOM      6  C   UNL     1       2.391   0.045  -0.184  0.00  0.00    +0.048 A 
ENDROOT
BRANCH   4   7
ATOM      7  N   UNL     1      -1.201  -0.721   0.010  0.00  0.00    -0.287 N 
ATOM      8  C   UNL     1      -2.327  -0.155  -0.469  0.00  0.00    +0.202 C 
ATOM      9  O   UNL     1      -2.280   0.940  -0.990  0.00  0.00    -0.277 OA
ATOM     10  H   UNL     1      -1.227  -1.748   0.403  0.00  0.00    +0.155 HD
BRANCH   8  11
ATOM     11  C   UNL     1      -3.642  -0.881  -0.358  0.00  0.00    +0.010 C 
ATOM     12  C   UNL     1      -3.958  -1.142   1.117  0.00  0.00    -0.005 C 
BRANCH  11  13
ATOM     13  N   UNL     1      -4.707  -0.060  -0.949  0.00  0.00    +0.385 N 
ATOM     14  H   UNL     1      -5.667  -0.590  -0.868  0.00  0.00    -0.089 HD
ATOM     15  H   UNL     1      -4.480   0.127  -2.009  0.00  0.00    -0.089 HD
ATOM     16  H   UNL     1      -4.771   0.898  -0.413  0.00  0.00    -0.089 HD
ENDBRANCH  11  13
ENDBRANCH   8  11
ENDBRANCH   4   7
BRANCH   1  17
ATOM     17  O   UNL     1       3.544   2.117   0.002  0.00  0.00    -0.455 OA
BRANCH  17  23
ATOM     18  C   UNL     1       3.560   5.928   3.053  0.00  0.00    +0.044 C 
ATOM     19  C   UNL     1       3.488   5.355   1.660  0.00  0.00    -0.044 A 
ATOM     20  C   UNL     1       3.360   6.199   0.572  0.00  0.00    +0.004 A 
ATOM     21  C   UNL     1       3.292   5.677  -0.706  0.00  0.00    +0.007 A 
ATOM     22  C   UNL     1       3.360   4.311  -0.900  0.00  0.00    -0.008 A 
ATOM     23  C   UNL     1       3.483   3.462   0.190  0.00  0.00    +0.134 A 
ATOM     24  C   UNL     1       3.550   3.988   1.472  0.00  0.00    -0.005 A 
ATOM     25  C   UNL     1       3.690   3.069   2.659  0.00  0.00    +0.048 C 
ATOM     26  C   UNL     1       3.293   3.743  -2.295  0.00  0.00    +0.047 C 
ENDBRANCH  17  23
ENDBRANCH   1  17
TORSDOF 5
