REMARK  Name = ZINC22309906
REMARK  10 active torsions:
REMARK  status: ('A' for Active; 'I' for Inactive)
REMARK    1  A    between atoms: C_1  and  C_2
REMARK    2  A    between atoms: C_2  and  N_3
REMARK    3  A    between atoms: C_7  and  C_9
REMARK    4  A    between atoms: C_9  and  C_11
REMARK    5  A    between atoms: C_9  and  S_12
REMARK    6  A    between atoms: S_12  and  C_13
REMARK    7  A    between atoms: C_17  and  S_24
REMARK    8  A    between atoms: N_21  and  C_22
REMARK    9  A    between atoms: C_22  and  C_23
REMARK   10  A    between atoms: S_24  and  N_27
REMARK                            x       y       z     vdW  Elec       q    Type
REMARK                         _______ _______ _______ _____ _____    ______ ____
ROOT
ATOM      1  C   UNL     1      -5.141   0.755   0.658  0.00  0.00    +0.171 A 
ATOM      2  N   UNL     1      -5.044  -0.508   0.323  0.00  0.00    -0.222 NA
ATOM      3  C   UNL     1      -6.251  -1.114   0.475  0.00  0.00    +0.092 A 
ATOM      4  C   UNL     1      -6.702  -2.420   0.266  0.00  0.00    +0.058 A 
ATOM      5  C   UNL     1      -8.019  -2.736   0.516  0.00  0.00    +0.107 A 
ATOM      6  C   UNL     1      -8.901  -1.769   0.975  0.00  0.00    +0.030 A 
ATOM      7  C   UNL     1      -8.471  -0.475   1.185  0.00  0.00    +0.030 A 
ATOM      8  C   UNL     1      -7.149  -0.138   0.939  0.00  0.00    +0.070 A 
ATOM      9  N   UNL     1      -6.419   1.034   1.051  0.00  0.00    -0.319 N 
ENDROOT
BRANCH   5  10
ATOM     10  S   UNL     1      -8.587  -4.383   0.253  0.00  0.00    +0.056 S 
ATOM     11  O   UNL     1      -9.989  -4.300   0.040  0.00  0.00    -0.153 OA
ATOM     12  O   UNL     1      -7.706  -4.971  -0.694  0.00  0.00    -0.153 OA
BRANCH  10  13
ATOM     13  N   UNL     1      -8.373  -5.208   1.673  0.00  0.00    -0.204 NA
ATOM     14  H   UNL     1      -8.717  -6.246   1.550  0.00  0.00    +0.144 HD
ATOM     15  H   UNL     1      -8.953  -4.721   2.471  0.00  0.00    +0.144 HD
ENDBRANCH  10  13
ENDBRANCH   5  10
BRANCH   9  16
ATOM     16  C   UNL     1      -6.925   2.332   1.505  0.00  0.00    +0.121 C 
ATOM     17  C   UNL     1      -7.446   3.125   0.304  0.00  0.00    +0.027 C 
ENDBRANCH   9  16
BRANCH   1  18
ATOM     18  S   UNL     1      -3.818   1.918   0.614  0.00  0.00    -0.075 S 
BRANCH  18  19
ATOM     19  C   UNL     1      -2.482   0.853   0.018  0.00  0.00    +0.137 C 
ATOM     20  C   UNL     1      -2.799   0.384  -1.403  0.00  0.00    +0.029 C 
BRANCH  19  25
ATOM     21  N   UNL     1       2.323   0.998  -0.015  0.00  0.00    -0.299 N 
ATOM     22  C   UNL     1       1.147   1.655   0.000  0.00  0.00    +0.306 C 
ATOM     23  O   UNL     1       1.130   2.871   0.007  0.00  0.00    -0.252 OA
ATOM     24  N   UNL     1      -0.011   0.966   0.007  0.00  0.00    -0.239 N 
ATOM     25  C   UNL     1      -1.187   1.624   0.017  0.00  0.00    +0.233 C 
ATOM     26  O   UNL     1      -1.204   2.836   0.023  0.00  0.00    -0.274 OA
ATOM     27  H   UNL     1       2.338  -0.102  -0.021  0.00  0.00    +0.150 HD
ATOM     28  H   UNL     1       0.004  -0.134   0.006  0.00  0.00    +0.159 HD
BRANCH  21  30
ATOM     29  C   UNL     1       4.758   0.769  -0.039  0.00  0.00    +0.024 C 
ATOM     30  C   UNL     1       3.582   1.747  -0.023  0.00  0.00    +0.102 C 
ENDBRANCH  21  30
ENDBRANCH  19  25
ENDBRANCH  18  19
ENDBRANCH   1  18
TORSDOF 7
