REMARK  Name = ZINC37049563
REMARK  9 active torsions:
REMARK  status: ('A' for Active; 'I' for Inactive)
REMARK    1  A    between atoms: C_1  and  C_2
REMARK    2  A    between atoms: C_2  and  C_3
REMARK    3  A    between atoms: C_3  and  C_5
REMARK    4  A    between atoms: C_3  and  N_8
REMARK    5  A    between atoms: C_5  and  C_6
REMARK    6  A    between atoms: C_6  and  N_7
REMARK    7  A    between atoms: N_11  and  C_14
REMARK    8  A    between atoms: C_14  and  C_16
REMARK    9  A    between atoms: C_14  and  C_17
REMARK                            x       y       z     vdW  Elec       q    Type
REMARK                         _______ _______ _______ _____ _____    ______ ____
ROOT
ATOM      1  N   UNL     1      -2.238  -0.271   1.312  0.00  0.00    +0.383 N 
ATOM      2  C   UNL     1      -2.312   1.159   1.638  0.00  0.00    -0.063 C 
ATOM      3  C   UNL     1      -3.110   1.346   2.931  0.00  0.00    +0.066 C 
ATOM      4  N   UNL     1      -4.461   0.796   2.753  0.00  0.00    -0.295 NA
ATOM      5  C   UNL     1      -4.402  -0.630   2.401  0.00  0.00    +0.066 C 
ATOM      6  C   UNL     1      -3.594  -0.801   1.113  0.00  0.00    -0.063 C 
ATOM      7  H   UNL     1      -1.792  -0.766   2.069  0.00  0.00    -0.081 HD
ENDROOT
BRANCH   4   8
ATOM      8  C   UNL     1      -5.278   1.008   3.956  0.00  0.00    +0.140 C 
ATOM      9  C   UNL     1      -4.687   0.212   5.121  0.00  0.00    +0.034 C 
BRANCH   8  10
ATOM     10  C   UNL     1      -6.688   0.543   3.694  0.00  0.00    +0.237 C 
ATOM     11  O   UNL     1      -6.982   0.081   2.613  0.00  0.00    -0.274 OA
ATOM     12  N   UNL     1      -7.620   0.641   4.662  0.00  0.00    -0.239 N 
ATOM     13  C   UNL     1      -8.881   0.226   4.428  0.00  0.00    +0.303 C 
ATOM     14  O   UNL     1      -9.176  -0.237   3.344  0.00  0.00    -0.253 OA
ATOM     15  N   UNL     1      -9.813   0.324   5.396  0.00  0.00    -0.313 N 
ATOM     16  H   UNL     1      -7.384   1.011   5.527  0.00  0.00    +0.159 HD
ATOM     17  H   UNL     1      -9.577   0.694   6.261  0.00  0.00    +0.146 HD
ATOM     18  H   UNL     1     -10.721   0.025   5.227  0.00  0.00    +0.146 HD
ENDBRANCH   8  10
ENDBRANCH   4   8
BRANCH   1  19
ATOM     19  C   UNL     1      -1.457  -0.452   0.081  0.00  0.00    -0.071 C 
BRANCH  19  21
ATOM     20  C   UNL     1      -3.109  -0.708  -1.776  0.00  0.00    +0.002 C 
ATOM     21  C   UNL     1      -2.156   0.263  -1.077  0.00  0.00    -0.019 C 
ENDBRANCH  19  21
BRANCH  19  22
ATOM     22  C   UNL     1      -0.058   0.136   0.274  0.00  0.00    -0.035 C 
BRANCH  22  23
ATOM     23  C   UNL     1       0.675  -0.641   1.369  0.00  0.00    -0.088 C 
BRANCH  23  24
ATOM     24  N   UNL     1       1.978  -0.013   1.627  0.00  0.00    +0.378 N 
ATOM     25  H   UNL     1       1.838   0.941   1.926  0.00  0.00    -0.090 HD
ATOM     26  H   UNL     1       2.461  -0.524   2.349  0.00  0.00    -0.090 HD
ATOM     27  H   UNL     1       2.529  -0.022   0.781  0.00  0.00    -0.090 HD
ENDBRANCH  23  24
ENDBRANCH  22  23
ENDBRANCH  19  22
ENDBRANCH   1  19
TORSDOF 7
