REMARK  Name = ZINC39748361
REMARK  8 active torsions:
REMARK  status: ('A' for Active; 'I' for Inactive)
REMARK    1  A    between atoms: C_1  and  C_2
REMARK    2  A    between atoms: C_10  and  C_11
REMARK    3  A    between atoms: C_14  and  S_19
REMARK    4  A    between atoms: N_15  and  C_16
REMARK    5  A    between atoms: C_16  and  C_17
REMARK    6  A    between atoms: S_19  and  C_20
REMARK    7  A    between atoms: C_20  and  C_21
REMARK    8  A    between atoms: N_23  and  C_24
REMARK                            x       y       z     vdW  Elec       q    Type
REMARK                         _______ _______ _______ _____ _____    ______ ____
ROOT
ATOM      1  C   UNL     1       0.088  -0.383   2.485  0.00  0.00    +0.201 A 
ATOM      2  N   UNL     1       0.067   0.861   2.910  0.00  0.00    -0.125 NA
ATOM      3  N   UNL     1       0.072   0.885   4.195  0.00  0.00    -0.122 NA
ATOM      4  C   UNL     1       0.095  -0.340   4.670  0.00  0.00    +0.193 A 
ATOM      5  N   UNL     1       0.101  -1.190   3.601  0.00  0.00    -0.296 N 
ENDROOT
BRANCH   1  15
ATOM      6  C   UNL     1       0.057   1.500   0.010  0.00  0.00    +0.048 C 
ATOM      7  C   UNL     1       0.077  -0.006   0.002  0.00  0.00    +0.006 A 
ATOM      8  C   UNL     1       0.093  -0.880  -1.172  0.00  0.00    +0.024 A 
ATOM      9  C   UNL     1       0.094  -0.658  -2.550  0.00  0.00    +0.012 A 
ATOM     10  C   UNL     1       0.111  -1.723  -3.408  0.00  0.00    +0.001 A 
ATOM     11  C   UNL     1       0.126  -3.021  -2.917  0.00  0.00    +0.004 A 
ATOM     12  C   UNL     1       0.125  -3.260  -1.559  0.00  0.00    +0.047 A 
ATOM     13  C   UNL     1       0.108  -2.194  -0.669  0.00  0.00    +0.136 A 
ATOM     14  O   UNL     1       0.102  -2.114   0.677  0.00  0.00    -0.451 OA
ATOM     15  C   UNL     1       0.090  -0.828   1.083  0.00  0.00    +0.176 A 
ENDBRANCH   1  15
BRANCH   5  16
ATOM     16  C   UNL     1       0.120  -2.655   3.635  0.00  0.00    +0.152 C 
BRANCH  16  17
ATOM     17  C   UNL     1       1.547  -3.139   3.643  0.00  0.00    -0.013 C 
ATOM     18  C   UNL     1       1.960  -3.944   4.590  0.00  0.00    +0.005 C 
ENDBRANCH  16  17
ENDBRANCH   5  16
BRANCH   4  19
ATOM     19  S   UNL     1       0.111  -0.801   6.371  0.00  0.00    -0.077 S 
BRANCH  19  20
ATOM     20  C   UNL     1       0.086   0.783   7.255  0.00  0.00    +0.173 C 
BRANCH  20  21
ATOM     21  C   UNL     1       0.097   0.529   8.741  0.00  0.00    +0.228 C 
ATOM     22  O   UNL     1       0.119  -0.608   9.162  0.00  0.00    -0.275 OA
ATOM     23  N   UNL     1       0.082   1.566   9.601  0.00  0.00    -0.284 N 
ATOM     24  H   UNL     1       0.130   2.475   9.266  0.00  0.00    +0.155 HD
BRANCH  23  25
ATOM     25  C   UNL     1      -0.003   1.331  10.979  0.00  0.00    +0.053 A 
ATOM     26  C   UNL     1       0.615   0.219  11.534  0.00  0.00    +0.046 A 
ATOM     27  C   UNL     1       0.530  -0.010  12.895  0.00  0.00    +0.061 A 
ATOM     28  C   UNL     1      -0.172   0.868  13.704  0.00  0.00    +0.061 A 
ATOM     29  C   UNL     1      -0.789   1.977  13.153  0.00  0.00    +0.043 A 
ATOM     30  C   UNL     1      -0.702   2.214  11.794  0.00  0.00    +0.064 A 
ATOM     31 CL   UNL     1      -1.470   3.610  11.105  0.00  0.00    -0.082 Cl
ATOM     32 CL   UNL     1      -0.277   0.576  15.412  0.00  0.00    -0.082 Cl
ATOM     33 CL   UNL     1       1.303  -1.401  13.589  0.00  0.00    -0.082 Cl
ENDBRANCH  23  25
ENDBRANCH  20  21
ENDBRANCH  19  20
ENDBRANCH   4  19
TORSDOF 7
