REMARK  Name = ZINC12377915
REMARK  8 active torsions:
REMARK  status: ('A' for Active; 'I' for Inactive)
REMARK    1  A    between atoms: C_1  and  O_2
REMARK    2  A    between atoms: O_2  and  C_3
REMARK    3  A    between atoms: C_5  and  C_10
REMARK    4  A    between atoms: C_8  and  O_9
REMARK    5  A    between atoms: C_12  and  C_24
REMARK    6  A    between atoms: C_14  and  C_19
REMARK    7  A    between atoms: C_14  and  O_23
REMARK    8  A    between atoms: C_24  and  C_26
REMARK                            x       y       z     vdW  Elec       q    Type
REMARK                         _______ _______ _______ _____ _____    ______ ____
ROOT
ATOM      1  C   UNL     1       2.411   0.374   4.190  0.00  0.00    +0.120 C 
ATOM      2  C   UNL     1       1.446   0.513   5.372  0.00  0.00    +0.144 C 
ATOM      3  C   UNL     1       2.171   1.236   6.512  0.00  0.00    +0.243 C 
ATOM      4  N   UNL     1       3.400   0.509   6.836  0.00  0.00    -0.264 N 
ATOM      5  C   UNL     1       4.055  -0.203   5.907  0.00  0.00    +0.302 C 
ATOM      6  O   UNL     1       5.077  -0.779   6.226  0.00  0.00    -0.253 OA
ATOM      7  N   UNL     1       3.628  -0.305   4.639  0.00  0.00    -0.292 N 
ATOM      8  H   UNL     1       3.748   0.544   7.741  0.00  0.00    +0.153 HD
ATOM      9  H   UNL     1       4.135  -0.839   4.007  0.00  0.00    +0.151 HD
ENDROOT
BRANCH   1  12
ATOM     10  C   UNL     1       0.506  -0.532   1.056  0.00  0.00    +0.162 A 
ATOM     11  C   UNL     1       1.107   0.208   2.061  0.00  0.00    +0.055 A 
ATOM     12  C   UNL     1       1.758  -0.433   3.098  0.00  0.00    -0.023 A 
ATOM     13  C   UNL     1       1.812  -1.814   3.135  0.00  0.00    +0.009 A 
ATOM     14  C   UNL     1       1.214  -2.559   2.136  0.00  0.00    +0.049 A 
ATOM     15  C   UNL     1       0.555  -1.923   1.097  0.00  0.00    +0.158 A 
BRANCH  10  17
ATOM     16  C   UNL     1      -0.145   1.526   0.059  0.00  0.00    +0.277 C 
ATOM     17  O   UNL     1      -0.136   0.097   0.035  0.00  0.00    -0.491 OA
ENDBRANCH  10  17
BRANCH  15  18
ATOM     18  O   UNL     1      -0.039  -2.654   0.116  0.00  0.00    -0.503 OA
ATOM     19  H   UNL     1       0.541  -2.853  -0.632  0.00  0.00    +0.292 HD
ENDBRANCH  15  18
ENDBRANCH   1  12
BRANCH   3  20
ATOM     20  C   UNL     1       1.266   1.284   7.744  0.00  0.00    +0.436 C 
ATOM     21  F   UNL     1       1.058  -0.014   8.222  0.00  0.00    -0.166 F 
ATOM     22  F   UNL     1       1.875   2.055   8.740  0.00  0.00    -0.166 F 
ATOM     23  F   UNL     1       0.037   1.856   7.398  0.00  0.00    -0.166 F 
ENDBRANCH   3  20
BRANCH   3  24
ATOM     24  O   UNL     1       2.496   2.566   6.104  0.00  0.00    -0.364 OA
ATOM     25  H   UNL     1       2.958   3.083   6.778  0.00  0.00    +0.212 HD
ENDBRANCH   3  24
BRANCH   2  26
ATOM     26  C   UNL     1       1.009  -0.854   5.831  0.00  0.00    +0.173 C 
ATOM     27  O   UNL     1       1.819  -1.623   6.303  0.00  0.00    -0.292 OA
BRANCH  26  28
ATOM     28  C   UNL     1      -0.401  -1.256   5.706  0.00  0.00    +0.018 A 
ATOM     29  C   UNL     1      -1.356  -0.338   5.256  0.00  0.00    +0.013 A 
ATOM     30  C   UNL     1      -2.675  -0.722   5.141  0.00  0.00    +0.020 A 
ATOM     31  C   UNL     1      -3.055  -2.013   5.471  0.00  0.00    +0.041 A 
ATOM     32  C   UNL     1      -2.115  -2.927   5.917  0.00  0.00    +0.020 A 
ATOM     33  C   UNL     1      -0.791  -2.559   6.032  0.00  0.00    +0.013 A 
ATOM     34 CL   UNL     1      -4.719  -2.487   5.324  0.00  0.00    -0.084 Cl
ENDBRANCH  26  28
ENDBRANCH   2  26
TORSDOF 7
