REMARK  Name = ZINC16853970
REMARK  8 active torsions:
REMARK  status: ('A' for Active; 'I' for Inactive)
REMARK    1  A    between atoms: C_1  and  C_2
REMARK    2  A    between atoms: C_5  and  C_9
REMARK    3  A    between atoms: C_6  and  C_8
REMARK    4  A    between atoms: C_9  and  S_10
REMARK    5  A    between atoms: S_10  and  C_11
REMARK    6  A    between atoms: C_11  and  C_12
REMARK    7  A    between atoms: C_12  and  C_13
REMARK    8  A    between atoms: C_20  and  O_21
REMARK                            x       y       z     vdW  Elec       q    Type
REMARK                         _______ _______ _______ _____ _____    ______ ____
ROOT
ATOM      1  C   UNL     1       2.337   1.366  -0.013  0.00  0.00    +0.079 A 
ATOM      2  C   UNL     1       2.350  -0.034  -0.020  0.00  0.00    +0.259 A 
ATOM      3  O   UNL     1       3.406  -0.646  -0.033  0.00  0.00    -0.267 OA
ATOM      4  N   UNL     1       1.174  -0.696  -0.013  0.00  0.00    -0.295 N 
ATOM      5  H   UNL     1       1.163  -1.666  -0.018  0.00  0.00    +0.172 HD
ATOM      6  C   UNL     1       0.002  -0.004   0.002  0.00  0.00    +0.196 A 
ATOM      7  N   UNL     1      -0.016   1.312   0.009  0.00  0.00    -0.181 NA
ATOM      8  C   UNL     1       1.118   2.020   0.002  0.00  0.00    +0.224 A 
ATOM      9  N   UNL     1      -1.182  -0.691   0.010  0.00  0.00    -0.329 N 
ATOM     10  H   UNL     1      -2.023  -0.208   0.021  0.00  0.00    +0.145 HD
ATOM     11  H   UNL     1      -1.181  -1.661   0.005  0.00  0.00    +0.145 HD
ENDROOT
BRANCH   8  12
ATOM     12  O   UNL     1       1.073   3.373   0.009  0.00  0.00    -0.492 OA
ATOM     13  H   UNL     1       0.178   3.737   0.020  0.00  0.00    +0.294 HD
ENDBRANCH   8  12
BRANCH   1  14
ATOM     14  C   UNL     1       3.627   2.145  -0.020  0.00  0.00    +0.056 C 
BRANCH  14  15
ATOM     15  C   UNL     1       4.141   2.293   1.414  0.00  0.00    +0.074 C 
BRANCH  15  16
ATOM     16  S   UNL     1       5.694   3.232   1.405  0.00  0.00    -0.156 S 
BRANCH  16  17
ATOM     17  C   UNL     1       6.164   3.318   3.155  0.00  0.00    +0.104 C 
BRANCH  17  22
ATOM     18  C   UNL     1      11.117   6.249   3.678  0.00  0.00    +0.044 C 
ATOM     19  C   UNL     1       9.825   5.484   3.541  0.00  0.00    -0.050 A 
ATOM     20  C   UNL     1       8.617   6.154   3.594  0.00  0.00    +0.003 A 
ATOM     21  C   UNL     1       7.433   5.453   3.469  0.00  0.00    +0.005 A 
ATOM     22  C   UNL     1       7.456   4.082   3.291  0.00  0.00    -0.035 A 
ATOM     23  C   UNL     1       8.664   3.412   3.244  0.00  0.00    -0.046 A 
ATOM     24  C   UNL     1       9.849   4.114   3.364  0.00  0.00    +0.007 A 
ATOM     25  C   UNL     1       8.689   1.917   3.056  0.00  0.00    +0.044 C 
ENDBRANCH  17  22
ENDBRANCH  16  17
ENDBRANCH  15  16
ENDBRANCH  14  15
ENDBRANCH   1  14
TORSDOF 6
