REMARK  Name = ZINC03006931
REMARK  14 active torsions:
REMARK  status: ('A' for Active; 'I' for Inactive)
REMARK    1  A    between atoms: C_1  and  C_2
REMARK    2  A    between atoms: C_2  and  C_3
REMARK    3  A    between atoms: C_2  and  C_4
REMARK    4  A    between atoms: C_4  and  N_5
REMARK    5  A    between atoms: N_5  and  C_6
REMARK    6  A    between atoms: N_5  and  S_10
REMARK    7  A    between atoms: C_6  and  C_7
REMARK    8  A    between atoms: C_7  and  C_8
REMARK    9  A    between atoms: C_7  and  C_9
REMARK   10  A    between atoms: S_10  and  C_13
REMARK   11  A    between atoms: C_16  and  C_19
REMARK   12  A    between atoms: N_21  and  C_22
REMARK   13  A    between atoms: C_23  and  C_31
REMARK   14  A    between atoms: C_30  and  N_68
REMARK                            x       y       z     vdW  Elec       q    Type
REMARK                         _______ _______ _______ _____ _____    ______ ____
ROOT
ATOM      1  C   UNL     1       0.576   4.502   3.492  0.00  0.00    +0.249 C 
ATOM      2  O   UNL     1       1.499   5.257   3.260  0.00  0.00    -0.270 OA
ATOM      3  N   UNL     1      -0.368   4.283   2.554  0.00  0.00    -0.275 N 
ATOM      4  H   UNL     1      -1.105   3.680   2.740  0.00  0.00    +0.156 HD
ENDROOT
BRANCH   3   5
ATOM      5  C   UNL     1      -0.285   4.919   1.327  0.00  0.00    +0.085 A 
ATOM      6  C   UNL     1      -1.151   4.823   0.245  0.00  0.00    +0.068 A 
ATOM      7  C   UNL     1      -0.837   5.607  -0.935  0.00  0.00    -0.027 A 
ATOM      8  C   UNL     1       0.288   6.353  -0.850  0.00  0.00    -0.021 A 
ATOM      9  S   UNL     1       0.925   6.027   0.767  0.00  0.00    -0.079 S 
ATOM     10  C   UNL     1       0.844   7.247  -1.914  0.00  0.00    -0.036 C 
ATOM     11  C   UNL     1      -1.281   6.870  -3.015  0.00  0.00    -0.074 C 
ATOM     12  C   UNL     1      -1.676   5.631  -2.207  0.00  0.00    +0.018 C 
ATOM     13  C   UNL     1       0.553   7.870  -4.241  0.00  0.00    -0.096 C 
ATOM     14  N   UNL     1       0.185   6.892  -3.194  0.00  0.00    +0.381 N 
ATOM     15  H   UNL     1       0.500   5.959  -3.485  0.00  0.00    -0.082 HD
BRANCH   6  16
ATOM     16  C   UNL     1      -2.340   3.967   0.295  0.00  0.00    +0.244 C 
ATOM     17  O   UNL     1      -2.271   2.807  -0.069  0.00  0.00    -0.270 OA
ATOM     18  N   UNL     1      -3.511   4.465   0.739  0.00  0.00    -0.325 N 
ATOM     19  H   UNL     1      -4.298   3.900   0.768  0.00  0.00    +0.145 HD
ATOM     20  H   UNL     1      -3.566   5.389   1.028  0.00  0.00    +0.145 HD
ENDBRANCH   6  16
ENDBRANCH   3   5
BRANCH   1  24
ATOM     21  C   UNL     1       0.322   2.550   7.256  0.00  0.00    +0.106 A 
ATOM     22  C   UNL     1       1.374   3.410   6.995  0.00  0.00    +0.029 A 
ATOM     23  C   UNL     1       1.463   4.047   5.775  0.00  0.00    +0.015 A 
ATOM     24  C   UNL     1       0.487   3.823   4.802  0.00  0.00    +0.037 A 
ATOM     25  C   UNL     1      -0.575   2.959   5.073  0.00  0.00    +0.015 A 
ATOM     26  C   UNL     1      -0.648   2.323   6.295  0.00  0.00    +0.029 A 
BRANCH  21  27
ATOM     27  S   UNL     1       0.216   1.741   8.817  0.00  0.00    +0.061 S 
ATOM     28  O   UNL     1      -0.563   0.570   8.616  0.00  0.00    -0.153 OA
ATOM     29  O   UNL     1       1.536   1.697   9.342  0.00  0.00    -0.153 OA
BRANCH  27  30
ATOM     30  N   UNL     1      -0.659   2.725   9.821  0.00  0.00    -0.176 NA
BRANCH  30  31
ATOM     31  C   UNL     1      -2.116   2.586   9.895  0.00  0.00    +0.112 C 
BRANCH  31  33
ATOM     32  C   UNL     1      -4.019   1.856  11.339  0.00  0.00    +0.008 C 
ATOM     33  C   UNL     1      -2.496   1.889  11.203  0.00  0.00    -0.001 C 
ATOM     34  C   UNL     1      -1.953   0.459  11.195  0.00  0.00    +0.008 C 
ENDBRANCH  31  33
ENDBRANCH  30  31
BRANCH  30  35
ATOM     35  C   UNL     1       0.023   3.735  10.635  0.00  0.00    +0.112 C 
BRANCH  35  36
ATOM     36  C   UNL     1       0.053   5.064   9.878  0.00  0.00    -0.001 C 
ATOM     37  C   UNL     1      -1.379   5.554   9.650  0.00  0.00    +0.008 C 
ATOM     38  C   UNL     1       0.822   6.101  10.699  0.00  0.00    +0.008 C 
ENDBRANCH  35  36
ENDBRANCH  30  35
ENDBRANCH  27  30
ENDBRANCH  21  27
ENDBRANCH   1  24
TORSDOF 9
