REMARK  Name = ZINC39469421
REMARK  6 active torsions:
REMARK  status: ('A' for Active; 'I' for Inactive)
REMARK    1  A    between atoms: C_1  and  C_2
REMARK    2  A    between atoms: C_2  and  O_3
REMARK    3  A    between atoms: O_3  and  P_4
REMARK    4  A    between atoms: C_12  and  C_23
REMARK    5  A    between atoms: C_13  and  O_22
REMARK    6  A    between atoms: C_28  and  O_29
REMARK                            x       y       z     vdW  Elec       q    Type
REMARK                         _______ _______ _______ _____ _____    ______ ____
ROOT
ATOM      1  P   UNL     1      -1.694  -2.069   0.007  0.00  0.00    +0.421 P 
ATOM      2  O   UNL     1      -0.890  -2.779   1.027  0.00  0.00    -0.239 OA
ATOM      3  N   UNL     1      -1.424  -2.712  -1.489  0.00  0.00    -0.156 NA
ATOM      4  N   UNL     1      -2.376  -2.491  -2.463  0.00  0.00    -0.228 NA
ATOM      5  C   UNL     1      -1.945  -3.222  -3.667  0.00  0.00    +0.111 C 
ATOM      6  C   UNL     1      -2.916  -3.002  -4.818  0.00  0.00    +0.035 C 
ATOM      7  C   UNL     1      -2.978  -1.546  -5.191  0.00  0.00    -0.010 C 
ATOM      8  C   UNL     1      -4.054  -1.079  -5.846  0.00  0.00    +0.023 C 
ATOM      9  C   UNL     1      -5.149  -2.014  -6.196  0.00  0.00    +0.121 C 
ATOM     10  C   UNL     1      -5.283  -3.155  -5.519  0.00  0.00    +0.023 C 
ATOM     11  C   UNL     1      -4.316  -3.466  -4.404  0.00  0.00    +0.025 C 
ATOM     12  C   UNL     1      -4.730  -2.701  -3.146  0.00  0.00    +0.031 C 
ATOM     13  C   UNL     1      -3.709  -2.916  -2.023  0.00  0.00    +0.100 C 
ATOM     14  C   UNL     1      -4.187  -2.101  -0.815  0.00  0.00    +0.191 C 
ATOM     15  O   UNL     1      -3.282  -2.289   0.286  0.00  0.00    -0.294 OA
ATOM     16  H   UNL     1      -0.623  -3.227  -1.677  0.00  0.00    +0.153 HD
ENDROOT
BRANCH   8  17
ATOM     17  C   UNL     1      -4.144   0.354  -6.216  0.00  0.00    +0.027 A 
ATOM     18  C   UNL     1      -3.394   0.851  -7.279  0.00  0.00    +0.012 A 
ATOM     19  C   UNL     1      -3.482   2.186  -7.620  0.00  0.00    +0.001 A 
ATOM     20  C   UNL     1      -4.313   3.033  -6.908  0.00  0.00    +0.004 A 
ATOM     21  C   UNL     1      -5.061   2.550  -5.851  0.00  0.00    +0.046 A 
ATOM     22  C   UNL     1      -4.988   1.211  -5.503  0.00  0.00    +0.125 A 
BRANCH  22  23
ATOM     23  O   UNL     1      -5.728   0.734  -4.468  0.00  0.00    -0.506 OA
ATOM     24  H   UNL     1      -5.283   0.781  -3.611  0.00  0.00    +0.292 HD
ENDBRANCH  22  23
ENDBRANCH   8  17
BRANCH   9  25
ATOM     25  O   UNL     1      -6.012  -1.711  -7.200  0.00  0.00    -0.506 OA
ATOM     26  H   UNL     1      -6.691  -2.382  -7.352  0.00  0.00    +0.292 HD
ENDBRANCH   9  25
BRANCH   1  27
ATOM     27  O   UNL     1      -1.339  -0.499   0.012  0.00  0.00    -0.296 OA
BRANCH  27  29
ATOM     28  C   UNL     1      -0.019   1.526   0.010  0.00  0.00    +0.035 C 
ATOM     29  C   UNL     1       0.002  -0.004   0.002  0.00  0.00    +0.168 C 
ENDBRANCH  27  29
ENDBRANCH   1  27
TORSDOF 5
