REMARK  Name = ZINC63205702
REMARK  7 active torsions:
REMARK  status: ('A' for Active; 'I' for Inactive)
REMARK    1  A    between atoms: C_4  and  C_7
REMARK    2  A    between atoms: C_7  and  C_8
REMARK    3  A    between atoms: C_8  and  N_9
REMARK    4  A    between atoms: N_9  and  C_10
REMARK    5  A    between atoms: C_10  and  N_12
REMARK    6  A    between atoms: N_12  and  N_13
REMARK    7  A    between atoms: C_14  and  C_16
REMARK                            x       y       z     vdW  Elec       q    Type
REMARK                         _______ _______ _______ _____ _____    ______ ____
ROOT
ATOM      1  N   UNL     1       7.226  -2.671   2.526  0.00  0.00    -0.246 N 
ATOM      2  H   UNL     1       7.658  -2.912   3.360  0.00  0.00    +0.172 HD
ENDROOT
BRANCH   1   3
ATOM      3  N   UNL     1       7.825  -3.007   1.304  0.00  0.00    -0.231 N 
ATOM      4  C   UNL     1       9.001  -3.665   1.289  0.00  0.00    +0.258 C 
ATOM      5  O   UNL     1       9.543  -3.967   2.335  0.00  0.00    -0.269 OA
ATOM      6  H   UNL     1       7.393  -2.766   0.470  0.00  0.00    +0.173 HD
BRANCH   4   7
ATOM      7  C   UNL     1       9.628  -4.017   0.010  0.00  0.00    +0.044 C 
ATOM      8  C   UNL     1      10.816  -4.688  -0.177  0.00  0.00    +0.008 A 
ATOM      9  C   UNL     1      11.770  -5.228   0.722  0.00  0.00    +0.010 A 
ATOM     10  C   UNL     1      12.873  -5.849   0.251  0.00  0.00    +0.001 A 
ATOM     11  C   UNL     1      13.130  -5.992  -1.122  0.00  0.00    +0.002 A 
ATOM     12  C   UNL     1      12.285  -5.513  -2.061  0.00  0.00    +0.026 A 
ATOM     13  C   UNL     1      11.058  -4.822  -1.635  0.00  0.00    +0.043 A 
ATOM     14  N   UNL     1      10.088  -4.273  -2.311  0.00  0.00    -0.380 N 
ATOM     15  C   UNL     1       9.101  -3.724  -1.377  0.00  0.00    +0.154 C 
ATOM     16  H   UNL     1      10.028  -4.238  -3.279  0.00  0.00    +0.160 HD
ENDBRANCH   4   7
ENDBRANCH   1   3
BRANCH   1  17
ATOM     17  C   UNL     1       6.050  -2.013   2.541  0.00  0.00    +0.147 C 
ATOM     18  S   UNL     1       5.319  -1.603   4.034  0.00  0.00    -0.017 S 
BRANCH  17  19
ATOM     19  N   UNL     1       5.450  -1.678   1.382  0.00  0.00    -0.325 N 
ATOM     20  H   UNL     1       5.864  -1.911   0.536  0.00  0.00    +0.148 HD
BRANCH  19  21
ATOM     21  C   UNL     1       4.171  -0.963   1.399  0.00  0.00    +0.108 C 
BRANCH  21  22
ATOM     22  C   UNL     1       3.711  -0.707  -0.038  0.00  0.00    +0.054 C 
BRANCH  22  26
ATOM     23  C   UNL     1      -0.017   1.378   0.010  0.00  0.00    +0.000 A 
ATOM     24  C   UNL     1       1.171   2.086   0.002  0.00  0.00    +0.000 A 
ATOM     25  C   UNL     1       2.377   1.411  -0.013  0.00  0.00    +0.004 A 
ATOM     26  C   UNL     1       2.396   0.029  -0.020  0.00  0.00    -0.046 A 
ATOM     27  C   UNL     1       1.208  -0.679  -0.012  0.00  0.00    +0.004 A 
ATOM     28  C   UNL     1       0.002  -0.004   0.002  0.00  0.00    +0.000 A 
ENDBRANCH  22  26
ENDBRANCH  21  22
ENDBRANCH  19  21
ENDBRANCH  17  19
ENDBRANCH   1  17
TORSDOF 7
