REMARK  Name = ZINC05218649
REMARK  12 active torsions:
REMARK  status: ('A' for Active; 'I' for Inactive)
REMARK    1  A    between atoms: C_1  and  C_2
REMARK    2  A    between atoms: C_3  and  O_21
REMARK    3  A    between atoms: C_4  and  C_8
REMARK    4  A    between atoms: C_11  and  O_15
REMARK    5  A    between atoms: C_13  and  O_14
REMARK    6  A    between atoms: O_15  and  C_16
REMARK    7  A    between atoms: C_16  and  C_17
REMARK    8  A    between atoms: N_19  and  N_20
REMARK    9  A    between atoms: O_21  and  C_22
REMARK   10  A    between atoms: C_25  and  C_28
REMARK   11  A    between atoms: C_28  and  O_30
REMARK   12  A    between atoms: O_30  and  C_31
REMARK                            x       y       z     vdW  Elec       q    Type
REMARK                         _______ _______ _______ _____ _____    ______ ____
ROOT
ATOM      1  C   UNL     1      -0.018   1.503   0.010  0.00  0.00    +0.071 C 
ATOM      2  C   UNL     1       0.002  -0.004   0.002  0.00  0.00    +0.102 A 
ATOM      3  C   UNL     1       0.008  -0.813  -1.139  0.00  0.00    +0.176 A 
ATOM      4  C   UNL     1       0.028  -2.127  -0.718  0.00  0.00    +0.112 A 
ATOM      5  N   UNL     1       0.034  -2.111   0.649  0.00  0.00    -0.273 N 
ATOM      6  H   UNL     1       0.047  -2.888   1.229  0.00  0.00    +0.189 HD
ATOM      7  N   UNL     1       0.023  -0.773   1.061  0.00  0.00    -0.175 NA
ENDROOT
BRANCH   4   8
ATOM      8  C   UNL     1       0.040  -3.326  -1.582  0.00  0.00    +0.045 A 
ATOM      9  C   UNL     1      -1.044  -4.204  -1.577  0.00  0.00    +0.017 A 
ATOM     10  C   UNL     1      -1.030  -5.322  -2.384  0.00  0.00    +0.046 A 
ATOM     11  C   UNL     1       0.062  -5.577  -3.204  0.00  0.00    +0.125 A 
ATOM     12  C   UNL     1       1.145  -4.710  -3.215  0.00  0.00    +0.091 A 
ATOM     13  C   UNL     1       1.138  -3.582  -2.413  0.00  0.00    +0.130 A 
BRANCH  13  14
ATOM     14  O   UNL     1       2.195  -2.729  -2.427  0.00  0.00    -0.506 OA
ATOM     15  H   UNL     1       2.883  -2.946  -1.784  0.00  0.00    +0.292 HD
ENDBRANCH  13  14
BRANCH  11  16
ATOM     16  O   UNL     1       0.070  -6.681  -3.997  0.00  0.00    -0.483 OA
BRANCH  16  17
ATOM     17  C   UNL     1      -1.077  -7.532  -3.936  0.00  0.00    +0.325 C 
BRANCH  17  18
ATOM     18  C   UNL     1      -0.889  -8.694  -4.876  0.00  0.00    +0.264 C 
ATOM     19  O   UNL     1       0.126  -8.786  -5.533  0.00  0.00    -0.271 OA
ATOM     20  N   UNL     1      -1.850  -9.633  -4.986  0.00  0.00    -0.251 N 
ATOM     21  H   UNL     1      -2.662  -9.560  -4.461  0.00  0.00    +0.169 HD
BRANCH  20  22
ATOM     22  N   UNL     1      -1.681 -10.687  -5.838  0.00  0.00    -0.254 NA
ATOM     23  H   UNL     1      -0.830 -11.188  -5.629  0.00  0.00    +0.140 HD
ATOM     24  H   UNL     1      -2.479 -11.304  -5.814  0.00  0.00    +0.140 HD
ENDBRANCH  20  22
ENDBRANCH  17  18
ENDBRANCH  16  17
ENDBRANCH  11  16
ENDBRANCH   4   8
BRANCH   3  25
ATOM     25  O   UNL     1      -0.004  -0.383  -2.430  0.00  0.00    -0.452 OA
BRANCH  25  26
ATOM     26  C   UNL     1       1.187  -0.165  -3.040  0.00  0.00    +0.129 A 
ATOM     27  C   UNL     1       2.372  -0.388  -2.347  0.00  0.00    +0.047 A 
ATOM     28  C   UNL     1       3.584  -0.168  -2.963  0.00  0.00    +0.018 A 
ATOM     29  C   UNL     1       3.622   0.280  -4.287  0.00  0.00    +0.059 A 
ATOM     30  C   UNL     1       2.428   0.502  -4.980  0.00  0.00    +0.018 A 
ATOM     31  C   UNL     1       1.221   0.276  -4.359  0.00  0.00    +0.047 A 
BRANCH  29  32
ATOM     32  C   UNL     1       4.917   0.517  -4.950  0.00  0.00    +0.339 C 
ATOM     33  O   UNL     1       5.953   0.323  -4.346  0.00  0.00    -0.245 OA
BRANCH  32  34
ATOM     34  O   UNL     1       4.952   0.949  -6.226  0.00  0.00    -0.464 OA
ATOM     35  C   UNL     1       6.241   1.157  -6.805  0.00  0.00    +0.280 C 
ENDBRANCH  32  34
ENDBRANCH  29  32
ENDBRANCH  25  26
ENDBRANCH   3  25
TORSDOF 10
