REMARK  Name = ZINC40684306
REMARK  7 active torsions:
REMARK  status: ('A' for Active; 'I' for Inactive)
REMARK    1  A    between atoms: C_1  and  C_2
REMARK    2  A    between atoms: C_5  and  O_27
REMARK    3  A    between atoms: C_6  and  N_8
REMARK    4  A    between atoms: C_10  and  N_26
REMARK    5  A    between atoms: C_11  and  N_15
REMARK    6  A    between atoms: N_15  and  C_16
REMARK    7  A    between atoms: O_27  and  C_28
REMARK                            x       y       z     vdW  Elec       q    Type
REMARK                         _______ _______ _______ _____ _____    ______ ____
ROOT
ATOM      1  N   UNL     1       0.609  -2.759   2.377  0.00  0.00    -0.295 N 
ATOM      2  C   UNL     1       0.685  -2.090   3.594  0.00  0.00    +0.149 A 
ATOM      3  C   UNL     1       0.550  -2.788   4.796  0.00  0.00    +0.106 A 
ATOM      4  C   UNL     1       0.634  -2.067   5.989  0.00  0.00    +0.149 A 
ATOM      5  N   UNL     1       0.839  -0.753   5.935  0.00  0.00    -0.219 NA
ATOM      6  C   UNL     1       0.961  -0.133   4.779  0.00  0.00    +0.225 A 
ATOM      7  N   UNL     1       0.893  -0.776   3.631  0.00  0.00    -0.219 NA
ATOM      8  H   UNL     1       0.553  -3.727   2.359  0.00  0.00    +0.154 HD
ENDROOT
BRANCH   1  14
ATOM      9  C   UNL     1      -0.050   1.493  -0.001  0.00  0.00    +0.044 C 
ATOM     10  C   UNL     1       0.299   0.027  -0.004  0.00  0.00    -0.048 A 
ATOM     11  C   UNL     1       0.625  -0.602  -1.191  0.00  0.00    +0.007 A 
ATOM     12  C   UNL     1       0.947  -1.946  -1.200  0.00  0.00    +0.048 A 
ATOM     13  C   UNL     1       0.943  -2.668  -0.018  0.00  0.00    +0.141 A 
ATOM     14  C   UNL     1       0.615  -2.035   1.179  0.00  0.00    +0.075 A 
ATOM     15  C   UNL     1       0.298  -0.684   1.181  0.00  0.00    +0.030 A 
BRANCH  13  16
ATOM     16  O   UNL     1       1.259  -3.990  -0.025  0.00  0.00    -0.493 OA
ATOM     17  C   UNL     1       1.584  -4.573  -1.289  0.00  0.00    +0.277 C 
ENDBRANCH  13  16
ENDBRANCH   1  14
BRANCH   3  18
ATOM     18  N   UNL     1       0.335  -4.175   4.805  0.00  0.00    -0.353 N 
ATOM     19  H   UNL     1       0.278  -4.662   3.968  0.00  0.00    +0.143 HD
ATOM     20  H   UNL     1       0.243  -4.646   5.647  0.00  0.00    +0.143 HD
ENDBRANCH   3  18
BRANCH   4  21
ATOM     21  N   UNL     1       0.506  -2.713   7.213  0.00  0.00    -0.298 N 
ATOM     22  H   UNL     1       0.422  -3.678   7.246  0.00  0.00    +0.154 HD
BRANCH  21  23
ATOM     23  C   UNL     1       0.499  -1.969   8.399  0.00  0.00    +0.036 A 
ATOM     24  C   UNL     1       1.124  -2.466   9.535  0.00  0.00    +0.027 A 
ATOM     25  C   UNL     1       1.115  -1.732  10.706  0.00  0.00    +0.051 A 
ATOM     26  C   UNL     1       0.484  -0.498  10.751  0.00  0.00    +0.162 A 
ATOM     27  C   UNL     1      -0.141   0.003   9.615  0.00  0.00    +0.164 A 
ATOM     28  C   UNL     1      -0.128  -0.731   8.438  0.00  0.00    +0.072 A 
ATOM     29  O   UNL     1      -0.759   1.216   9.637  0.00  0.00    -0.485 OA
ATOM     30  C   UNL     1      -1.068   1.757  10.926  0.00  0.00    +0.270 C 
ATOM     31  C   UNL     1       0.168   1.602  11.822  0.00  0.00    +0.270 C 
ATOM     32  O   UNL     1       0.482   0.208  11.915  0.00  0.00    -0.485 OA
ENDBRANCH  21  23
ENDBRANCH   4  21
TORSDOF 5
