REMARK  Name = ZINC38636718
REMARK  8 active torsions:
REMARK  status: ('A' for Active; 'I' for Inactive)
REMARK    1  A    between atoms: C_4  and  C_7
REMARK    2  A    between atoms: N_8  and  N_9
REMARK    3  A    between atoms: N_9  and  C_10
REMARK    4  A    between atoms: C_14  and  C_16
REMARK    5  A    between atoms: C_20  and  C_22
REMARK    6  A    between atoms: C_22  and  O_23
REMARK    7  A    between atoms: O_23  and  C_24
REMARK    8  A    between atoms: C_24  and  C_26
REMARK                            x       y       z     vdW  Elec       q    Type
REMARK                         _______ _______ _______ _____ _____    ______ ____
ROOT
ATOM      1  N   UNL     1       4.896  -2.611  -0.225  0.00  0.00    -0.158 N 
ATOM      2  C   UNL     1       4.904  -3.912  -0.577  0.00  0.00    +0.277 C 
ATOM      3  O   UNL     1       5.919  -4.417  -1.011  0.00  0.00    -0.270 OA
ENDROOT
BRANCH   1   4
ATOM      4  C   UNL     1       6.081  -1.868  -0.263  0.00  0.00    +0.061 A 
ATOM      5  C   UNL     1       6.843  -1.833  -1.424  0.00  0.00    +0.025 A 
ATOM      6  C   UNL     1       8.012  -1.098  -1.459  0.00  0.00    +0.002 A 
ATOM      7  C   UNL     1       8.424  -0.399  -0.339  0.00  0.00    +0.012 A 
ATOM      8  C   UNL     1       7.668  -0.433   0.818  0.00  0.00    +0.057 A 
ATOM      9  C   UNL     1       6.495  -1.160   0.857  0.00  0.00    +0.037 A 
BRANCH   8  10
ATOM     10  C   UNL     1       8.122   0.331   2.036  0.00  0.00    +0.417 C 
ATOM     11  F   UNL     1       9.323   0.989   1.753  0.00  0.00    -0.166 F 
ATOM     12  F   UNL     1       7.147   1.270   2.387  0.00  0.00    -0.166 F 
ATOM     13  F   UNL     1       8.316  -0.559   3.098  0.00  0.00    -0.166 F 
ENDBRANCH   8  10
ENDBRANCH   1   4
BRANCH   1  15
ATOM     14  C   UNL     1       3.666  -0.725   0.405  0.00  0.00    +0.139 C 
ATOM     15  N   UNL     1       3.700  -2.003   0.179  0.00  0.00    -0.180 NA
BRANCH  14  19
ATOM     16  C   UNL     1      -0.014   1.165   1.351  0.00  0.00    +0.000 A 
ATOM     17  C   UNL     1       1.148   1.914   1.285  0.00  0.00    +0.001 A 
ATOM     18  C   UNL     1       2.347   1.307   0.978  0.00  0.00    +0.009 A 
ATOM     19  C   UNL     1       2.387  -0.068   0.734  0.00  0.00    -0.005 A 
ATOM     20  C   UNL     1       1.211  -0.818   0.803  0.00  0.00    +0.009 A 
ATOM     21  C   UNL     1       0.018  -0.197   1.111  0.00  0.00    +0.001 A 
ENDBRANCH  14  19
ENDBRANCH   1  15
BRANCH   2  22
ATOM     22  C   UNL     1       3.654  -4.741  -0.430  0.00  0.00    +0.330 C 
BRANCH  22  23
ATOM     23  O   UNL     1       3.914  -6.077  -0.865  0.00  0.00    -0.452 OA
BRANCH  23  24
ATOM     24  C   UNL     1       2.892  -6.953  -0.798  0.00  0.00    +0.337 C 
ATOM     25  O   UNL     1       1.810  -6.591  -0.383  0.00  0.00    -0.245 OA
BRANCH  24  26
ATOM     26  C   UNL     1       3.087  -8.350  -1.231  0.00  0.00    +0.054 C 
ATOM     27  C   UNL     1       4.334  -8.830  -1.575  0.00  0.00    +0.007 A 
ATOM     28  C   UNL     1       5.514  -7.967  -1.524  0.00  0.00    +0.010 A 
ATOM     29  C   UNL     1       6.718  -8.484  -1.872  0.00  0.00    +0.001 A 
ATOM     30  C   UNL     1       6.851  -9.819  -2.277  0.00  0.00    +0.002 A 
ATOM     31  C   UNL     1       5.801 -10.671  -2.347  0.00  0.00    +0.024 A 
ATOM     32  C   UNL     1       4.502 -10.235  -2.006  0.00  0.00    +0.041 A 
ATOM     33  N   UNL     1       3.479 -11.073  -2.077  0.00  0.00    -0.285 N 
ATOM     34  C   UNL     1       2.232 -10.731  -1.772  0.00  0.00    +0.222 C 
ATOM     35  O   UNL     1       1.338 -11.550  -1.860  0.00  0.00    -0.275 OA
ATOM     36  C   UNL     1       1.927  -9.324  -1.310  0.00  0.00    +0.139 C 
ATOM     37  H   UNL     1       3.649 -11.983  -2.366  0.00  0.00    +0.155 HD
ENDBRANCH  24  26
ENDBRANCH  23  24
ENDBRANCH  22  23
ENDBRANCH   2  22
TORSDOF 8
