REMARK  Name = ZINC35679366
REMARK  8 active torsions:
REMARK  status: ('A' for Active; 'I' for Inactive)
REMARK    1  A    between atoms: C_1  and  C_2
REMARK    2  A    between atoms: C_7  and  N_12
REMARK    3  A    between atoms: C_9  and  C_11
REMARK    4  A    between atoms: N_12  and  S_13
REMARK    5  A    between atoms: S_13  and  C_16
REMARK    6  A    between atoms: C_19  and  C_21
REMARK    7  A    between atoms: C_21  and  C_22
REMARK    8  A    between atoms: C_22  and  N_23
REMARK                            x       y       z     vdW  Elec       q    Type
REMARK                         _______ _______ _______ _____ _____    ______ ____
ROOT
ATOM      1  S   UNL     1      -0.974  -3.941   2.062  0.00  0.00    +0.065 S 
ATOM      2  O   UNL     1      -2.371  -4.151   1.908  0.00  0.00    -0.153 OA
ATOM      3  O   UNL     1      -0.010  -4.907   1.666  0.00  0.00    -0.153 OA
ENDROOT
BRANCH   1   4
ATOM      4  C   UNL     1      -0.698  -3.626   3.774  0.00  0.00    +0.143 A 
ATOM      5  C   UNL     1      -1.564  -3.159   4.706  0.00  0.00    +0.036 A 
ATOM      6  C   UNL     1      -1.123  -2.989   6.005  0.00  0.00    +0.013 A 
ATOM      7  C   UNL     1       0.163  -3.293   6.308  0.00  0.00    -0.010 A 
ATOM      8  S   UNL     1       0.792  -3.847   4.731  0.00  0.00    -0.074 S 
BRANCH   7   9
ATOM      9  C   UNL     1       0.875  -3.196   7.633  0.00  0.00    +0.023 C 
BRANCH   9  10
ATOM     10  C   UNL     1       0.722  -4.515   8.392  0.00  0.00    -0.081 C 
BRANCH  10  11
ATOM     11  N   UNL     1       1.415  -4.420   9.684  0.00  0.00    +0.378 N 
ATOM     12  H   UNL     1       2.395  -4.234   9.526  0.00  0.00    -0.090 HD
ATOM     13  H   UNL     1       1.014  -3.670  10.227  0.00  0.00    -0.090 HD
ATOM     14  H   UNL     1       1.315  -5.290  10.185  0.00  0.00    -0.090 HD
ENDBRANCH  10  11
ENDBRANCH   9  10
ENDBRANCH   7   9
ENDBRANCH   1   4
BRANCH   1  15
ATOM     15  N   UNL     1      -0.612  -2.548   1.244  0.00  0.00    -0.186 NA
ATOM     16  H   UNL     1      -1.309  -2.067   0.771  0.00  0.00    +0.148 HD
BRANCH  15  22
ATOM     17  C   UNL     1      -0.019   1.526   0.010  0.00  0.00    +0.008 C 
ATOM     18  C   UNL     1       0.002  -0.004   0.002  0.00  0.00    -0.010 C 
ATOM     19  C   UNL     1       0.718  -0.497  -1.257  0.00  0.00    +0.003 C 
ATOM     20  C   UNL     1       0.739  -2.027  -1.265  0.00  0.00    +0.002 C 
ATOM     21  C   UNL     1       1.479  -2.534  -0.026  0.00  0.00    +0.020 C 
ATOM     22  C   UNL     1       0.763  -2.041   1.233  0.00  0.00    +0.080 C 
ATOM     23  C   UNL     1       0.742  -0.511   1.242  0.00  0.00    +0.007 C 
ATOM     24  C   UNL     1       0.026  -0.018   2.500  0.00  0.00    +0.009 C 
ENDBRANCH  15  22
ENDBRANCH   1  15
TORSDOF 6
