REMARK  Name = ZINC64044449
REMARK  10 active torsions:
REMARK  status: ('A' for Active; 'I' for Inactive)
REMARK    1  A    between atoms: C_1  and  O_2
REMARK    2  A    between atoms: O_2  and  C_3
REMARK    3  A    between atoms: C_5  and  N_13
REMARK    4  A    between atoms: C_7  and  O_11
REMARK    5  A    between atoms: C_8  and  O_9
REMARK    6  A    between atoms: O_9  and  C_10
REMARK    7  A    between atoms: O_11  and  C_12
REMARK    8  A    between atoms: C_14  and  O_39
REMARK    9  A    between atoms: C_17  and  O_38
REMARK   10  A    between atoms: C_19  and  C_23
REMARK                            x       y       z     vdW  Elec       q    Type
REMARK                         _______ _______ _______ _____ _____    ______ ____
ROOT
ATOM      1  N   UNL     1       2.185   0.640  -4.289  0.00  0.00    -0.231 N 
ATOM      2  C   UNL     1       2.266   2.096  -4.285  0.00  0.00    +0.287 C 
ATOM      3  N   UNL     1       3.433   2.551  -5.050  0.00  0.00    -0.250 NA
ATOM      4  C   UNL     1       3.436   1.945  -6.391  0.00  0.00    +0.199 C 
ATOM      5  C   UNL     1       3.714   0.446  -6.246  0.00  0.00    +0.138 C 
ATOM      6  C   UNL     1       2.824  -0.128  -5.178  0.00  0.00    +0.231 C 
ATOM      7  O   UNL     1       2.678  -1.331  -5.123  0.00  0.00    -0.275 OA
ATOM      8  H   UNL     1       3.457   3.558  -5.107  0.00  0.00    +0.128 HD
ENDROOT
BRANCH   5   9
ATOM      9  C   UNL     1       3.437  -0.256  -7.577  0.00  0.00    +0.096 C 
ATOM     10  C   UNL     1       4.302   0.365  -8.677  0.00  0.00    +0.124 C 
ATOM     11  C   UNL     1       3.845  -0.268  -9.986  0.00  0.00    -0.036 C 
ATOM     12  C   UNL     1       4.930  -0.769 -10.559  0.00  0.00    -0.001 A 
ATOM     13  C   UNL     1       5.140  -1.419 -11.864  0.00  0.00    +0.010 A 
ATOM     14  C   UNL     1       6.407  -1.834 -12.130  0.00  0.00    +0.001 A 
ATOM     15  C   UNL     1       7.473  -1.671 -11.239  0.00  0.00    +0.002 A 
ATOM     16  C   UNL     1       7.372  -1.080 -10.022  0.00  0.00    +0.026 A 
ATOM     17  C   UNL     1       6.089  -0.596  -9.632  0.00  0.00    +0.043 A 
ATOM     18  N   UNL     1       5.719   0.032  -8.533  0.00  0.00    -0.376 N 
ATOM     19  C   UNL     1       2.386  -0.325 -10.371  0.00  0.00    +0.048 C 
ATOM     20  C   UNL     1       1.635  -0.847  -9.133  0.00  0.00    +0.085 C 
ATOM     21  N   UNL     1       2.023  -0.080  -7.945  0.00  0.00    -0.310 NA
ATOM     22  H   UNL     1       1.418  -0.289  -7.166  0.00  0.00    +0.122 HD
ATOM     23  H   UNL     1       6.275   0.237  -7.764  0.00  0.00    +0.160 HD
ENDBRANCH   5   9
BRANCH   1  26
ATOM     24  C   UNL     1      -0.706  -0.888  -2.595  0.00  0.00    +0.167 A 
ATOM     25  C   UNL     1       0.068  -0.269  -3.563  0.00  0.00    +0.073 A 
ATOM     26  C   UNL     1       1.403   0.014  -3.309  0.00  0.00    +0.047 A 
ATOM     27  C   UNL     1       1.964  -0.323  -2.085  0.00  0.00    +0.073 A 
ATOM     28  C   UNL     1       1.192  -0.943  -1.115  0.00  0.00    +0.167 A 
ATOM     29  C   UNL     1      -0.146  -1.222  -1.367  0.00  0.00    +0.204 A 
BRANCH  24  31
ATOM     30  C   UNL     1      -2.522  -0.794  -4.127  0.00  0.00    +0.277 C 
ATOM     31  O   UNL     1      -2.014  -1.165  -2.844  0.00  0.00    -0.491 OA
ENDBRANCH  24  31
BRANCH  29  32
ATOM     32  O   UNL     1      -0.908  -1.825  -0.413  0.00  0.00    -0.488 OA
ATOM     33  C   UNL     1      -0.942  -3.254  -0.418  0.00  0.00    +0.277 C 
ENDBRANCH  29  32
BRANCH  28  34
ATOM     34  O   UNL     1       1.742  -1.274   0.084  0.00  0.00    -0.491 OA
ATOM     35  C   UNL     1       3.121  -0.953   0.275  0.00  0.00    +0.277 C 
ENDBRANCH  28  34
ENDBRANCH   1  26
BRANCH   4  36
ATOM     36  O   UNL     1       2.163   2.144  -7.011  0.00  0.00    -0.376 OA
ATOM     37  H   UNL     1       1.919   3.073  -7.120  0.00  0.00    +0.211 HD
ENDBRANCH   4  36
BRANCH   2  38
ATOM     38  O   UNL     1       1.080   2.636  -4.871  0.00  0.00    -0.361 OA
ATOM     39  H   UNL     1       1.061   3.602  -4.903  0.00  0.00    +0.213 HD
ENDBRANCH   2  38
TORSDOF 7
