REMARK  Name = ZINC40687547
REMARK  6 active torsions:
REMARK  status: ('A' for Active; 'I' for Inactive)
REMARK    1  A    between atoms: C_1  and  C_2
REMARK    2  A    between atoms: C_9  and  O_12
REMARK    3  A    between atoms: O_12  and  C_13
REMARK    4  A    between atoms: C_14  and  N_26
REMARK    5  A    between atoms: C_15  and  N_19
REMARK    6  A    between atoms: N_19  and  C_20
REMARK                            x       y       z     vdW  Elec       q    Type
REMARK                         _______ _______ _______ _____ _____    ______ ____
ROOT
ATOM      1  C   UNL     1      -0.068  -2.690   4.743  0.00  0.00    +0.246 A 
ATOM      2  C   UNL     1      -0.163  -2.028   5.967  0.00  0.00    +0.128 A 
ATOM      3  C   UNL     1      -0.274  -2.799   7.127  0.00  0.00    +0.151 A 
ATOM      4  N   UNL     1      -0.283  -4.125   7.020  0.00  0.00    -0.218 NA
ATOM      5  C   UNL     1      -0.191  -4.710   5.843  0.00  0.00    +0.227 A 
ATOM      6  N   UNL     1      -0.090  -4.019   4.725  0.00  0.00    -0.199 NA
ENDROOT
BRANCH   2   7
ATOM      7  N   UNL     1      -0.148  -0.626   6.032  0.00  0.00    -0.351 N 
ATOM      8  H   UNL     1      -0.071  -0.104   5.218  0.00  0.00    +0.143 HD
ATOM      9  H   UNL     1      -0.216  -0.180   6.890  0.00  0.00    +0.143 HD
ENDBRANCH   2   7
BRANCH   3  10
ATOM     10  N   UNL     1      -0.371  -2.190   8.373  0.00  0.00    -0.298 N 
ATOM     11  H   UNL     1      -0.452  -1.225   8.436  0.00  0.00    +0.154 HD
BRANCH  10  12
ATOM     12  C   UNL     1      -0.353  -2.965   9.530  0.00  0.00    +0.035 A 
ATOM     13  C   UNL     1       0.280  -4.207   9.550  0.00  0.00    +0.041 A 
ATOM     14  C   UNL     1       0.276  -4.943  10.716  0.00  0.00    +0.084 A 
ATOM     15  N   UNL     1      -0.318  -4.486  11.802  0.00  0.00    -0.367 N 
ATOM     16  C   UNL     1      -0.928  -3.316  11.824  0.00  0.00    +0.084 A 
ATOM     17  C   UNL     1      -0.964  -2.516  10.701  0.00  0.00    +0.041 A 
ATOM     18  H   UNL     1      -0.306  -5.026  12.608  0.00  0.00    +0.165 HD
ENDBRANCH  10  12
ENDBRANCH   3  10
BRANCH   1  19
ATOM     19  O   UNL     1       0.042  -1.988   3.587  0.00  0.00    -0.434 OA
BRANCH  19  28
ATOM     20  C   UNL     1      -4.783  -2.918   2.697  0.00  0.00    +0.065 C 
ATOM     21  C   UNL     1      -3.504  -3.241   1.968  0.00  0.00    +0.039 A 
ATOM     22  C   UNL     1      -3.567  -3.952   0.771  0.00  0.00    +0.023 A 
ATOM     23  C   UNL     1      -2.418  -4.252   0.097  0.00  0.00    +0.012 A 
ATOM     24  C   UNL     1      -1.194  -3.825   0.646  0.00  0.00    +0.004 A 
ATOM     25  C   UNL     1       0.028  -4.097   0.008  0.00  0.00    +0.010 A 
ATOM     26  C   UNL     1       1.192  -3.667   0.569  0.00  0.00    +0.004 A 
ATOM     27  C   UNL     1       1.191  -2.961   1.768  0.00  0.00    +0.048 A 
ATOM     28  C   UNL     1       0.023  -2.678   2.418  0.00  0.00    +0.156 A 
ATOM     29  C   UNL     1      -1.203  -3.106   1.866  0.00  0.00    +0.113 A 
ATOM     30  N   UNL     1      -2.363  -2.840   2.473  0.00  0.00    -0.248 NA
ENDBRANCH  19  28
ENDBRANCH   1  19
TORSDOF 5
