REMARK  Name = ZINC20830356
REMARK  8 active torsions:
REMARK  status: ('A' for Active; 'I' for Inactive)
REMARK    1  A    between atoms: C_5  and  C_7
REMARK    2  A    between atoms: C_10  and  S_13
REMARK    3  A    between atoms: N_11  and  N_12
REMARK    4  A    between atoms: S_13  and  C_14
REMARK    5  A    between atoms: C_14  and  C_15
REMARK    6  A    between atoms: N_17  and  C_18
REMARK    7  A    between atoms: C_21  and  S_24
REMARK    8  A    between atoms: S_24  and  N_27
REMARK                            x       y       z     vdW  Elec       q    Type
REMARK                         _______ _______ _______ _____ _____    ______ ____
ROOT
ATOM      1  C   UNL     1       0.064   1.153   0.028  0.00  0.00    +0.173 C 
ENDROOT
BRANCH   1   2
ATOM      2  C   UNL     1      -0.638   1.632   1.272  0.00  0.00    +0.227 C 
ATOM      3  O   UNL     1      -1.516   2.465   1.192  0.00  0.00    -0.275 OA
ATOM      4  N   UNL     1      -0.290   1.134   2.476  0.00  0.00    -0.285 N 
ATOM      5  H   UNL     1       0.562   0.443   2.559  0.00  0.00    +0.155 HD
BRANCH   4   6
ATOM      6  C   UNL     1      -1.012   1.497   3.618  0.00  0.00    +0.034 A 
ATOM      7  C   UNL     1      -0.367   1.603   4.844  0.00  0.00    +0.025 A 
ATOM      8  C   UNL     1      -1.082   1.967   5.968  0.00  0.00    +0.030 A 
ATOM      9  C   UNL     1      -2.439   2.214   5.877  0.00  0.00    +0.105 A 
ATOM     10  C   UNL     1      -3.085   2.103   4.660  0.00  0.00    +0.030 A 
ATOM     11  C   UNL     1      -2.375   1.745   3.530  0.00  0.00    +0.025 A 
BRANCH   9  12
ATOM     12  S   UNL     1      -3.348   2.671   7.316  0.00  0.00    +0.056 S 
ATOM     13  O   UNL     1      -2.413   3.237   8.224  0.00  0.00    -0.153 OA
ATOM     14  O   UNL     1      -4.495   3.378   6.864  0.00  0.00    -0.153 OA
BRANCH  12  15
ATOM     15  N   UNL     1      -3.898   1.273   8.012  0.00  0.00    -0.204 NA
ATOM     16  H   UNL     1      -4.473   1.516   8.918  0.00  0.00    +0.144 HD
ATOM     17  H   UNL     1      -3.042   0.636   8.281  0.00  0.00    +0.144 HD
ENDBRANCH  12  15
ENDBRANCH   9  12
ENDBRANCH   4   6
ENDBRANCH   1   2
BRANCH   1  18
ATOM     18  S   UNL     1      -0.623   2.002  -1.416  0.00  0.00    -0.075 S 
BRANCH  18  22
ATOM     19  C   UNL     1       1.213   0.743  -4.627  0.00  0.00    +0.183 A 
ATOM     20  N   UNL     1       1.799   0.059  -3.672  0.00  0.00    -0.127 NA
ATOM     21  N   UNL     1       1.296   0.375  -2.533  0.00  0.00    -0.121 NA
ATOM     22  C   UNL     1       0.350   1.274  -2.691  0.00  0.00    +0.209 A 
ATOM     23  N   UNL     1       0.267   1.543  -4.028  0.00  0.00    -0.224 N 
BRANCH  19  28
ATOM     24  C   UNL     1       1.972   1.764  -8.160  0.00  0.00    +0.001 A 
ATOM     25  C   UNL     1       2.076   0.532  -8.781  0.00  0.00    +0.001 A 
ATOM     26  C   UNL     1       1.901  -0.632  -8.055  0.00  0.00    +0.016 A 
ATOM     27  C   UNL     1       1.625  -0.571  -6.703  0.00  0.00    +0.029 A 
ATOM     28  C   UNL     1       1.513   0.670  -6.072  0.00  0.00    +0.035 A 
ATOM     29  C   UNL     1       1.692   1.840  -6.812  0.00  0.00    +0.013 A 
ATOM     30 BR   UNL     1       1.394  -2.164  -5.710  0.00  0.00    -0.050 Br
ENDBRANCH  19  28
BRANCH  23  31
ATOM     31  N   UNL     1      -0.579   2.422  -4.642  0.00  0.00    -0.295 N 
ATOM     32  H   UNL     1      -1.294   3.006  -4.044  0.00  0.00    +0.163 HD
ATOM     33  H   UNL     1      -0.544   2.547  -5.734  0.00  0.00    +0.163 HD
ENDBRANCH  23  31
ENDBRANCH  18  22
ENDBRANCH   1  18
TORSDOF 8
