REMARK  Name = ZINC25702764
REMARK  7 active torsions:
REMARK  status: ('A' for Active; 'I' for Inactive)
REMARK    1  A    between atoms: C_1  and  C_2
REMARK    2  A    between atoms: C_2  and  C_3
REMARK    3  A    between atoms: C_2  and  C_4
REMARK    4  A    between atoms: C_7  and  N_10
REMARK    5  A    between atoms: C_14  and  C_28
REMARK    6  A    between atoms: C_15  and  N_23
REMARK    7  A    between atoms: C_19  and  N_21
REMARK                            x       y       z     vdW  Elec       q    Type
REMARK                         _______ _______ _______ _____ _____    ______ ____
ROOT
ATOM      1  N   UNL     1       4.714  -2.218  -1.695  0.00  0.00    -0.224 N 
ATOM      2  C   UNL     1       3.430  -1.754  -1.424  0.00  0.00    +0.138 A 
ATOM      3  C   UNL     1       3.467  -0.404  -1.120  0.00  0.00    +0.011 A 
ATOM      4  C   UNL     1       2.288   0.268  -0.814  0.00  0.00    +0.016 A 
ATOM      5  C   UNL     1       2.236   1.691  -0.482  0.00  0.00    +0.100 A 
ATOM      6  C   UNL     1       0.979   2.245  -0.192  0.00  0.00    +0.142 A 
ATOM      7  N   UNL     1      -0.122   1.504  -0.219  0.00  0.00    -0.216 NA
ATOM      8  C   UNL     1      -0.127   0.217  -0.514  0.00  0.00    +0.129 A 
ATOM      9  C   UNL     1       1.069  -0.459  -0.823  0.00  0.00    +0.063 A 
ATOM     10  C   UNL     1       1.112  -1.828  -1.142  0.00  0.00    +0.129 A 
ATOM     11  N   UNL     1       2.263  -2.409  -1.424  0.00  0.00    -0.216 NA
ATOM     12  N   UNL     1      -1.320  -0.475  -0.518  0.00  0.00    -0.343 N 
ATOM     13  C   UNL     1       4.913   0.019  -1.209  0.00  0.00    +0.136 C 
ATOM     14  C   UNL     1       5.641  -1.251  -1.593  0.00  0.00    +0.230 C 
ATOM     15  O   UNL     1       6.834  -1.373  -1.775  0.00  0.00    -0.275 OA
ATOM     16  H   UNL     1      -1.333  -1.547  -0.762  0.00  0.00    +0.144 HD
ATOM     17  H   UNL     1      -2.258   0.046  -0.278  0.00  0.00    +0.144 HD
ENDROOT
BRANCH   1  21
ATOM     18  C   UNL     1       5.585  -6.165  -2.707  0.00  0.00    -0.045 A 
ATOM     19  C   UNL     1       6.603  -5.233  -2.626  0.00  0.00    +0.006 A 
ATOM     20  C   UNL     1       6.318  -3.924  -2.291  0.00  0.00    +0.024 A 
ATOM     21  C   UNL     1       5.007  -3.544  -2.035  0.00  0.00    +0.043 A 
ATOM     22  C   UNL     1       3.987  -4.484  -2.112  0.00  0.00    +0.024 A 
ATOM     23  C   UNL     1       4.278  -5.790  -2.453  0.00  0.00    +0.006 A 
BRANCH  18  25
ATOM     24  C   UNL     1       5.463  -8.519  -1.936  0.00  0.00    +0.012 C 
ATOM     25  C   UNL     1       5.900  -7.593  -3.073  0.00  0.00    +0.013 C 
ATOM     26  C   UNL     1       5.151  -7.968  -4.353  0.00  0.00    +0.012 C 
ENDBRANCH  18  25
ENDBRANCH   1  21
BRANCH   6  27
ATOM     27  N   UNL     1       0.886   3.587   0.127  0.00  0.00    -0.314 N 
ATOM     28  C   UNL     1       1.328   4.436  -1.009  0.00  0.00    +0.106 C 
ATOM     29  C   UNL     1       0.681   5.809  -0.698  0.00  0.00    +0.020 C 
ATOM     30  C   UNL     1      -0.692   5.417  -0.105  0.00  0.00    +0.020 C 
ATOM     31  C   UNL     1      -0.516   3.972   0.396  0.00  0.00    +0.106 C 
ENDBRANCH   6  27
BRANCH  10  32
ATOM     32  N   UNL     1      -0.056  -2.568  -1.161  0.00  0.00    -0.343 N 
ATOM     33  H   UNL     1      -0.024  -3.639  -1.410  0.00  0.00    +0.144 HD
ATOM     34  H   UNL     1      -1.016  -2.086  -0.926  0.00  0.00    +0.144 HD
ENDBRANCH  10  32
BRANCH   5  35
ATOM     35  C   UNL     1       3.423   2.490  -0.452  0.00  0.00    +0.103 C 
ATOM     36  N   UNL     1       4.366   3.124  -0.429  0.00  0.00    -0.191 NA
ENDBRANCH   5  35
TORSDOF 5
