REMARK  Name = ZINC45313198
REMARK  10 active torsions:
REMARK  status: ('A' for Active; 'I' for Inactive)
REMARK    1  A    between atoms: C_1  and  C_2
REMARK    2  A    between atoms: C_2  and  C_4
REMARK    3  A    between atoms: C_2  and  N_16
REMARK    4  A    between atoms: N_6  and  C_7
REMARK    5  A    between atoms: C_10  and  C_13
REMARK    6  A    between atoms: N_16  and  C_17
REMARK    7  A    between atoms: N_16  and  C_18
REMARK    8  A    between atoms: C_18  and  C_19
REMARK    9  A    between atoms: N_21  and  C_22
REMARK   10  A    between atoms: C_27  and  C_28
REMARK                            x       y       z     vdW  Elec       q    Type
REMARK                         _______ _______ _______ _____ _____    ______ ____
ROOT
ATOM      1  N   UNL     1       0.289  -1.227  -0.140  0.00  0.00    +0.391 N 
ATOM      2  C   UNL     1      -0.015  -1.139  -1.575  0.00  0.00    -0.094 C 
ATOM      3  H   UNL     1       1.278  -1.387  -0.016  0.00  0.00    -0.080 HD
ENDROOT
BRANCH   1   5
ATOM      4  C   UNL     1       0.616   1.200  -0.171  0.00  0.00    -0.004 C 
ATOM      5  C   UNL     1      -0.089   0.030   0.519  0.00  0.00    +0.017 C 
BRANCH   5   6
ATOM      6  C   UNL     1       0.320  -0.019   1.968  0.00  0.00    +0.203 C 
ATOM      7  O   UNL     1       1.198  -0.776   2.325  0.00  0.00    -0.277 OA
ATOM      8  N   UNL     1      -0.290   0.778   2.868  0.00  0.00    -0.287 N 
ATOM      9  H   UNL     1      -1.039   1.331   2.597  0.00  0.00    +0.155 HD
BRANCH   8  10
ATOM     10  C   UNL     1       0.157   0.807   4.189  0.00  0.00    +0.033 A 
ATOM     11  C   UNL     1       1.518   0.717   4.463  0.00  0.00    +0.024 A 
ATOM     12  C   UNL     1       1.962   0.746   5.766  0.00  0.00    +0.015 A 
ATOM     13  C   UNL     1       1.044   0.866   6.813  0.00  0.00    +0.037 A 
ATOM     14  C   UNL     1      -0.322   0.957   6.534  0.00  0.00    +0.015 A 
ATOM     15  C   UNL     1      -0.759   0.933   5.228  0.00  0.00    +0.024 A 
BRANCH  13  16
ATOM     16  C   UNL     1       1.517   0.897   8.211  0.00  0.00    +0.242 C 
ATOM     17  O   UNL     1       2.706   0.818   8.453  0.00  0.00    -0.270 OA
ATOM     18  N   UNL     1       0.631   1.014   9.220  0.00  0.00    -0.325 N 
ATOM     19  H   UNL     1      -0.318   1.077   9.027  0.00  0.00    +0.145 HD
ATOM     20  H   UNL     1       0.941   1.034  10.138  0.00  0.00    +0.145 HD
ENDBRANCH  13  16
ENDBRANCH   8  10
ENDBRANCH   5   6
ENDBRANCH   1   5
BRANCH   1  21
ATOM     21  C   UNL     1      -0.466  -2.338   0.454  0.00  0.00    +0.020 C 
BRANCH  21  22
ATOM     22  C   UNL     1       0.056  -3.645  -0.085  0.00  0.00    +0.201 C 
ATOM     23  O   UNL     1       0.967  -3.650  -0.886  0.00  0.00    -0.278 OA
ATOM     24  N   UNL     1      -0.490  -4.808   0.322  0.00  0.00    -0.287 N 
ATOM     25  H   UNL     1      -1.265  -4.802   0.905  0.00  0.00    +0.155 HD
BRANCH  24  26
ATOM     26  C   UNL     1       0.061  -6.024  -0.097  0.00  0.00    +0.045 A 
ATOM     27  C   UNL     1       0.701  -6.111  -1.326  0.00  0.00    +0.024 A 
ATOM     28  C   UNL     1       1.244  -7.313  -1.737  0.00  0.00    +0.002 A 
ATOM     29  C   UNL     1       1.150  -8.429  -0.926  0.00  0.00    +0.001 A 
ATOM     30  C   UNL     1       0.512  -8.346   0.298  0.00  0.00    +0.014 A 
ATOM     31  C   UNL     1      -0.027  -7.145   0.718  0.00  0.00    +0.076 A 
BRANCH  31  32
ATOM     32  C   UNL     1      -0.715  -7.053   2.055  0.00  0.00    +0.419 C 
ATOM     33  F   UNL     1      -0.676  -8.301   2.687  0.00  0.00    -0.166 F 
ATOM     34  F   UNL     1      -0.061  -6.107   2.852  0.00  0.00    -0.166 F 
ATOM     35  F   UNL     1      -2.046  -6.667   1.869  0.00  0.00    -0.166 F 
ENDBRANCH  31  32
ENDBRANCH  24  26
ENDBRANCH  21  22
ENDBRANCH   1  21
TORSDOF 8
