REMARK  Name = ZINC22788749
REMARK  7 active torsions:
REMARK  status: ('A' for Active; 'I' for Inactive)
REMARK    1  A    between atoms: C_4  and  N_11
REMARK    2  A    between atoms: C_5  and  C_7
REMARK    3  A    between atoms: C_12  and  C_14
REMARK    4  A    between atoms: C_14  and  N_15
REMARK    5  A    between atoms: N_18  and  C_21
REMARK    6  A    between atoms: C_21  and  C_22
REMARK    7  A    between atoms: C_23  and  O_35
REMARK                            x       y       z     vdW  Elec       q    Type
REMARK                         _______ _______ _______ _____ _____    ______ ____
ROOT
ATOM      1  N   UNL     1       7.215   0.137   0.365  0.00  0.00    -0.298 NA
ATOM      2  C   UNL     1       7.516   1.029   1.494  0.00  0.00    +0.066 C 
ATOM      3  C   UNL     1       8.556   2.064   1.058  0.00  0.00    -0.063 C 
ATOM      4  N   UNL     1       9.777   1.376   0.617  0.00  0.00    +0.384 N 
ATOM      5  C   UNL     1       9.465   0.507  -0.526  0.00  0.00    -0.063 C 
ATOM      6  C   UNL     1       8.432  -0.540  -0.104  0.00  0.00    +0.066 C 
ATOM      7  H   UNL     1      10.140   0.817   1.374  0.00  0.00    -0.081 HD
ENDROOT
BRANCH   1   8
ATOM      8  C   UNL     1       6.177  -0.838   0.727  0.00  0.00    +0.180 C 
BRANCH   8  10
ATOM      9  N   UNL     1       3.774  -0.815   1.311  0.00  0.00    -0.284 N 
ATOM     10  C   UNL     1       4.874  -0.119   0.965  0.00  0.00    +0.231 C 
ATOM     11  O   UNL     1       4.816   1.087   0.846  0.00  0.00    -0.274 OA
ATOM     12  H   UNL     1       3.836  -1.768   1.482  0.00  0.00    +0.155 HD
BRANCH   9  16
ATOM     13  C   UNL     1       0.101   1.123   1.647  0.00  0.00    +0.001 A 
ATOM     14  C   UNL     1       1.123   1.702   0.917  0.00  0.00    +0.002 A 
ATOM     15  C   UNL     1       2.342   1.062   0.803  0.00  0.00    +0.024 A 
ATOM     16  C   UNL     1       2.540  -0.164   1.425  0.00  0.00    +0.045 A 
ATOM     17  C   UNL     1       1.513  -0.743   2.157  0.00  0.00    +0.076 A 
ATOM     18  C   UNL     1       0.296  -0.097   2.266  0.00  0.00    +0.014 A 
BRANCH  17  19
ATOM     19  C   UNL     1       1.724  -2.073   2.833  0.00  0.00    +0.419 C 
ATOM     20  F   UNL     1       0.555  -2.446   3.504  0.00  0.00    -0.166 F 
ATOM     21  F   UNL     1       2.038  -3.039   1.871  0.00  0.00    -0.166 F 
ATOM     22  F   UNL     1       2.775  -1.969   3.750  0.00  0.00    -0.166 F 
ENDBRANCH  17  19
ENDBRANCH   9  16
ENDBRANCH   8  10
ENDBRANCH   1   8
BRANCH   4  23
ATOM     23  C   UNL     1      10.781   2.370   0.216  0.00  0.00    -0.038 C 
BRANCH  23  24
ATOM     24  C   UNL     1      12.070   1.671  -0.131  0.00  0.00    -0.011 A 
ATOM     25  C   UNL     1      12.363   1.368  -1.447  0.00  0.00    +0.119 A 
ATOM     26  C   UNL     1      13.552   0.722  -1.768  0.00  0.00    +0.049 A 
ATOM     27  C   UNL     1      14.451   0.376  -0.782  0.00  0.00    +0.050 A 
ATOM     28  C   UNL     1      14.175   0.672   0.546  0.00  0.00    +0.136 A 
ATOM     29  C   UNL     1      12.975   1.330   0.873  0.00  0.00    +0.028 A 
ATOM     30  C   UNL     1      13.007   1.488   2.325  0.00  0.00    +0.002 A 
ATOM     31  C   UNL     1      14.163   0.951   2.748  0.00  0.00    +0.109 A 
ATOM     32  O   UNL     1      14.846   0.463   1.699  0.00  0.00    -0.459 OA
ATOM     33  C   UNL     1      14.585   0.912   4.199  0.00  0.00    +0.075 C 
ATOM     34  C   UNL     1      13.734   1.918   4.981  0.00  0.00    +0.008 C 
ATOM     35  C   UNL     1      12.253   1.691   4.664  0.00  0.00    +0.005 C 
ATOM     36  C   UNL     1      11.973   2.120   3.219  0.00  0.00    +0.039 C 
BRANCH  25  37
ATOM     37  O   UNL     1      11.486   1.702  -2.431  0.00  0.00    -0.507 OA
ATOM     38  H   UNL     1      11.632   2.581  -2.807  0.00  0.00    +0.292 HD
ENDBRANCH  25  37
ENDBRANCH  23  24
ENDBRANCH   4  23
TORSDOF 7
