REMARK  Name = ZINC65964791
REMARK  8 active torsions:
REMARK  status: ('A' for Active; 'I' for Inactive)
REMARK    1  A    between atoms: C_1  and  C_2
REMARK    2  A    between atoms: C_2  and  C_3
REMARK    3  A    between atoms: C_2  and  N_4
REMARK    4  A    between atoms: C_8  and  C_10
REMARK    5  A    between atoms: C_10  and  C_11
REMARK    6  A    between atoms: C_10  and  N_12
REMARK    7  A    between atoms: C_15  and  C_18
REMARK    8  A    between atoms: N_20  and  C_21
REMARK                            x       y       z     vdW  Elec       q    Type
REMARK                         _______ _______ _______ _____ _____    ______ ____
ROOT
ATOM      1  N   UNL     1      -4.643  -5.236  -1.661  0.00  0.00    +0.387 N 
ATOM      2  C   UNL     1      -3.850  -6.224  -0.919  0.00  0.00    -0.077 C 
ATOM      3  C   UNL     1      -3.833  -7.549  -1.685  0.00  0.00    -0.006 C 
ATOM      4  C   UNL     1      -5.268  -8.059  -1.844  0.00  0.00    +0.071 C 
ATOM      5  C   UNL     1      -6.104  -6.990  -2.553  0.00  0.00    -0.006 C 
ATOM      6  C   UNL     1      -6.037  -5.686  -1.755  0.00  0.00    -0.077 C 
ATOM      7  H   UNL     1      -4.262  -5.130  -2.589  0.00  0.00    -0.081 HD
ENDROOT
BRANCH   4   8
ATOM      8  C   UNL     1      -5.266  -9.323  -2.664  0.00  0.00    +0.216 C 
ATOM      9  O   UNL     1      -4.220  -9.773  -3.082  0.00  0.00    -0.276 OA
ATOM     10  N   UNL     1      -6.426  -9.954  -2.934  0.00  0.00    -0.312 N 
ATOM     11  H   UNL     1      -7.263  -9.594  -2.600  0.00  0.00    +0.149 HD
BRANCH  10  12
ATOM     12  C   UNL     1      -6.424 -11.182  -3.732  0.00  0.00    +0.073 C 
ATOM     13  C   UNL     1      -6.442 -10.824  -5.219  0.00  0.00    +0.022 C 
ATOM     14  C   UNL     1      -6.440 -12.108  -6.053  0.00  0.00    +0.002 C 
ATOM     15  C   UNL     1      -7.679 -12.939  -5.713  0.00  0.00    +0.000 C 
ATOM     16  C   UNL     1      -7.661 -13.296  -4.225  0.00  0.00    +0.002 C 
ATOM     17  C   UNL     1      -7.663 -12.013  -3.392  0.00  0.00    +0.022 C 
ENDBRANCH  10  12
ENDBRANCH   4   8
BRANCH   1  18
ATOM     18  C   UNL     1      -4.592  -3.945  -0.962  0.00  0.00    +0.017 C 
ATOM     19  C   UNL     1      -5.459  -2.928  -1.706  0.00  0.00    -0.004 C 
BRANCH  18  24
ATOM     20  N   UNL     1      -1.093  -1.388   1.118  0.00  0.00    -0.297 N 
ATOM     21  C   UNL     1      -1.494  -2.202   0.121  0.00  0.00    +0.306 C 
ATOM     22  O   UNL     1      -0.707  -2.540  -0.741  0.00  0.00    -0.252 OA
ATOM     23  N   UNL     1      -2.767  -2.641   0.081  0.00  0.00    -0.242 N 
ATOM     24  C   UNL     1      -3.168  -3.455  -0.916  0.00  0.00    +0.207 C 
ATOM     25  O   UNL     1      -2.383  -3.792  -1.776  0.00  0.00    -0.277 OA
ATOM     26  H   UNL     1      -1.721  -1.119   1.806  0.00  0.00    +0.151 HD
ATOM     27  H   UNL     1      -3.396  -2.371   0.769  0.00  0.00    +0.159 HD
BRANCH  20  29
ATOM     28  C   UNL     1       0.352   0.406   1.938  0.00  0.00    +0.027 C 
ATOM     29  C   UNL     1       0.292  -0.911   1.162  0.00  0.00    +0.068 C 
ATOM     30  C   UNL     1       1.168  -1.954   1.859  0.00  0.00    +0.027 C 
ENDBRANCH  20  29
ENDBRANCH  18  24
ENDBRANCH   1  18
TORSDOF 5
