REMARK  Name = ZINC08921853
REMARK  10 active torsions:
REMARK  status: ('A' for Active; 'I' for Inactive)
REMARK    1  A    between atoms: C_1  and  N_55
REMARK    2  A    between atoms: C_2  and  N_55
REMARK    3  A    between atoms: C_3  and  C_4
REMARK    4  A    between atoms: C_3  and  N_55
REMARK    5  A    between atoms: C_4  and  N_5
REMARK    6  A    between atoms: C_6  and  C_26
REMARK    7  A    between atoms: C_9  and  C_10
REMARK    8  A    between atoms: C_9  and  O_21
REMARK    9  A    between atoms: C_16  and  O_19
REMARK   10  A    between atoms: O_19  and  C_20
REMARK                            x       y       z     vdW  Elec       q    Type
REMARK                         _______ _______ _______ _____ _____    ______ ____
ROOT
ATOM      1  N   UNL     1       0.562  -0.886   3.733  0.00  0.00    -0.285 N 
ATOM      2  C   UNL     1      -0.002  -0.900   5.087  0.00  0.00    +0.145 C 
ATOM      3  C   UNL     1       1.002  -1.609   5.965  0.00  0.00    +0.074 C 
ATOM      4  C   UNL     1       0.892  -1.855   7.324  0.00  0.00    +0.168 C 
ATOM      5  C   UNL     1       2.068  -1.968   5.130  0.00  0.00    +0.249 C 
ATOM      6  O   UNL     1       3.076  -2.561   5.472  0.00  0.00    -0.282 OA
ATOM      7  C   UNL     1       1.754  -1.507   3.751  0.00  0.00    +0.288 C 
ATOM      8  O   UNL     1       2.470  -1.665   2.784  0.00  0.00    -0.266 OA
ENDROOT
BRANCH   4   9
ATOM      9  C   UNL     1       2.016  -2.437   8.056  0.00  0.00    +0.171 A 
ATOM     10  C   UNL     1       1.934  -3.483   8.925  0.00  0.00    +0.061 A 
ATOM     11  C   UNL     1       3.246  -3.725   9.404  0.00  0.00    +0.025 A 
ATOM     12  C   UNL     1       3.794  -4.651  10.300  0.00  0.00    +0.012 A 
ATOM     13  C   UNL     1       5.133  -4.627  10.569  0.00  0.00    +0.004 A 
ATOM     14  C   UNL     1       5.957  -3.690   9.960  0.00  0.00    +0.049 A 
ATOM     15  C   UNL     1       5.439  -2.766   9.072  0.00  0.00    +0.163 A 
ATOM     16  C   UNL     1       4.075  -2.773   8.784  0.00  0.00    +0.177 A 
ATOM     17  O   UNL     1       3.298  -2.017   7.981  0.00  0.00    -0.448 OA
BRANCH  15  18
ATOM     18  O   UNL     1       6.256  -1.854   8.482  0.00  0.00    -0.491 OA
ATOM     19  C   UNL     1       7.642  -1.906   8.826  0.00  0.00    +0.277 C 
ENDBRANCH  15  18
ENDBRANCH   4   9
BRANCH   2  20
ATOM     20  C   UNL     1      -0.209   0.511   5.573  0.00  0.00    -0.021 A 
ATOM     21  C   UNL     1      -1.344   0.835   6.294  0.00  0.00    +0.006 A 
ATOM     22  C   UNL     1      -1.534   2.128   6.741  0.00  0.00    +0.001 A 
ATOM     23  C   UNL     1      -0.590   3.100   6.468  0.00  0.00    +0.015 A 
ATOM     24  C   UNL     1       0.545   2.778   5.747  0.00  0.00    +0.018 A 
ATOM     25  C   UNL     1       0.738   1.481   5.304  0.00  0.00    +0.021 A 
ATOM     26 BR   UNL     1       1.838   4.107   5.372  0.00  0.00    -0.050 Br
ENDBRANCH   2  20
BRANCH   4  27
ATOM     27  O   UNL     1      -0.256  -1.557   7.973  0.00  0.00    -0.503 OA
ATOM     28  H   UNL     1      -0.164  -1.797   8.940  0.00  0.00    +0.292 HD
ENDBRANCH   4  27
BRANCH   1  29
ATOM     29  C   UNL     1      -0.074  -0.298   2.552  0.00  0.00    +0.090 C 
BRANCH  29  30
ATOM     30  C   UNL     1       0.349   1.167   2.421  0.00  0.00    -0.060 C 
BRANCH  30  33
ATOM     31  C   UNL     1       0.215   1.136   0.004  0.00  0.00    -0.097 C 
ATOM     32  C   UNL     1      -0.100   3.213   1.208  0.00  0.00    -0.097 C 
ATOM     33  N   UNL     1      -0.316   1.751   1.238  0.00  0.00    +0.377 N 
ATOM     34  H   UNL     1      -1.324   1.565   1.296  0.00  0.00    -0.083 HD
ENDBRANCH  30  33
ENDBRANCH  29  30
ENDBRANCH   1  29
TORSDOF 7
