REMARK  Name = ZINC05897997
REMARK  8 active torsions:
REMARK  status: ('A' for Active; 'I' for Inactive)
REMARK    1  A    between atoms: C_1  and  C_2
REMARK    2  A    between atoms: C_2  and  C_3
REMARK    3  A    between atoms: C_3  and  C_4
REMARK    4  A    between atoms: C_4  and  N_5
REMARK    5  A    between atoms: C_6  and  O_30
REMARK    6  A    between atoms: C_7  and  C_14
REMARK    7  A    between atoms: C_20  and  O_26
REMARK    8  A    between atoms: O_26  and  C_27
REMARK                            x       y       z     vdW  Elec       q    Type
REMARK                         _______ _______ _______ _____ _____    ______ ____
ROOT
ATOM      1  C   UNL     1      -0.613   4.509   3.528  0.00  0.00    +0.018 C 
ATOM      2  C   UNL     1      -1.781   5.462   3.442  0.00  0.00    +0.011 A 
ATOM      3  C   UNL     1      -2.169   6.244   4.480  0.00  0.00    -0.022 A 
ATOM      4  C   UNL     1      -3.313   7.007   4.034  0.00  0.00    +0.006 A 
ATOM      5  C   UNL     1      -4.121   7.962   4.661  0.00  0.00    +0.056 A 
ATOM      6  C   UNL     1      -5.155   8.497   3.907  0.00  0.00    +0.121 A 
ATOM      7  C   UNL     1      -5.382   8.107   2.593  0.00  0.00    +0.047 A 
ATOM      8  C   UNL     1      -4.593   7.165   1.958  0.00  0.00    +0.030 A 
ATOM      9  C   UNL     1      -3.547   6.611   2.692  0.00  0.00    +0.047 A 
ATOM     10  N   UNL     1      -2.601   5.676   2.372  0.00  0.00    -0.359 N 
ATOM     11  H   UNL     1      -2.523   5.232   1.513  0.00  0.00    +0.166 HD
ATOM     12  C   UNL     1      -1.475   6.255   5.819  0.00  0.00    +0.018 C 
ATOM     13  C   UNL     1      -0.109   5.576   5.652  0.00  0.00    -0.076 C 
ATOM     14  N   UNL     1      -0.278   4.287   4.952  0.00  0.00    +0.388 N 
ATOM     15  H   UNL     1       0.596   3.751   5.014  0.00  0.00    -0.084 HD
ATOM     16  H   UNL     1      -1.036   3.757   5.398  0.00  0.00    -0.084 HD
ENDROOT
BRANCH   1  19
ATOM     17  N   UNL     1      -0.698   1.558   1.213  0.00  0.00    -0.265 N 
ATOM     18  C   UNL     1      -0.339   2.757   1.776  0.00  0.00    +0.204 A 
ATOM     19  C   UNL     1      -0.985   3.193   2.894  0.00  0.00    +0.068 A 
ATOM     20  C   UNL     1      -2.000   2.396   3.452  0.00  0.00    +0.260 A 
ATOM     21  O   UNL     1      -2.589   2.764   4.454  0.00  0.00    -0.267 OA
ATOM     22  N   UNL     1      -2.318   1.222   2.871  0.00  0.00    -0.275 N 
ATOM     23  H   UNL     1      -3.040   0.652   3.265  0.00  0.00    +0.173 HD
ATOM     24  C   UNL     1      -1.673   0.811   1.764  0.00  0.00    +0.332 A 
ATOM     25  O   UNL     1      -1.974  -0.251   1.255  0.00  0.00    -0.246 OA
BRANCH  18  26
ATOM     26  O   UNL     1       0.642   3.501   1.224  0.00  0.00    -0.493 OA
ATOM     27  H   UNL     1       1.036   3.108   0.432  0.00  0.00    +0.294 HD
ENDBRANCH  18  26
BRANCH  17  28
ATOM     28  C   UNL     1      -0.013   1.086   0.008  0.00  0.00    +0.130 C 
BRANCH  28  29
ATOM     29  C   UNL     1      -0.753   1.593  -1.232  0.00  0.00    +0.022 C 
BRANCH  29  31
ATOM     30  C   UNL     1      -0.777   1.606  -3.730  0.00  0.00    +0.004 C 
ATOM     31  C   UNL     1      -0.037   1.099  -2.490  0.00  0.00    -0.002 C 
ENDBRANCH  29  31
ENDBRANCH  28  29
ENDBRANCH  17  28
ENDBRANCH   1  19
BRANCH   6  32
ATOM     32  O   UNL     1      -5.969   9.429   4.471  0.00  0.00    -0.495 OA
ATOM     33  C   UNL     1      -7.020   9.950   3.654  0.00  0.00    +0.277 C 
ENDBRANCH   6  32
TORSDOF 6
