REMARK  Name = ZINC05393758
REMARK  6 active torsions:
REMARK  status: ('A' for Active; 'I' for Inactive)
REMARK    1  A    between atoms: C_1  and  N_2
REMARK    2  A    between atoms: N_2  and  C_3
REMARK    3  A    between atoms: N_2  and  C_4
REMARK    4  A    between atoms: C_7  and  C_11
REMARK    5  A    between atoms: N_12  and  N_13
REMARK    6  A    between atoms: C_14  and  C_15
REMARK                            x       y       z     vdW  Elec       q    Type
REMARK                         _______ _______ _______ _____ _____    ______ ____
ROOT
ATOM      1  N   UNL     1      -1.882   3.848   0.048  0.00  0.00    -0.221 N 
ATOM      2  C   UNL     1      -2.315   5.155   0.040  0.00  0.00    +0.142 C 
ATOM      3  H   UNL     1      -2.527   3.123   0.028  0.00  0.00    +0.176 HD
ATOM      4  H   UNL     1      -1.670   7.076   0.243  0.00  0.00    +0.157 HD
ATOM      5  N   UNL     1      -1.393   6.097   0.168  0.00  0.00    -0.384 N 
ATOM      6  H   UNL     1      -0.399   5.841   0.194  0.00  0.00    +0.157 HD
ENDROOT
BRANCH   2   7
ATOM      7  C   UNL     1      -3.758   5.457  -0.116  0.00  0.00    +0.187 A 
ATOM      8  C   UNL     1      -4.901   4.518  -0.163  0.00  0.00    +0.191 A 
ATOM      9  N   UNL     1      -5.927   5.324  -0.312  0.00  0.00    -0.033 NA
ATOM     10  O   UNL     1      -5.538   6.467  -0.350  0.00  0.00    -0.240 OA
ATOM     11  N   UNL     1      -4.345   6.627  -0.242  0.00  0.00    -0.044 NA
ATOM     12  N   UNL     1      -4.892   3.132  -0.071  0.00  0.00    -0.339 N 
ATOM     13  H   UNL     1      -4.048   2.654  -0.038  0.00  0.00    +0.144 HD
ATOM     14  H   UNL     1      -5.728   2.642  -0.040  0.00  0.00    +0.144 HD
ENDBRANCH   2   7
BRANCH   1  16
ATOM     15  C   UNL     1      -0.102   2.332   0.095  0.00  0.00    +0.138 C 
ATOM     16  N   UNL     1      -0.511   3.564   0.087  0.00  0.00    -0.189 NA
BRANCH  15  20
ATOM     17  C   UNL     1       4.055   1.474   0.199  0.00  0.00    +0.043 A 
ATOM     18  C   UNL     1       3.619   2.795   0.190  0.00  0.00    +0.025 A 
ATOM     19  C   UNL     1       2.271   3.077   0.159  0.00  0.00    +0.011 A 
ATOM     20  C   UNL     1       1.341   2.034   0.136  0.00  0.00    -0.004 A 
ATOM     21  C   UNL     1       1.782   0.708   0.145  0.00  0.00    +0.026 A 
ATOM     22  C   UNL     1       3.132   0.433   0.177  0.00  0.00    +0.039 A 
ATOM     23 BR   UNL     1       3.731  -1.361   0.189  0.00  0.00    -0.048 Br
BRANCH  17  25
ATOM     24  C   UNL     1       6.103   1.759  -0.940  0.00  0.00    +0.129 C 
ATOM     25  N   UNL     1       5.421   1.192   0.231  0.00  0.00    -0.335 N 
ATOM     26  C   UNL     1       6.029   1.675   1.478  0.00  0.00    +0.129 C 
ENDBRANCH  17  25
ENDBRANCH  15  20
ENDBRANCH   1  16
TORSDOF 4
