REMARK  Name = ZINC45896261
REMARK  4 active torsions:
REMARK  status: ('A' for Active; 'I' for Inactive)
REMARK    1  A    between atoms: C_1  and  N_2
REMARK    2  A    between atoms: C_11  and  O_12
REMARK    3  A    between atoms: C_13  and  N_14
REMARK    4  A    between atoms: N_17  and  C_18
REMARK                            x       y       z     vdW  Elec       q    Type
REMARK                         _______ _______ _______ _____ _____    ______ ____
ROOT
ATOM      1  C   UNL     1      -0.794   1.575   1.847  0.00  0.00    +0.139 C 
ATOM      2  N   UNL     1      -0.739   0.113   1.921  0.00  0.00    -0.385 N 
ATOM      3  C   UNL     1      -1.497  -0.615   1.128  0.00  0.00    +0.074 A 
ATOM      4  C   UNL     1      -1.479  -2.095   1.189  0.00  0.00    +0.042 A 
ATOM      5  C   UNL     1      -0.661  -2.772   2.088  0.00  0.00    +0.013 A 
ATOM      6  C   UNL     1      -0.673  -4.151   2.115  0.00  0.00    +0.001 A 
ATOM      7  C   UNL     1      -1.496  -4.858   1.252  0.00  0.00    +0.004 A 
ATOM      8  C   UNL     1      -2.311  -4.196   0.357  0.00  0.00    +0.047 A 
ATOM      9  C   UNL     1      -2.312  -2.808   0.316  0.00  0.00    +0.141 A 
ATOM     10  O   UNL     1      -3.103  -2.142  -0.552  0.00  0.00    -0.424 OA
ATOM     11  C   UNL     1      -3.131  -0.801  -0.621  0.00  0.00    +0.309 A 
ATOM     12  C   UNL     1      -2.373  -0.013   0.179  0.00  0.00    +0.140 A 
ATOM     13  H   UNL     1      -0.144  -0.318   2.554  0.00  0.00    +0.159 HD
ENDROOT
BRANCH  12  14
ATOM     14  N   UNL     1      -2.447   1.391   0.070  0.00  0.00    -0.262 N 
ATOM     15  C   UNL     1      -3.637   2.014   0.178  0.00  0.00    +0.308 C 
ATOM     16  O   UNL     1      -4.656   1.362   0.297  0.00  0.00    -0.252 OA
ATOM     17  N   UNL     1      -3.697   3.361   0.154  0.00  0.00    -0.267 N 
ATOM     18  H   UNL     1      -1.640   1.908  -0.083  0.00  0.00    +0.157 HD
ATOM     19  H   UNL     1      -2.895   3.879  -0.017  0.00  0.00    +0.156 HD
BRANCH  17  20
ATOM     20  C   UNL     1      -4.917   4.011   0.377  0.00  0.00    +0.070 A 
ATOM     21  C   UNL     1      -5.848   3.463   1.248  0.00  0.00    +0.026 A 
ATOM     22  C   UNL     1      -7.051   4.106   1.466  0.00  0.00    +0.002 A 
ATOM     23  C   UNL     1      -7.329   5.296   0.818  0.00  0.00    +0.003 A 
ATOM     24  C   UNL     1      -6.405   5.846  -0.051  0.00  0.00    +0.040 A 
ATOM     25  C   UNL     1      -5.196   5.210  -0.269  0.00  0.00    +0.145 A 
ATOM     26  F   UNL     1      -4.290   5.750  -1.114  0.00  0.00    -0.204 F 
ENDBRANCH  17  20
ENDBRANCH  12  14
BRANCH  11  27
ATOM     27  O   UNL     1      -3.954  -0.214  -1.520  0.00  0.00    -0.479 OA
ATOM     28  H   UNL     1      -4.466  -0.839  -2.051  0.00  0.00    +0.295 HD
ENDBRANCH  11  27
TORSDOF 3
