REMARK  Name = ZINC66559568
REMARK  7 active torsions:
REMARK  status: ('A' for Active; 'I' for Inactive)
REMARK    1  A    between atoms: C_2  and  C_3
REMARK    2  A    between atoms: C_3  and  N_4
REMARK    3  A    between atoms: N_4  and  C_5
REMARK    4  A    between atoms: N_4  and  C_17
REMARK    5  A    between atoms: C_5  and  C_6
REMARK    6  A    between atoms: N_8  and  C_9
REMARK    7  A    between atoms: C_10  and  C_14
REMARK                            x       y       z     vdW  Elec       q    Type
REMARK                         _______ _______ _______ _____ _____    ______ ____
ROOT
ATOM      1  C   UNL     1      -3.503  -1.379  -1.808  0.00  0.00    +0.201 C 
ATOM      2  O   UNL     1      -3.211  -0.203  -1.859  0.00  0.00    -0.278 OA
ATOM      3  N   UNL     1      -4.753  -1.776  -2.117  0.00  0.00    -0.281 N 
ATOM      4  H   UNL     1      -4.987  -2.717  -2.076  0.00  0.00    +0.155 HD
ENDROOT
BRANCH   3   5
ATOM      5  C   UNL     1      -5.705  -0.841  -2.494  0.00  0.00    +0.084 A 
ATOM      6  C   UNL     1      -7.030  -1.063  -2.839  0.00  0.00    +0.065 A 
ATOM      7  C   UNL     1      -7.809   0.100  -3.195  0.00  0.00    +0.022 A 
ATOM      8  C   UNL     1      -7.159   1.278  -3.151  0.00  0.00    +0.048 A 
ATOM      9  S   UNL     1      -5.520   0.821  -2.631  0.00  0.00    -0.081 S 
BRANCH   6  10
ATOM     10  C   UNL     1      -7.609  -2.410  -2.843  0.00  0.00    +0.244 C 
ATOM     11  O   UNL     1      -6.924  -3.369  -2.539  0.00  0.00    -0.270 OA
ATOM     12  N   UNL     1      -8.901  -2.587  -3.184  0.00  0.00    -0.325 N 
ATOM     13  H   UNL     1      -9.448  -1.823  -3.427  0.00  0.00    +0.145 HD
ATOM     14  H   UNL     1      -9.285  -3.478  -3.187  0.00  0.00    +0.145 HD
ENDBRANCH   6  10
ENDBRANCH   3   5
BRANCH   1  15
ATOM     15  C   UNL     1      -2.469  -2.396  -1.398  0.00  0.00    +0.020 C 
BRANCH  15  16
ATOM     16  N   UNL     1      -1.198  -1.715  -1.115  0.00  0.00    +0.391 N 
ATOM     17  H   UNL     1      -0.926  -1.164  -1.915  0.00  0.00    -0.080 HD
BRANCH  16  18
ATOM     18  C   UNL     1      -0.160  -2.715  -0.832  0.00  0.00    -0.045 C 
ATOM     19  C   UNL     1       0.034  -3.613  -2.065  0.00  0.00    +0.009 C 
ATOM     20  C   UNL     1       1.333  -4.443  -1.861  0.00  0.00    +0.164 C 
ATOM     21  S   UNL     1       2.437  -3.166  -1.122  0.00  0.00    -0.033 S 
ATOM     22  O   UNL     1       3.172  -2.534  -2.161  0.00  0.00    -0.174 OA
ATOM     23  O   UNL     1       3.130  -3.736  -0.021  0.00  0.00    -0.174 OA
ATOM     24  C   UNL     1       1.167  -1.995  -0.492  0.00  0.00    +0.151 C 
ENDBRANCH  16  18
BRANCH  16  25
ATOM     25  C   UNL     1      -1.363  -0.837   0.051  0.00  0.00    -0.051 C 
BRANCH  25  27
ATOM     26  C   UNL     1      -0.944  -1.573   2.341  0.00  0.00    +0.002 C 
ATOM     27  C   UNL     1      -1.685  -1.669   1.265  0.00  0.00    -0.053 C 
ENDBRANCH  25  27
ENDBRANCH  16  25
ENDBRANCH  15  16
ENDBRANCH   1  15
TORSDOF 7
