REMARK  Name = ZINC04245692
REMARK  6 active torsions:
REMARK  status: ('A' for Active; 'I' for Inactive)
REMARK    1  A    between atoms: C_1  and  O_2
REMARK    2  A    between atoms: O_2  and  C_3
REMARK    3  A    between atoms: C_25  and  O_36
REMARK    4  A    between atoms: C_27  and  O_34
REMARK    5  A    between atoms: C_29  and  C_31
REMARK    6  A    between atoms: O_34  and  C_35
REMARK                            x       y       z     vdW  Elec       q    Type
REMARK                         _______ _______ _______ _____ _____    ______ ____
ROOT
ATOM      1  C   UNL     1       1.392  -0.359   1.271  0.00  0.00    +0.122 A 
ATOM      2  C   UNL     1       1.934   0.340   2.343  0.00  0.00    +0.046 A 
ATOM      3  C   UNL     1       2.461  -0.300   3.437  0.00  0.00    +0.014 A 
ATOM      4  C   UNL     1       2.429  -1.698   3.431  0.00  0.00    +0.003 A 
ATOM      5  C   UNL     1       1.878  -2.419   2.340  0.00  0.00    +0.050 A 
ATOM      6  C   UNL     1       1.344  -1.747   1.243  0.00  0.00    +0.071 A 
ATOM      7  N   UNL     1       1.993  -3.749   2.629  0.00  0.00    -0.359 N 
ATOM      8  H   UNL     1       1.698  -4.472   2.055  0.00  0.00    +0.166 HD
ATOM      9  C   UNL     1       2.589  -3.907   3.851  0.00  0.00    +0.007 A 
ATOM     10  C   UNL     1       2.875  -2.694   4.380  0.00  0.00    -0.022 A 
ATOM     11  C   UNL     1       3.537  -2.511   5.723  0.00  0.00    +0.019 C 
ATOM     12  C   UNL     1       3.458  -3.846   6.478  0.00  0.00    -0.073 C 
ATOM     13  N   UNL     1       3.909  -4.931   5.602  0.00  0.00    +0.386 N 
ATOM     14  C   UNL     1       2.908  -5.199   4.561  0.00  0.00    -0.020 C 
ATOM     15  C   UNL     1       3.466  -6.221   3.570  0.00  0.00    -0.005 C 
ATOM     16  C   UNL     1       3.767  -7.523   4.323  0.00  0.00    +0.006 C 
ATOM     17  C   UNL     1       4.752  -7.227   5.455  0.00  0.00    -0.021 C 
ATOM     18  C   UNL     1       4.147  -6.152   6.380  0.00  0.00    -0.074 C 
ATOM     19  C   UNL     1       5.014  -8.495   6.266  0.00  0.00    +0.036 C 
ATOM     20  C   UNL     1       3.699  -9.015   6.849  0.00  0.00    +0.144 C 
ATOM     21  C   UNL     1       2.728  -9.328   5.708  0.00  0.00    +0.160 C 
ATOM     22  C   UNL     1       2.460  -8.077   4.896  0.00  0.00    +0.136 C 
ATOM     23  H   UNL     1       4.770  -4.654   5.154  0.00  0.00    -0.081 HD
ENDROOT
BRANCH  22  24
ATOM     24  C   UNL     1       1.839  -7.053   5.810  0.00  0.00    +0.362 C 
ATOM     25  O   UNL     1       1.042  -6.244   5.367  0.00  0.00    -0.246 OA
ATOM     26  O   UNL     1       2.135  -7.033   6.993  0.00  0.00    -0.246 OA
ENDBRANCH  22  24
BRANCH   1  28
ATOM     27  C   UNL     1       0.957   1.764   0.292  0.00  0.00    +0.277 C 
ATOM     28  O   UNL     1       0.886   0.338   0.219  0.00  0.00    -0.495 OA
ENDBRANCH   1  28
BRANCH  21  29
ATOM     29  O   UNL     1       3.304 -10.315   4.850  0.00  0.00    -0.376 OA
ATOM     30  C   UNL     1       2.995 -11.660   5.222  0.00  0.00    +0.194 C 
ENDBRANCH  21  29
BRANCH  20  31
ATOM     31  O   UNL     1       3.128  -8.020   7.702  0.00  0.00    -0.389 OA
ATOM     32  H   UNL     1       3.692  -7.770   8.447  0.00  0.00    +0.210 HD
ENDBRANCH  20  31
TORSDOF 4
