REMARK  Name = ZINC36202507
REMARK  13 active torsions:
REMARK  status: ('A' for Active; 'I' for Inactive)
REMARK    1  A    between atoms: C_1  and  C_2
REMARK    2  A    between atoms: C_7  and  C_8
REMARK    3  A    between atoms: C_8  and  C_9
REMARK    4  A    between atoms: C_8  and  C_16
REMARK    5  A    between atoms: C_8  and  O_37
REMARK    6  A    between atoms: C_14  and  C_15
REMARK    7  A    between atoms: C_19  and  C_21
REMARK    8  A    between atoms: C_21  and  N_22
REMARK    9  A    between atoms: N_22  and  C_23
REMARK   10  A    between atoms: N_22  and  C_30
REMARK   11  A    between atoms: C_23  and  C_24
REMARK   12  A    between atoms: C_27  and  C_29
REMARK   13  A    between atoms: C_30  and  C_31
REMARK                            x       y       z     vdW  Elec       q    Type
REMARK                         _______ _______ _______ _____ _____    ______ ____
ROOT
ATOM      1  C   UNL     1      -1.790   0.077   2.642  0.00  0.00    +0.146 A 
ATOM      2  C   UNL     1      -2.328   0.348   3.845  0.00  0.00    +0.048 A 
ATOM      3  C   UNL     1      -3.472   1.146   3.611  0.00  0.00    +0.043 A 
ATOM      4  C   UNL     1      -3.565   1.314   2.280  0.00  0.00    +0.089 A 
ATOM      5  O   UNL     1      -2.540   0.669   1.698  0.00  0.00    -0.463 OA
ENDROOT
BRANCH   1   6
ATOM      6  C   UNL     1      -0.552  -0.747   2.396  0.00  0.00    +0.174 C 
BRANCH   6  13
ATOM      7  C   UNL     1      -2.824  -1.960   1.087  0.00  0.00    +0.044 C 
ATOM      8  C   UNL     1      -1.561  -1.692   0.310  0.00  0.00    -0.044 A 
ATOM      9  C   UNL     1      -1.491  -2.022  -1.031  0.00  0.00    +0.004 A 
ATOM     10  C   UNL     1      -0.333  -1.777  -1.744  0.00  0.00    +0.000 A 
ATOM     11  C   UNL     1       0.756  -1.201  -1.116  0.00  0.00    +0.000 A 
ATOM     12  C   UNL     1       0.686  -0.871   0.224  0.00  0.00    +0.007 A 
ATOM     13  C   UNL     1      -0.474  -1.112   0.936  0.00  0.00    -0.001 A 
ENDBRANCH   6  13
BRANCH   6  14
ATOM     14  C   UNL     1       0.667   0.052   2.780  0.00  0.00    -0.001 A 
ATOM     15  C   UNL     1       1.588  -0.476   3.665  0.00  0.00    +0.007 A 
ATOM     16  C   UNL     1       2.706   0.257   4.018  0.00  0.00    +0.000 A 
ATOM     17  C   UNL     1       2.904   1.517   3.484  0.00  0.00    +0.000 A 
ATOM     18  C   UNL     1       1.983   2.044   2.597  0.00  0.00    +0.004 A 
ATOM     19  C   UNL     1       0.867   1.309   2.242  0.00  0.00    -0.044 A 
ATOM     20  C   UNL     1      -0.134   1.882   1.272  0.00  0.00    +0.044 C 
ENDBRANCH   6  14
BRANCH   6  21
ATOM     21  O   UNL     1      -0.608  -1.938   3.183  0.00  0.00    -0.372 OA
ATOM     22  H   UNL     1      -1.299  -2.558   2.909  0.00  0.00    +0.212 HD
ENDBRANCH   6  21
ENDBRANCH   1   6
BRANCH   4  23
ATOM     23  C   UNL     1      -4.634   2.097   1.563  0.00  0.00    -0.002 C 
BRANCH  23  24
ATOM     24  N   UNL     1      -4.170   3.474   1.346  0.00  0.00    +0.391 N 
ATOM     25  H   UNL     1      -3.887   3.876   2.227  0.00  0.00    -0.080 HD
BRANCH  24  26
ATOM     26  C   UNL     1      -5.260   4.273   0.771  0.00  0.00    -0.002 C 
BRANCH  26  27
ATOM     27  C   UNL     1      -6.409   4.330   1.745  0.00  0.00    +0.089 A 
ATOM     28  C   UNL     1      -6.623   5.298   2.654  0.00  0.00    +0.043 A 
ATOM     29  C   UNL     1      -7.805   4.953   3.349  0.00  0.00    +0.044 A 
ATOM     30  C   UNL     1      -8.243   3.795   2.823  0.00  0.00    +0.102 A 
ATOM     31  O   UNL     1      -7.396   3.425   1.848  0.00  0.00    -0.467 OA
ATOM     32  C   UNL     1      -9.476   3.042   3.252  0.00  0.00    +0.086 C 
ENDBRANCH  26  27
ENDBRANCH  24  26
BRANCH  24  33
ATOM     33  C   UNL     1      -3.028   3.466   0.422  0.00  0.00    -0.046 C 
BRANCH  33  34
ATOM     34  C   UNL     1      -2.505   4.893   0.246  0.00  0.00    +0.102 C 
ATOM     35  C   UNL     1      -1.296   4.893  -0.714  0.00  0.00    +0.032 C 
ATOM     36  C   UNL     1      -0.352   5.935  -0.055  0.00  0.00    +0.030 C 
ATOM     37  C   UNL     1      -0.652   5.696   1.446  0.00  0.00    +0.160 C 
ATOM     38  O   UNL     1      -2.059   5.406   1.507  0.00  0.00    -0.378 OA
ENDBRANCH  33  34
ENDBRANCH  24  33
ENDBRANCH  23  24
ENDBRANCH   4  23
TORSDOF 10
