REMARK  Name = ZINC39695860
REMARK  7 active torsions:
REMARK  status: ('A' for Active; 'I' for Inactive)
REMARK    1  A    between atoms: C_1  and  C_2
REMARK    2  A    between atoms: C_10  and  C_12
REMARK    3  A    between atoms: C_12  and  C_14
REMARK    4  A    between atoms: C_12  and  N_15
REMARK    5  A    between atoms: C_16  and  C_18
REMARK    6  A    between atoms: C_29  and  C_31
REMARK    7  A    between atoms: N_35  and  C_36
REMARK                            x       y       z     vdW  Elec       q    Type
REMARK                         _______ _______ _______ _____ _____    ______ ____
ROOT
ATOM      1  C   UNL     1       0.932  -8.814   1.233  0.00  0.00    +0.100 C 
ATOM      2  C   UNL     1       0.083  -9.734   0.327  0.00  0.00    +0.121 C 
ATOM      3  N   UNL     1       0.891 -10.968   0.186  0.00  0.00    -0.295 N 
ATOM      4  C   UNL     1       1.475 -11.182   1.532  0.00  0.00    +0.115 C 
ATOM      5  C   UNL     1       1.843  -9.768   2.023  0.00  0.00    -0.004 C 
ATOM      6  C   UNL     1       1.571  -9.642   3.518  0.00  0.00    -0.010 C 
ATOM      7  C   UNL     1       2.529 -10.557   4.286  0.00  0.00    -0.082 C 
ATOM      8  N   UNL     1       3.916 -10.179   3.986  0.00  0.00    +0.379 N 
ATOM      9  C   UNL     1       4.196 -10.392   2.562  0.00  0.00    -0.082 C 
ATOM     10  C   UNL     1       3.309  -9.470   1.721  0.00  0.00    -0.010 C 
ATOM     11  C   UNL     1       1.057 -11.725  -0.917  0.00  0.00    +0.265 C 
ATOM     12  O   UNL     1       1.589 -12.816  -0.832  0.00  0.00    -0.268 OA
ATOM     13  H   UNL     1       4.054  -9.206   4.213  0.00  0.00    -0.086 HD
ATOM     14  H   UNL     1       4.544 -10.743   4.540  0.00  0.00    -0.086 HD
ENDROOT
BRANCH  11  15
ATOM     15  C   UNL     1       0.595 -11.234  -2.220  0.00  0.00    +0.124 A 
ATOM     16  C   UNL     1       0.282  -9.944  -2.546  0.00  0.00    +0.143 A 
ATOM     17  N   UNL     1      -0.092  -9.926  -3.825  0.00  0.00    -0.243 NA
ATOM     18  C   UNL     1      -0.029 -11.136  -4.320  0.00  0.00    +0.199 A 
ATOM     19  N   UNL     1       0.397 -11.982  -3.365  0.00  0.00    -0.330 N 
ATOM     20  C   UNL     1       0.607 -13.424  -3.510  0.00  0.00    +0.150 C 
ENDBRANCH  11  15
BRANCH   1  22
ATOM     21  N   UNL     1       0.460  -6.859   2.674  0.00  0.00    -0.305 N 
ATOM     22  C   UNL     1       0.044  -8.039   2.173  0.00  0.00    +0.219 C 
ATOM     23  O   UNL     1      -1.045  -8.477   2.478  0.00  0.00    -0.275 OA
ATOM     24  H   UNL     1       1.331  -6.508   2.429  0.00  0.00    +0.149 HD
BRANCH  21  25
ATOM     25  C   UNL     1      -0.403  -6.106   3.587  0.00  0.00    +0.136 C 
ATOM     26  C   UNL     1      -1.379  -5.250   2.777  0.00  0.00    +0.036 C 
BRANCH  25  36
ATOM     27  C   UNL     1       2.764  -1.776   8.746  0.00  0.00    +0.044 C 
ATOM     28  C   UNL     1       2.523  -2.560   7.481  0.00  0.00    -0.048 A 
ATOM     29  C   UNL     1       3.492  -2.577   6.487  0.00  0.00    +0.005 A 
ATOM     30  C   UNL     1       3.293  -3.281   5.333  0.00  0.00    +0.030 A 
ATOM     31  C   UNL     1       2.105  -3.993   5.148  0.00  0.00    +0.089 A 
ATOM     32  C   UNL     1       1.125  -3.976   6.154  0.00  0.00    +0.067 A 
ATOM     33  C   UNL     1       1.346  -3.259   7.322  0.00  0.00    +0.031 A 
ATOM     34  N   UNL     1       0.086  -4.757   5.688  0.00  0.00    -0.340 N 
ATOM     35  H   UNL     1      -0.745  -4.945   6.151  0.00  0.00    +0.167 HD
ATOM     36  C   UNL     1       0.444  -5.213   4.457  0.00  0.00    +0.128 A 
ATOM     37  N   UNL     1       1.625  -4.766   4.141  0.00  0.00    -0.231 NA
ENDBRANCH  25  36
ENDBRANCH  21  25
ENDBRANCH   1  22
TORSDOF 4
