REMARK  Name = ZINC33068994
REMARK  15 active torsions:
REMARK  status: ('A' for Active; 'I' for Inactive)
REMARK    1  A    between atoms: C_1  and  C_2
REMARK    2  A    between atoms: C_2  and  C_3
REMARK    3  A    between atoms: C_2  and  C_4
REMARK    4  A    between atoms: C_4  and  N_5
REMARK    5  A    between atoms: N_5  and  C_6
REMARK    6  A    between atoms: N_5  and  C_19
REMARK    7  A    between atoms: C_6  and  C_7
REMARK    8  A    between atoms: C_9  and  O_17
REMARK    9  A    between atoms: C_10  and  O_15
REMARK   10  A    between atoms: C_11  and  O_13
REMARK   11  A    between atoms: O_13  and  C_14
REMARK   12  A    between atoms: O_15  and  C_16
REMARK   13  A    between atoms: O_17  and  C_18
REMARK   14  A    between atoms: C_19  and  C_20
REMARK   15  A    between atoms: C_25  and  C_30
REMARK                            x       y       z     vdW  Elec       q    Type
REMARK                         _______ _______ _______ _____ _____    ______ ____
ROOT
ATOM      1  N   UNL     1       1.212  -1.663   0.222  0.00  0.00    +0.386 N 
ATOM      2  H   UNL     1       1.797  -1.124   0.982  0.00  0.00    -0.081 HD
ENDROOT
BRANCH   1   3
ATOM      3  C   UNL     1      -0.196  -1.276   0.379  0.00  0.00    -0.075 C 
BRANCH   3   5
ATOM      4  C   UNL     1       0.301  -0.045   2.495  0.00  0.00    +0.005 C 
ATOM      5  C   UNL     1      -0.533  -1.164   1.867  0.00  0.00    -0.034 C 
ATOM      6  C   UNL     1      -2.020  -0.846   2.031  0.00  0.00    +0.005 C 
ENDBRANCH   3   5
ENDBRANCH   1   3
BRANCH   1   7
ATOM      7  C   UNL     1       1.722  -1.274  -1.099  0.00  0.00    -0.042 C 
BRANCH   7   8
ATOM      8  C   UNL     1       1.749   0.229  -1.204  0.00  0.00    -0.057 A 
ATOM      9  C   UNL     1       0.647   0.906  -1.692  0.00  0.00    +0.051 A 
ATOM     10  C   UNL     1       0.666   2.290  -1.784  0.00  0.00    +0.165 A 
ATOM     11  C   UNL     1       1.800   2.995  -1.399  0.00  0.00    +0.204 A 
ATOM     12  C   UNL     1       2.908   2.310  -0.915  0.00  0.00    +0.165 A 
ATOM     13  C   UNL     1       2.878   0.927  -0.819  0.00  0.00    +0.051 A 
BRANCH  12  14
ATOM     14  O   UNL     1       4.020   2.995  -0.536  0.00  0.00    -0.491 OA
ATOM     15  C   UNL     1       5.121   2.226  -0.049  0.00  0.00    +0.277 C 
ENDBRANCH  12  14
BRANCH  11  16
ATOM     16  O   UNL     1       1.824   4.352  -1.494  0.00  0.00    -0.488 OA
ATOM     17  C   UNL     1       2.296   4.908  -2.723  0.00  0.00    +0.277 C 
ENDBRANCH  11  16
BRANCH  10  18
ATOM     18  O   UNL     1      -0.422   2.955  -2.258  0.00  0.00    -0.491 OA
ATOM     19  C   UNL     1      -1.552   2.166  -2.636  0.00  0.00    +0.277 C 
ENDBRANCH  10  18
ENDBRANCH   7   8
ENDBRANCH   1   7
BRANCH   1  20
ATOM     20  C   UNL     1       1.391  -3.103   0.453  0.00  0.00    -0.022 C 
BRANCH  20  21
ATOM     21  C   UNL     1       1.290  -3.392   1.928  0.00  0.00    +0.033 A 
ATOM     22  C   UNL     1       0.292  -4.208   2.416  0.00  0.00    +0.092 A 
ATOM     23  C   UNL     1       0.215  -4.464   3.785  0.00  0.00    +0.259 A 
ATOM     24  O   UNL     1      -0.667  -5.186   4.224  0.00  0.00    -0.267 OA
ATOM     25  N   UNL     1       1.127  -3.905   4.636  0.00  0.00    -0.255 N 
ATOM     26  C   UNL     1       1.181  -4.064   6.006  0.00  0.00    +0.066 A 
ATOM     27  C   UNL     1       2.139  -3.452   6.729  0.00  0.00    +0.075 A 
ATOM     28  S   UNL     1       3.054  -2.585   5.465  0.00  0.00    -0.057 S 
ATOM     29  C   UNL     1       2.084  -3.108   4.068  0.00  0.00    +0.181 A 
ATOM     30  N   UNL     1       2.165  -2.868   2.782  0.00  0.00    -0.229 NA
BRANCH  26  31
ATOM     31  C   UNL     1       0.178  -4.912   6.687  0.00  0.00    -0.000 A 
ATOM     32  C   UNL     1      -1.176  -4.577   6.631  0.00  0.00    +0.013 A 
ATOM     33  C   UNL     1      -2.108  -5.375   7.263  0.00  0.00    +0.039 A 
ATOM     34  C   UNL     1      -1.701  -6.500   7.960  0.00  0.00    +0.123 A 
ATOM     35  C   UNL     1      -0.357  -6.834   8.023  0.00  0.00    +0.039 A 
ATOM     36  C   UNL     1       0.582  -6.047   7.391  0.00  0.00    +0.013 A 
ATOM     37  F   UNL     1      -2.617  -7.275   8.581  0.00  0.00    -0.205 F 
ENDBRANCH  26  31
ENDBRANCH  20  21
ENDBRANCH   1  20
TORSDOF 10
