REMARK  Name = ZINC04188463
REMARK  11 active torsions:
REMARK  status: ('A' for Active; 'I' for Inactive)
REMARK    1  A    between atoms: C_1  and  C_2
REMARK    2  A    between atoms: C_2  and  C_3
REMARK    3  A    between atoms: C_2  and  C_4
REMARK    4  A    between atoms: C_4  and  C_5
REMARK    5  A    between atoms: C_5  and  N_6
REMARK    6  A    between atoms: C_7  and  C_9
REMARK    7  A    between atoms: C_9  and  N_10
REMARK    8  A    between atoms: N_10  and  C_11
REMARK    9  A    between atoms: C_17  and  C_19
REMARK   10  A    between atoms: C_20  and  N_27
REMARK   11  A    between atoms: C_21  and  C_24
REMARK                            x       y       z     vdW  Elec       q    Type
REMARK                         _______ _______ _______ _____ _____    ______ ____
ROOT
ATOM      1  N   UNL     1       3.631  -0.668  -0.180  0.00  0.00    -0.258 N 
ATOM      2  C   UNL     1       3.644  -1.994   0.059  0.00  0.00    +0.261 C 
ATOM      3  O   UNL     1       4.699  -2.564   0.269  0.00  0.00    -0.269 OA
ENDROOT
BRANCH   1   4
ATOM      4  C   UNL     1       2.413   0.006  -0.312  0.00  0.00    +0.037 A 
ATOM      5  C   UNL     1       1.743   0.461   0.816  0.00  0.00    +0.023 A 
ATOM      6  C   UNL     1       0.540   1.127   0.682  0.00  0.00    +0.002 A 
ATOM      7  C   UNL     1       0.004   1.342  -0.575  0.00  0.00    +0.000 A 
ATOM      8  C   UNL     1       0.669   0.890  -1.700  0.00  0.00    +0.002 A 
ATOM      9  C   UNL     1       1.871   0.224  -1.573  0.00  0.00    +0.023 A 
ENDBRANCH   1   4
BRANCH   2  10
ATOM     10  C   UNL     1       2.390  -2.749   0.067  0.00  0.00    +0.116 A 
ATOM     11  C   UNL     1       2.182  -4.118   0.250  0.00  0.00    +0.076 A 
ATOM     12  C   UNL     1       0.832  -4.465   0.192  0.00  0.00    +0.155 A 
ATOM     13  N   UNL     1      -0.065  -3.527  -0.017  0.00  0.00    -0.203 NA
ATOM     14  S   UNL     1       0.720  -2.167  -0.145  0.00  0.00    +0.019 S 
BRANCH  12  15
ATOM     15  C   UNL     1       0.416  -5.869   0.362  0.00  0.00    +0.262 C 
ATOM     16  O   UNL     1       1.251  -6.732   0.555  0.00  0.00    -0.269 OA
ATOM     17  N   UNL     1      -0.890  -6.197   0.305  0.00  0.00    -0.324 N 
ATOM     18  H   UNL     1      -1.556  -5.509   0.151  0.00  0.00    +0.145 HD
ATOM     19  H   UNL     1      -1.164  -7.121   0.417  0.00  0.00    +0.145 HD
ENDBRANCH  12  15
BRANCH  11  20
ATOM     20  N   UNL     1       3.204  -5.031   0.466  0.00  0.00    -0.355 N 
ATOM     21  H   UNL     1       4.126  -4.730   0.497  0.00  0.00    +0.142 HD
ATOM     22  H   UNL     1       2.998  -5.971   0.587  0.00  0.00    +0.142 HD
ENDBRANCH  11  20
ENDBRANCH   2  10
BRANCH   1  23
ATOM     23  C   UNL     1       4.892   0.067  -0.301  0.00  0.00    +0.209 C 
BRANCH  23  25
ATOM     24  N   UNL     1       6.451   1.280   1.189  0.00  0.00    -0.314 N 
ATOM     25  C   UNL     1       5.312   0.571   1.056  0.00  0.00    +0.231 C 
ATOM     26  O   UNL     1       4.625   0.339   2.028  0.00  0.00    -0.274 OA
ATOM     27  H   UNL     1       7.000   1.465   0.411  0.00  0.00    +0.149 HD
BRANCH  24  28
ATOM     28  C   UNL     1       6.859   1.770   2.508  0.00  0.00    +0.104 C 
BRANCH  28  29
ATOM     29  C   UNL     1       8.176   2.538   2.381  0.00  0.00    +0.022 C 
BRANCH  29  31
ATOM     30  C   UNL     1       8.913   1.861   4.671  0.00  0.00    +0.007 C 
ATOM     31  C   UNL     1       8.603   3.049   3.759  0.00  0.00    -0.016 C 
ATOM     32  C   UNL     1       9.852   3.921   3.615  0.00  0.00    +0.007 C 
ENDBRANCH  29  31
ENDBRANCH  28  29
ENDBRANCH  24  28
ENDBRANCH  23  25
ENDBRANCH   1  23
TORSDOF 9
