REMARK  Name = ZINC66448287
REMARK  5 active torsions:
REMARK  status: ('A' for Active; 'I' for Inactive)
REMARK    1  A    between atoms: C_1  and  C_2
REMARK    2  A    between atoms: C_12  and  C_16
REMARK    3  A    between atoms: N_18  and  C_19
REMARK    4  A    between atoms: N_24  and  C_26
REMARK    5  A    between atoms: C_26  and  C_27
REMARK                            x       y       z     vdW  Elec       q    Type
REMARK                         _______ _______ _______ _____ _____    ______ ____
ROOT
ATOM      1  C   UNL     1       1.883  -6.685   1.479  0.00  0.00    +0.246 C 
ATOM      2  O   UNL     1       1.678  -6.775   0.284  0.00  0.00    -0.270 OA
ATOM      3  N   UNL     1       2.210  -7.782   2.191  0.00  0.00    -0.310 N 
ATOM      4  H   UNL     1       2.374  -7.710   3.144  0.00  0.00    +0.149 HD
ENDROOT
BRANCH   1  15
ATOM      5  C   UNL     1      -0.019   1.526   0.010  0.00  0.00    +0.008 C 
ATOM      6  C   UNL     1       0.002  -0.004   0.002  0.00  0.00    -0.009 C 
ATOM      7  C   UNL     1       0.720  -0.498  -1.257  0.00  0.00    +0.009 C 
ATOM      8  C   UNL     1       0.525  -2.013  -1.393  0.00  0.00    +0.054 C 
ATOM      9  C   UNL     1       0.882  -2.665  -0.079  0.00  0.00    +0.020 A 
ATOM     10  C   UNL     1       0.979  -1.994   1.089  0.00  0.00    -0.019 A 
ATOM     11  C   UNL     1       1.339  -2.962   2.106  0.00  0.00    +0.004 A 
ATOM     12  C   UNL     1       1.574  -2.851   3.479  0.00  0.00    +0.010 A 
ATOM     13  C   UNL     1       1.906  -4.012   4.158  0.00  0.00    +0.001 A 
ATOM     14  C   UNL     1       2.004  -5.233   3.522  0.00  0.00    +0.015 A 
ATOM     15  C   UNL     1       1.775  -5.376   2.149  0.00  0.00    +0.061 A 
ATOM     16  C   UNL     1       1.436  -4.209   1.438  0.00  0.00    +0.059 A 
ATOM     17  N   UNL     1       1.154  -3.993   0.127  0.00  0.00    -0.357 N 
ATOM     18  H   UNL     1       1.145  -4.676  -0.562  0.00  0.00    +0.166 HD
ATOM     19  C   UNL     1       0.745  -0.513   1.243  0.00  0.00    +0.040 C 
ENDBRANCH   1  15
BRANCH   3  20
ATOM     20  C   UNL     1       2.318  -9.082   1.525  0.00  0.00    +0.057 C 
ATOM     21  C   UNL     1       3.719  -9.236   0.926  0.00  0.00    +0.018 C 
ATOM     22  C   UNL     1       3.847 -10.628   0.302  0.00  0.00    -0.017 C 
ATOM     23  C   UNL     1       3.551 -11.688   1.366  0.00  0.00    -0.078 C 
ATOM     24  N   UNL     1       2.189 -11.503   1.880  0.00  0.00    +0.387 N 
ATOM     25  C   UNL     1       2.078 -10.199   2.543  0.00  0.00    -0.056 C 
ATOM     26  H   UNL     1       1.533 -11.546   1.114  0.00  0.00    -0.081 HD
BRANCH  24  27
ATOM     27  C   UNL     1       1.882 -12.569   2.843  0.00  0.00    +0.018 C 
BRANCH  27  28
ATOM     28  C   UNL     1       1.865 -13.898   2.134  0.00  0.00    +0.194 C 
ATOM     29  O   UNL     1       2.087 -13.953   0.942  0.00  0.00    -0.278 OA
ATOM     30  N   UNL     1       1.604 -15.027   2.822  0.00  0.00    -0.331 N 
ATOM     31  H   UNL     1       1.427 -14.983   3.775  0.00  0.00    +0.145 HD
ATOM     32  H   UNL     1       1.593 -15.882   2.366  0.00  0.00    +0.145 HD
ENDBRANCH  27  28
ENDBRANCH  24  27
ENDBRANCH   3  20
TORSDOF 4
