REMARK  Name = ZINC07238872
REMARK  14 active torsions:
REMARK  status: ('A' for Active; 'I' for Inactive)
REMARK    1  A    between atoms: C_3  and  N_30
REMARK    2  A    between atoms: C_6  and  C_7
REMARK    3  A    between atoms: C_7  and  C_9
REMARK    4  A    between atoms: C_7  and  O_29
REMARK    5  A    between atoms: C_9  and  C_11
REMARK    6  A    between atoms: C_9  and  N_53
REMARK    7  A    between atoms: C_11  and  O_12
REMARK    8  A    between atoms: C_13  and  C_14
REMARK    9  A    between atoms: C_13  and  N_53
REMARK   10  A    between atoms: C_14  and  C_16
REMARK   11  A    between atoms: C_14  and  O_28
REMARK   12  A    between atoms: C_16  and  O_17
REMARK   13  A    between atoms: O_17  and  C_18
REMARK   14  A    between atoms: C_18  and  C_19
REMARK                            x       y       z     vdW  Elec       q    Type
REMARK                         _______ _______ _______ _____ _____    ______ ____
ROOT
ATOM      1  N   UNK A   1       1.000   7.758   4.521  0.00  0.00    +0.386 N 
ATOM      2  H   UNK A   1       0.219   7.289   4.995  0.00  0.00    -0.085 HD
ATOM      3  H   UNK A   1       1.887   7.456   4.942  0.00  0.00    -0.085 HD
ENDROOT
BRANCH   1   4
ATOM      4  C   UNK A   1       0.859   9.218   4.678  0.00  0.00    -0.012 C 
BRANCH   4   5
ATOM      5  C   UNK A   1       1.472   9.641   6.014  0.00  0.00    +0.133 C 
BRANCH   5  11
ATOM      6  C   UNK A   1       3.313   7.973   6.319  0.00  0.00    +0.008 A 
ATOM      7  C   UNK A   1       4.653   7.633   6.334  0.00  0.00    +0.033 A 
ATOM      8  C   UNK A   1       5.613   8.594   6.078  0.00  0.00    +0.126 A 
ATOM      9  C   UNK A   1       5.232   9.894   5.801  0.00  0.00    +0.033 A 
ATOM     10  C   UNK A   1       3.892  10.233   5.781  0.00  0.00    +0.008 A 
ATOM     11  C   UNK A   1       2.933   9.272   6.037  0.00  0.00    -0.020 A 
BRANCH   8  12
ATOM     12  N   UNK A   1       7.048   8.232   6.100  0.00  0.00    +0.056 N 
ATOM     13  O   UNK A   1       7.893   9.078   5.874  0.00  0.00    -0.126 OA
ATOM     14  O   UNK A   1       7.383   7.086   6.343  0.00  0.00    -0.126 OA
ENDBRANCH   8  12
ENDBRANCH   5  11
BRANCH   5  15
ATOM     15  O   UNK A   1       0.795   8.973   7.081  0.00  0.00    -0.389 OA
ATOM     16  H   UNK A   1       0.846   8.008   7.036  0.00  0.00    +0.210 HD
ENDBRANCH   5  15
ENDBRANCH   4   5
BRANCH   4  17
ATOM     17  C   UNK A   1      -0.624   9.593   4.655  0.00  0.00    +0.143 C 
BRANCH  17  18
ATOM     18  O   UNK A   1      -1.278   9.019   5.789  0.00  0.00    -0.397 OA
ATOM     19  H   UNK A   1      -2.223   9.216   5.839  0.00  0.00    +0.209 HD
ENDBRANCH  17  18
ENDBRANCH   4  17
ENDBRANCH   1   4
BRANCH   1  20
ATOM     20  C   UNK A   0       0.992   7.393   3.091  0.00  0.00    -0.048 C 
BRANCH  20  21
ATOM     21  C   UNK A   0       1.140   5.876   2.960  0.00  0.00    +0.123 C 
BRANCH  21  22
ATOM     22  O   UNK A   0       2.373   5.465   3.554  0.00  0.00    -0.391 OA
ATOM     23  H   UNK A   0       3.156   5.864   3.150  0.00  0.00    +0.210 HD
ENDBRANCH  21  22
BRANCH  21  24
ATOM     24  C   UNK A   0       1.132   5.489   1.480  0.00  0.00    +0.189 C 
BRANCH  24  25
ATOM     25  O   UNK A   0       1.153   4.066   1.360  0.00  0.00    -0.373 OA
BRANCH  25  26
ATOM     26  C   UNK A   0       1.147   3.596   0.010  0.00  0.00    +0.195 C 
BRANCH  26  27
ATOM     27  C   UNK A   0       1.171   2.089   0.002  0.00  0.00    -0.018 A 
ATOM     28  C   UNK A   0       2.379   1.418  -0.011  0.00  0.00    +0.010 A 
ATOM     29  C   UNK A   0       2.405   0.036  -0.020  0.00  0.00    +0.050 A 
ATOM     30  C   UNK A   0       1.220  -0.680  -0.013  0.00  0.00    +0.166 A 
ATOM     31  C   UNK A   0       0.002  -0.004   0.002  0.00  0.00    +0.167 A 
ATOM     32  C   UNK A   0      -0.017   1.381   0.010  0.00  0.00    +0.055 A 
ATOM     33  O   UNK A   0      -1.007  -0.923   0.006  0.00  0.00    -0.453 OA
ATOM     34  C   UNK A   0      -0.404  -2.159  -0.418  0.00  0.00    +0.466 C 
ATOM     35  O   UNK A   0       0.973  -2.023  -0.018  0.00  0.00    -0.453 OA
ENDBRANCH  26  27
ENDBRANCH  25  26
ENDBRANCH  24  25
ENDBRANCH  21  24
ENDBRANCH  20  21
ENDBRANCH   1  20
TORSDOF 14
