REMARK  Name = ZINC59170398
REMARK  7 active torsions:
REMARK  status: ('A' for Active; 'I' for Inactive)
REMARK    1  A    between atoms: C_1  and  C_2
REMARK    2  A    between atoms: C_5  and  S_8
REMARK    3  A    between atoms: S_8  and  N_11
REMARK    4  A    between atoms: N_11  and  N_12
REMARK    5  A    between atoms: C_14  and  C_24
REMARK    6  A    between atoms: C_19  and  O_23
REMARK    7  A    between atoms: N_26  and  C_27
REMARK                            x       y       z     vdW  Elec       q    Type
REMARK                         _______ _______ _______ _____ _____    ______ ____
ROOT
ATOM      1  N   UNL     1       3.299  -3.613  -0.171  0.00  0.00    -0.260 N 
ATOM      2  C   UNL     1       4.391  -4.287   0.054  0.00  0.00    +0.225 A 
ATOM      3  C   UNL     1       5.050  -4.253   1.381  0.00  0.00    +0.099 A 
ATOM      4  C   UNL     1       5.809  -5.345   1.734  0.00  0.00    +0.030 A 
ATOM      5  C   UNL     1       5.903  -6.447   0.773  0.00  0.00    +0.018 A 
ATOM      6  C   UNL     1       6.424  -7.688   1.158  0.00  0.00    +0.015 A 
ATOM      7  C   UNL     1       6.501  -8.705   0.249  0.00  0.00    +0.046 A 
ATOM      8  C   UNL     1       6.064  -8.516  -1.059  0.00  0.00    +0.120 A 
ATOM      9  C   UNL     1       5.546  -7.292  -1.458  0.00  0.00    +0.092 A 
ATOM     10  C   UNL     1       5.463  -6.252  -0.550  0.00  0.00    +0.141 A 
ATOM     11  O   UNL     1       4.961  -5.050  -0.923  0.00  0.00    -0.437 OA
ATOM     12  H   UNL     1       2.861  -3.142   0.555  0.00  0.00    +0.189 HD
ENDROOT
BRANCH   3  13
ATOM     13  C   UNL     1       4.899  -3.101   2.282  0.00  0.00    +0.253 C 
ATOM     14  O   UNL     1       4.159  -2.184   1.979  0.00  0.00    -0.270 OA
ATOM     15  N   UNL     1       5.581  -3.060   3.444  0.00  0.00    -0.281 N 
ATOM     16  H   UNL     1       6.240  -3.743   3.644  0.00  0.00    +0.155 HD
BRANCH  15  17
ATOM     17  C   UNL     1       5.339  -2.033   4.361  0.00  0.00    +0.034 A 
ATOM     18  C   UNL     1       4.066  -1.488   4.477  0.00  0.00    +0.023 A 
ATOM     19  C   UNL     1       3.830  -0.474   5.383  0.00  0.00    +0.002 A 
ATOM     20  C   UNL     1       4.860   0.000   6.176  0.00  0.00    +0.000 A 
ATOM     21  C   UNL     1       6.128  -0.539   6.063  0.00  0.00    +0.002 A 
ATOM     22  C   UNL     1       6.369  -1.558   5.163  0.00  0.00    +0.023 A 
ENDBRANCH  15  17
ENDBRANCH   3  13
BRANCH   1  23
ATOM     23  N   UNL     1       2.758  -3.567  -1.462  0.00  0.00    -0.157 N 
ATOM     24  H   UNL     1       3.153  -4.096  -2.173  0.00  0.00    +0.194 HD
BRANCH  23  25
ATOM     25  S   UNL     1       1.442  -2.611  -1.776  0.00  0.00    +0.085 S 
ATOM     26  O   UNL     1       0.401  -3.060  -0.919  0.00  0.00    -0.149 OA
ATOM     27  O   UNL     1       1.300  -2.566  -3.189  0.00  0.00    -0.149 OA
BRANCH  25  32
ATOM     28  C   UNL     1       2.839   2.985  -0.005  0.00  0.00    +0.044 C 
ATOM     29  C   UNL     1       2.490   1.588  -0.447  0.00  0.00    -0.050 A 
ATOM     30  C   UNL     1       2.859   1.148  -1.705  0.00  0.00    +0.005 A 
ATOM     31  C   UNL     1       2.540  -0.134  -2.111  0.00  0.00    +0.029 A 
ATOM     32  C   UNL     1       1.851  -0.977  -1.258  0.00  0.00    +0.110 A 
ATOM     33  C   UNL     1       1.483  -0.538  -0.000  0.00  0.00    +0.029 A 
ATOM     34  C   UNL     1       1.806   0.743   0.407  0.00  0.00    +0.005 A 
ENDBRANCH  25  32
ENDBRANCH  23  25
ENDBRANCH   1  23
BRANCH   8  35
ATOM     35  O   UNL     1       6.146  -9.537  -1.950  0.00  0.00    -0.507 OA
ATOM     36  H   UNL     1       5.360 -10.100  -1.977  0.00  0.00    +0.292 HD
ENDBRANCH   8  35
TORSDOF 6
