REMARK  Name = ZINC66981025
REMARK  4 active torsions:
REMARK  status: ('A' for Active; 'I' for Inactive)
REMARK    1  A    between atoms: C_1  and  C_2
REMARK    2  A    between atoms: N_4  and  C_5
REMARK    3  A    between atoms: C_7  and  N_13
REMARK    4  A    between atoms: N_16  and  C_17
REMARK                            x       y       z     vdW  Elec       q    Type
REMARK                         _______ _______ _______ _____ _____    ______ ____
ROOT
ATOM      1  N   UNL     1       1.490  -4.696  -0.094  0.00  0.00    -0.267 N 
ATOM      2  C   UNL     1       2.620  -3.991   0.112  0.00  0.00    +0.304 C 
ATOM      3  O   UNL     1       2.574  -2.779   0.189  0.00  0.00    -0.252 OA
ATOM      4  N   UNL     1       3.800  -4.630   0.233  0.00  0.00    -0.292 N 
ATOM      5  H   UNL     1       1.535  -5.655  -0.236  0.00  0.00    +0.156 HD
ATOM      6  H   UNL     1       3.837  -5.598   0.171  0.00  0.00    +0.151 HD
ENDROOT
BRANCH   4   7
ATOM      7  C   UNL     1       5.028  -3.864   0.457  0.00  0.00    +0.111 C 
ATOM      8  C   UNL     1       6.060  -4.749   1.159  0.00  0.00    +0.068 C 
ATOM      9  C   UNL     1       7.417  -4.035   1.117  0.00  0.00    +0.231 C 
ATOM     10  O   UNL     1       7.829  -3.932  -0.247  0.00  0.00    -0.492 OA
ATOM     11  C   UNL     1       6.932  -3.452  -1.146  0.00  0.00    +0.125 A 
ATOM     12  C   UNL     1       5.578  -3.398  -0.868  0.00  0.00    +0.015 A 
ATOM     13  C   UNL     1       4.699  -2.905  -1.817  0.00  0.00    +0.009 A 
ATOM     14  C   UNL     1       5.168  -2.466  -3.040  0.00  0.00    +0.001 A 
ATOM     15  C   UNL     1       6.521  -2.518  -3.320  0.00  0.00    +0.004 A 
ATOM     16  C   UNL     1       7.400  -3.007  -2.378  0.00  0.00    +0.046 A 
ENDBRANCH   4   7
BRANCH   1  19
ATOM     17  C   UNL     1      -1.140  -2.203   0.566  0.00  0.00    +0.071 A 
ATOM     18  C   UNL     1       0.089  -2.846   0.577  0.00  0.00    +0.052 A 
ATOM     19  C   UNL     1       0.249  -4.045  -0.103  0.00  0.00    +0.072 A 
ATOM     20  C   UNL     1      -0.823  -4.598  -0.795  0.00  0.00    +0.147 A 
ATOM     21  C   UNL     1      -2.048  -3.956  -0.804  0.00  0.00    +0.080 A 
ATOM     22  C   UNL     1      -2.211  -2.763  -0.122  0.00  0.00    +0.147 A 
ATOM     23  F   UNL     1      -3.409  -2.140  -0.128  0.00  0.00    -0.203 F 
ATOM     24  F   UNL     1      -0.668  -5.765  -1.458  0.00  0.00    -0.203 F 
BRANCH  17  28
ATOM     25  C   UNL     1      -0.595   0.656   2.955  0.00  0.00    +0.109 C 
ATOM     26  C   UNL     1      -0.503  -0.696   2.295  0.00  0.00    +0.214 C 
ATOM     27  O   UNL     1       0.292  -1.516   2.703  0.00  0.00    -0.276 OA
ATOM     28  N   UNL     1      -1.304  -0.993   1.253  0.00  0.00    -0.283 N 
ATOM     29  H   UNL     1      -1.994  -0.369   0.979  0.00  0.00    +0.155 HD
ENDBRANCH  17  28
ENDBRANCH   1  19
TORSDOF 3
