REMARK  Name = ZINC59169285
REMARK  14 active torsions:
REMARK  status: ('A' for Active; 'I' for Inactive)
REMARK    1  A    between atoms: C_1  and  C_2
REMARK    2  A    between atoms: C_2  and  C_36
REMARK    3  A    between atoms: C_4  and  N_10
REMARK    4  A    between atoms: C_6  and  C_8
REMARK    5  A    between atoms: C_6  and  C_9
REMARK    6  A    between atoms: N_10  and  C_11
REMARK    7  A    between atoms: N_10  and  C_20
REMARK    8  A    between atoms: C_11  and  C_12
REMARK    9  A    between atoms: C_17  and  O_18
REMARK   10  A    between atoms: O_18  and  C_19
REMARK   11  A    between atoms: C_20  and  N_22
REMARK   12  A    between atoms: N_22  and  C_23
REMARK   13  A    between atoms: C_26  and  O_29
REMARK   14  A    between atoms: O_29  and  C_30
REMARK                            x       y       z     vdW  Elec       q    Type
REMARK                         _______ _______ _______ _____ _____    ______ ____
ROOT
ATOM      1  N   UNL     1       2.568  -0.756  -2.454  0.00  0.00    -0.305 N 
ENDROOT
BRANCH   1   5
ATOM      2  C   UNL     1       0.475   2.228   0.019  0.00  0.00    -0.010 C 
ATOM      3  C   UNL     1       0.206   0.723   0.122  0.00  0.00    -0.072 C 
ATOM      4  C   UNL     1       0.647   0.031  -1.164  0.00  0.00    +0.009 C 
ATOM      5  C   UNL     1       2.172  -0.059  -1.224  0.00  0.00    +0.073 C 
ATOM      6  C   UNL     1       2.650  -0.862  -0.014  0.00  0.00    +0.009 C 
ATOM      7  C   UNL     1       2.224  -0.178   1.280  0.00  0.00    -0.072 C 
ATOM      8  N   UNL     1       0.812   0.159   1.315  0.00  0.00    +0.386 N 
ATOM      9  C   UNL     1       3.098   1.057   1.525  0.00  0.00    -0.010 C 
ATOM     10  C   UNL     1       2.501  -1.165   2.438  0.00  0.00    -0.010 C 
ATOM     11  C   UNL     1      -1.325   0.543   0.241  0.00  0.00    -0.010 C 
ATOM     12  H   UNL     1       0.656   0.809   2.092  0.00  0.00    -0.084 HD
ATOM     13  H   UNL     1       0.288  -0.684   1.572  0.00  0.00    -0.084 HD
ENDBRANCH   1   5
BRANCH   1  14
ATOM     14  C   UNL     1       2.168  -2.025  -2.669  0.00  0.00    +0.138 C 
ATOM     15  S   UNL     1       1.130  -2.796  -1.547  0.00  0.00    -0.018 S 
BRANCH  14  16
ATOM     16  N   UNL     1       2.586  -2.687  -3.766  0.00  0.00    -0.297 N 
ATOM     17  H   UNL     1       3.241  -3.398  -3.683  0.00  0.00    +0.154 HD
BRANCH  16  18
ATOM     18  C   UNL     1       2.075  -2.348  -5.025  0.00  0.00    +0.033 A 
ATOM     19  C   UNL     1       1.183  -1.292  -5.152  0.00  0.00    +0.027 A 
ATOM     20  C   UNL     1       0.680  -0.958  -6.393  0.00  0.00    +0.048 A 
ATOM     21  C   UNL     1       1.065  -1.678  -7.515  0.00  0.00    +0.129 A 
ATOM     22  C   UNL     1       1.957  -2.734  -7.389  0.00  0.00    +0.048 A 
ATOM     23  C   UNL     1       2.465  -3.065  -6.149  0.00  0.00    +0.027 A 
BRANCH  21  24
ATOM     24  O   UNL     1       0.570  -1.349  -8.737  0.00  0.00    -0.456 OA
BRANCH  24  25
ATOM     25  C   UNL     1      -0.208  -0.239  -8.833  0.00  0.00    +0.128 A 
ATOM     26  C   UNL     1       0.373   1.020  -8.808  0.00  0.00    +0.046 A 
ATOM     27  C   UNL     1      -0.420   2.147  -8.905  0.00  0.00    +0.004 A 
ATOM     28  C   UNL     1      -1.792   2.021  -9.028  0.00  0.00    +0.000 A 
ATOM     29  C   UNL     1      -2.373   0.767  -9.052  0.00  0.00    +0.004 A 
ATOM     30  C   UNL     1      -1.584  -0.364  -8.961  0.00  0.00    +0.046 A 
ENDBRANCH  24  25
ENDBRANCH  21  24
ENDBRANCH  16  18
ENDBRANCH  14  16
ENDBRANCH   1  14
BRANCH   1  31
ATOM     31  C   UNL     1       3.397  -0.071  -3.449  0.00  0.00    +0.145 C 
BRANCH  31  32
ATOM     32  C   UNL     1       4.847  -0.169  -3.048  0.00  0.00    +0.011 A 
ATOM     33  C   UNL     1       5.441   0.862  -2.346  0.00  0.00    +0.009 A 
ATOM     34  C   UNL     1       6.771   0.773  -1.978  0.00  0.00    +0.001 A 
ATOM     35  C   UNL     1       7.509  -0.348  -2.312  0.00  0.00    +0.004 A 
ATOM     36  C   UNL     1       6.920  -1.381  -3.013  0.00  0.00    +0.046 A 
ATOM     37  C   UNL     1       5.584  -1.297  -3.379  0.00  0.00    +0.125 A 
BRANCH  37  38
ATOM     38  O   UNL     1       5.000  -2.315  -4.064  0.00  0.00    -0.495 OA
ATOM     39  C   UNL     1       5.819  -3.445  -4.370  0.00  0.00    +0.277 C 
ENDBRANCH  37  38
ENDBRANCH  31  32
ENDBRANCH   1  31
TORSDOF 9
