REMARK  Name = ZINC50440482
REMARK  4 active torsions:
REMARK  status: ('A' for Active; 'I' for Inactive)
REMARK    1  A    between atoms: C_3  and  O_10
REMARK    2  A    between atoms: C_6  and  C_7
REMARK    3  A    between atoms: O_10  and  C_11
REMARK    4  A    between atoms: C_14  and  N_18
REMARK                            x       y       z     vdW  Elec       q    Type
REMARK                         _______ _______ _______ _____ _____    ______ ____
ROOT
ATOM      1  C   UNL     1      -0.017   1.398   0.010  0.00  0.00    +0.018 A 
ATOM      2  C   UNL     1       1.188   2.070   0.002  0.00  0.00    +0.068 A 
ATOM      3  C   UNL     1       2.373   1.341  -0.013  0.00  0.00    +0.221 A 
ATOM      4  N   UNL     1       2.358   0.017  -0.020  0.00  0.00    -0.220 NA
ATOM      5  C   UNL     1       1.231  -0.664  -0.013  0.00  0.00    +0.125 A 
ATOM      6  C   UNL     1       0.002  -0.004   0.002  0.00  0.00    +0.030 A 
ENDROOT
BRANCH   6   7
ATOM      7  C   UNL     1      -1.261  -0.771   0.010  0.00  0.00    +0.096 C 
ATOM      8  N   UNL     1      -1.231  -2.103   0.003  0.00  0.00    -0.387 N 
ATOM      9  N   UNL     1      -2.429  -0.131   0.025  0.00  0.00    -0.345 N 
ATOM     10  H   UNL     1      -0.381  -2.569  -0.008  0.00  0.00    +0.157 HD
ATOM     11  H   UNL     1      -2.451   0.839   0.031  0.00  0.00    +0.144 HD
ATOM     12  H   UNL     1      -3.258  -0.634   0.031  0.00  0.00    +0.144 HD
ATOM     13  H   UNL     1      -2.060  -2.607   0.009  0.00  0.00    +0.157 HD
ENDBRANCH   6   7
BRANCH   3  14
ATOM     14  O   UNL     1       3.560   1.995  -0.022  0.00  0.00    -0.435 OA
BRANCH  14  15
ATOM     15  C   UNL     1       4.698   1.252  -0.036  0.00  0.00    +0.167 A 
ATOM     16  C   UNL     1       5.289   0.861   1.157  0.00  0.00    +0.087 A 
ATOM     17  C   UNL     1       6.447   0.105   1.139  0.00  0.00    +0.056 A 
ATOM     18  C   UNL     1       7.016  -0.261  -0.067  0.00  0.00    +0.129 A 
ATOM     19  C   UNL     1       6.430   0.127  -1.257  0.00  0.00    +0.056 A 
ATOM     20  C   UNL     1       5.269   0.878  -1.245  0.00  0.00    +0.087 A 
ATOM     21 CL   UNL     1       4.530   1.359  -2.741  0.00  0.00    -0.080 Cl
ATOM     22 CL   UNL     1       4.576   1.321   2.671  0.00  0.00    -0.080 Cl
BRANCH  18  23
ATOM     23  N   UNL     1       8.255  -1.070  -0.083  0.00  0.00    +0.057 N 
ATOM     24  O   UNL     1       8.769  -1.410   0.958  0.00  0.00    -0.126 OA
ATOM     25  O   UNL     1       8.754  -1.391  -1.136  0.00  0.00    -0.126 OA
ENDBRANCH  18  23
ENDBRANCH  14  15
ENDBRANCH   3  14
TORSDOF 4
