REMARK  Name = ZINC22592675
REMARK  10 active torsions:
REMARK  status: ('A' for Active; 'I' for Inactive)
REMARK    1  A    between atoms: C_1  and  C_2
REMARK    2  A    between atoms: C_5  and  C_26
REMARK    3  A    between atoms: C_6  and  N_8
REMARK    4  A    between atoms: C_9  and  C_11
REMARK    5  A    between atoms: C_11  and  C_12
REMARK    6  A    between atoms: C_12  and  C_14
REMARK    7  A    between atoms: C_12  and  N_17
REMARK    8  A    between atoms: N_17  and  C_18
REMARK    9  A    between atoms: C_18  and  C_19
REMARK   10  A    between atoms: C_19  and  N_20
REMARK                            x       y       z     vdW  Elec       q    Type
REMARK                         _______ _______ _______ _____ _____    ______ ____
ROOT
ATOM      1  C   UNK A   1      -1.433  -0.534  -0.008  0.00  0.00    +0.052 C 
ENDROOT
BRANCH   1   2
ATOM      2  C   UNK A   1      -1.413  -2.038   0.092  0.00  0.00    +0.343 C 
ATOM      3  O   UNK A   1      -1.911  -2.708  -0.780  0.00  0.00    -0.248 OA
ATOM      4  O   UNK A   1      -0.840  -2.632   1.151  0.00  0.00    -0.248 OA
ENDBRANCH   1   2
BRANCH   1   5
ATOM      5  N   UNK A   1      -2.110  -0.135  -1.249  0.00  0.00    +0.389 N 
ATOM      6  H   UNK A   1      -1.756   0.860  -1.556  0.00  0.00    -0.085 HD
ATOM      7  H   UNK A   1      -1.885  -0.865  -2.040  0.00  0.00    -0.085 HD
BRANCH   5   8
ATOM      8  C   UNK A   0      -3.566  -0.079  -1.059  0.00  0.00    -0.066 C 
BRANCH   8   9
ATOM      9  C   UNK A   0      -4.235   0.339  -2.370  0.00  0.00    +0.065 C 
BRANCH   9  10
ATOM     10  N   UNK A   0      -5.691   0.395  -2.181  0.00  0.00    -0.308 NA
ATOM     11  C   UNK A   0      -6.034   1.103  -0.940  0.00  0.00    +0.065 C 
ATOM     12  C   UNK A   0      -7.551   1.070  -0.739  0.00  0.00    -0.067 C 
ATOM     13  N   UNK A   0      -8.209   1.692  -1.897  0.00  0.00    +0.381 N 
ATOM     14  C   UNK A   0      -7.866   0.984  -3.138  0.00  0.00    -0.067 C 
ATOM     15  C   UNK A   0      -6.349   1.017  -3.338  0.00  0.00    +0.065 C 
ATOM     16  H   UNK A   0      -9.300   1.659  -1.760  0.00  0.00    -0.086 HD
ATOM     17  H   UNK A   0      -7.882   2.739  -1.985  0.00  0.00    -0.086 HD
ENDBRANCH   9  10
ENDBRANCH   8   9
ENDBRANCH   5   8
ENDBRANCH   1   5
BRANCH   1  18
ATOM     18  C   UNK A   1       0.003  -0.004  -0.017  0.00  0.00    +0.091 C 
BRANCH  18  20
ATOM     19  N   UNK A   1       1.139   2.192   0.003  0.00  0.00    -0.285 N 
ATOM     20  C   UNK A   1      -0.018   1.502   0.006  0.00  0.00    +0.216 C 
ATOM     21  O   UNK A   1      -1.077   2.094   0.024  0.00  0.00    -0.276 OA
ATOM     22  H   UNK A   1       2.098   1.658   0.077  0.00  0.00    +0.155 HD
BRANCH  19  28
ATOM     23  C   UNK A   1      -1.143   6.306  -1.425  0.00  0.00    +0.044 C 
ATOM     24  C   UNK A   1       0.028   5.608  -0.782  0.00  0.00    -0.049 A 
ATOM     25  C   UNK A   1       1.087   6.348  -0.289  0.00  0.00    +0.004 A 
ATOM     26  C   UNK A   1       2.163   5.712   0.301  0.00  0.00    +0.005 A 
ATOM     27  C   UNK A   1       2.181   4.334   0.405  0.00  0.00    -0.029 A 
ATOM     28  C   UNK A   1       1.122   3.588  -0.095  0.00  0.00    +0.037 A 
ATOM     29  C   UNK A   1       0.042   4.231  -0.687  0.00  0.00    +0.027 A 
ATOM     30  C   UNK A   1       3.352   3.642   1.054  0.00  0.00    +0.045 C 
ENDBRANCH  19  28
ENDBRANCH  18  20
ENDBRANCH   1  18
TORSDOF 8
