REMARK  Name = ZINC38570158
REMARK  5 active torsions:
REMARK  status: ('A' for Active; 'I' for Inactive)
REMARK    1  A    between atoms: C_1  and  O_2
REMARK    2  A    between atoms: O_2  and  C_3
REMARK    3  A    between atoms: C_10  and  C_18
REMARK    4  A    between atoms: C_20  and  O_31
REMARK    5  A    between atoms: N_22  and  C_28
REMARK                            x       y       z     vdW  Elec       q    Type
REMARK                         _______ _______ _______ _____ _____    ______ ____
ROOT
ATOM      1  C   UNL     1       0.657  -0.678  -0.885  0.00  0.00    +0.121 A 
ATOM      2  C   UNL     1       1.183   0.110  -1.905  0.00  0.00    +0.047 A 
ATOM      3  C   UNL     1       1.773  -0.471  -3.006  0.00  0.00    +0.030 A 
ATOM      4  C   UNL     1       1.846  -1.856  -3.107  0.00  0.00    +0.047 A 
ATOM      5  N   UNL     1       2.362  -2.708  -4.063  0.00  0.00    -0.356 N 
ATOM      6  C   UNL     1       2.179  -4.003  -3.679  0.00  0.00    +0.038 A 
ATOM      7  H   UNL     1       2.792  -2.426  -4.886  0.00  0.00    +0.166 HD
ATOM      8  C   UNL     1       2.592  -5.251  -4.424  0.00  0.00    +0.117 C 
ATOM      9  N   UNL     1       2.570  -6.383  -3.483  0.00  0.00    -0.307 NA
ATOM     10  C   UNL     1       1.288  -6.465  -2.770  0.00  0.00    +0.086 C 
ATOM     11  C   UNL     1       1.187  -5.309  -1.765  0.00  0.00    +0.052 C 
ATOM     12  C   UNL     1       1.550  -4.036  -2.486  0.00  0.00    -0.016 A 
ATOM     13  C   UNL     1       1.315  -2.657  -2.077  0.00  0.00    +0.007 A 
ATOM     14  C   UNL     1       0.725  -2.055  -0.963  0.00  0.00    +0.056 A 
ATOM     15  H   UNL     1       2.777  -7.250  -3.955  0.00  0.00    +0.123 HD
ENDROOT
BRANCH   8  16
ATOM     16  C   UNL     1       4.005  -5.073  -4.983  0.00  0.00    +0.145 C 
ATOM     17  C   UNL     1       4.374  -6.288  -5.838  0.00  0.00    +0.218 C 
ATOM     18  N   UNL     1       4.633  -7.437  -4.969  0.00  0.00    -0.283 N 
ATOM     19  C   UNL     1       5.226  -7.280  -3.774  0.00  0.00    +0.141 C 
ATOM     20  S   UNL     1       5.641  -8.666  -2.858  0.00  0.00    -0.018 S 
ATOM     21  N   UNL     1       5.502  -6.061  -3.281  0.00  0.00    -0.267 N 
ATOM     22  C   UNL     1       4.986  -4.952  -3.844  0.00  0.00    +0.228 C 
ATOM     23  O   UNL     1       5.310  -3.857  -3.436  0.00  0.00    -0.275 OA
ATOM     24  H   UNL     1       6.081  -5.979  -2.507  0.00  0.00    +0.157 HD
BRANCH  18  25
ATOM     25  C   UNL     1       4.239  -8.778  -5.408  0.00  0.00    +0.078 C 
ATOM     26  C   UNL     1       5.287  -9.889  -5.314  0.00  0.00    +0.024 C 
ATOM     27  C   UNL     1       4.891  -9.325  -6.680  0.00  0.00    +0.024 C 
ENDBRANCH  18  25
BRANCH  17  28
ATOM     28  O   UNL     1       3.294  -6.593  -6.722  0.00  0.00    -0.373 OA
ATOM     29  H   UNL     1       3.458  -7.354  -7.295  0.00  0.00    +0.212 HD
ENDBRANCH  17  28
ENDBRANCH   8  16
BRANCH   1  31
ATOM     30  C   UNL     1       0.045   1.339   0.216  0.00  0.00    +0.277 C 
ATOM     31  O   UNL     1       0.078  -0.090   0.195  0.00  0.00    -0.495 OA
ENDBRANCH   1  31
TORSDOF 4
