REMARK  Name = ZINC52094532
REMARK  8 active torsions:
REMARK  status: ('A' for Active; 'I' for Inactive)
REMARK    1  A    between atoms: C_1  and  C_2
REMARK    2  A    between atoms: C_2  and  C_3
REMARK    3  A    between atoms: C_3  and  C_4
REMARK    4  A    between atoms: C_4  and  C_5
REMARK    5  A    between atoms: C_5  and  C_6
REMARK    6  A    between atoms: C_6  and  C_8
REMARK    7  A    between atoms: C_6  and  N_21
REMARK    8  A    between atoms: N_21  and  C_22
REMARK                            x       y       z     vdW  Elec       q    Type
REMARK                         _______ _______ _______ _____ _____    ______ ____
ROOT
ATOM      1  C   UNL     1       2.286  -4.535  -3.707  0.00  0.00    -0.045 A 
ATOM      2  C   UNL     1       1.655  -4.860  -4.891  0.00  0.00    +0.031 A 
ATOM      3  C   UNL     1       2.400  -5.306  -5.972  0.00  0.00    +0.067 A 
ATOM      4  C   UNL     1       3.787  -5.426  -5.858  0.00  0.00    +0.068 A 
ATOM      5  C   UNL     1       4.413  -5.098  -4.665  0.00  0.00    +0.043 A 
ATOM      6  C   UNL     1       3.662  -4.649  -3.595  0.00  0.00    +0.022 A 
ATOM      7 BR   UNL     1       4.516  -4.193  -1.971  0.00  0.00    -0.050 Br
ATOM      8  N   UNL     1       4.253  -5.889  -7.086  0.00  0.00    -0.306 N 
ATOM      9  H   UNL     1       5.179  -6.070  -7.310  0.00  0.00    +0.170 HD
ATOM     10  C   UNL     1       3.199  -6.045  -7.909  0.00  0.00    +0.325 A 
ATOM     11  O   UNL     1       3.259  -6.437  -9.059  0.00  0.00    -0.247 OA
ATOM     12  N   UNL     1       2.067  -5.701  -7.266  0.00  0.00    -0.306 N 
ATOM     13  H   UNL     1       1.172  -5.724  -7.639  0.00  0.00    +0.170 HD
ENDROOT
BRANCH   1  14
ATOM     14  C   UNL     1       1.476  -4.051  -2.532  0.00  0.00    -0.040 C 
BRANCH  14  15
ATOM     15  N   UNL     1       0.102  -4.558  -2.643  0.00  0.00    +0.382 N 
ATOM     16  C   UNL     1       0.111  -6.023  -2.531  0.00  0.00    -0.100 C 
ATOM     17  H   UNL     1      -0.462  -4.168  -1.902  0.00  0.00    -0.085 HD
ATOM     18  H   UNL     1      -0.285  -4.292  -3.536  0.00  0.00    -0.085 HD
ENDBRANCH  14  15
BRANCH  14  19
ATOM     19  C   UNL     1       1.455  -2.521  -2.524  0.00  0.00    -0.011 C 
BRANCH  19  20
ATOM     20  C   UNL     1       0.739  -2.027  -1.265  0.00  0.00    -0.001 C 
BRANCH  20  21
ATOM     21  C   UNL     1       0.718  -0.497  -1.257  0.00  0.00    -0.000 C 
BRANCH  21  23
ATOM     22  C   UNL     1      -0.019   1.526   0.010  0.00  0.00    +0.004 C 
ATOM     23  C   UNL     1       0.002  -0.004   0.002  0.00  0.00    -0.003 C 
ENDBRANCH  21  23
ENDBRANCH  20  21
ENDBRANCH  19  20
ENDBRANCH  14  19
ENDBRANCH   1  14
TORSDOF 6
