REMARK  Name = ZINC13424713
REMARK  10 active torsions:
REMARK  status: ('A' for Active; 'I' for Inactive)
REMARK    1  A    between atoms: C_3  and  O_37
REMARK    2  A    between atoms: C_6  and  C_7
REMARK    3  A    between atoms: C_13  and  O_36
REMARK    4  A    between atoms: C_15  and  O_19
REMARK    5  A    between atoms: O_19  and  C_20
REMARK    6  A    between atoms: C_22  and  O_35
REMARK    7  A    between atoms: C_24  and  O_34
REMARK    8  A    between atoms: C_26  and  O_33
REMARK    9  A    between atoms: C_28  and  C_31
REMARK   10  A    between atoms: C_31  and  O_32
REMARK                            x       y       z     vdW  Elec       q    Type
REMARK                         _______ _______ _______ _____ _____    ______ ____
ROOT
ATOM      1  C   UNL     1       1.442   1.988  -0.001  0.00  0.00    +0.211 C 
ATOM      2  C   UNL     1      -0.018   1.514   0.010  0.00  0.00    +0.129 C 
ATOM      3  C   UNL     1       0.002  -0.004   0.002  0.00  0.00    +0.174 C 
ATOM      4  O   UNL     1      -0.772  -0.656   0.672  0.00  0.00    -0.292 OA
ATOM      5  C   UNL     1       1.005  -0.642  -0.857  0.00  0.00    +0.101 A 
ATOM      6  C   UNL     1       0.943  -2.018  -1.132  0.00  0.00    +0.134 A 
ATOM      7  C   UNL     1       1.908  -2.597  -1.936  0.00  0.00    +0.092 A 
ATOM      8  C   UNL     1       2.929  -1.819  -2.467  0.00  0.00    +0.131 A 
ATOM      9  C   UNL     1       2.993  -0.456  -2.204  0.00  0.00    +0.092 A 
ATOM     10  C   UNL     1       2.036   0.144  -1.404  0.00  0.00    +0.139 A 
ATOM     11  O   UNL     1       2.097   1.474  -1.161  0.00  0.00    -0.483 OA
ENDROOT
BRANCH   1  17
ATOM     12  C   UNL     1       1.295   4.169  -1.220  0.00  0.00    +0.011 A 
ATOM     13  C   UNL     1       1.325   5.550  -1.246  0.00  0.00    +0.046 A 
ATOM     14  C   UNL     1       1.555   6.259  -0.076  0.00  0.00    +0.117 A 
ATOM     15  C   UNL     1       1.747   5.580   1.118  0.00  0.00    +0.046 A 
ATOM     16  C   UNL     1       1.710   4.199   1.140  0.00  0.00    +0.011 A 
ATOM     17  C   UNL     1       1.482   3.494  -0.028  0.00  0.00    -0.007 A 
BRANCH  14  18
ATOM     18  O   UNL     1       1.591   7.618  -0.100  0.00  0.00    -0.507 OA
ATOM     19  H   UNL     1       2.471   7.985  -0.263  0.00  0.00    +0.292 HD
ENDBRANCH  14  18
ENDBRANCH   1  17
BRANCH   6  20
ATOM     20  O   UNL     1      -0.057  -2.773  -0.613  0.00  0.00    -0.506 OA
ATOM     21  H   UNL     1      -0.842  -2.827  -1.175  0.00  0.00    +0.292 HD
ENDBRANCH   6  20
BRANCH   8  22
ATOM     22  O   UNL     1       3.874  -2.396  -3.252  0.00  0.00    -0.461 OA
BRANCH  22  23
ATOM     23  C   UNL     1       3.754  -3.800  -3.486  0.00  0.00    +0.339 C 
ATOM     24  C   UNL     1       4.825  -4.245  -4.484  0.00  0.00    +0.214 C 
ATOM     25  C   UNL     1       6.211  -3.991  -3.881  0.00  0.00    +0.180 C 
ATOM     26  C   UNL     1       6.317  -4.732  -2.545  0.00  0.00    +0.177 C 
ATOM     27  C   UNL     1       5.188  -4.269  -1.621  0.00  0.00    +0.179 C 
ATOM     28  O   UNL     1       3.929  -4.505  -2.255  0.00  0.00    -0.331 OA
BRANCH  26  29
ATOM     29  O   UNL     1       6.205  -6.139  -2.769  0.00  0.00    -0.386 OA
ATOM     30  H   UNL     1       6.888  -6.501  -3.350  0.00  0.00    +0.210 HD
ENDBRANCH  26  29
BRANCH  25  31
ATOM     31  O   UNL     1       7.216  -4.471  -4.776  0.00  0.00    -0.386 OA
ATOM     32  H   UNL     1       7.203  -4.049  -5.646  0.00  0.00    +0.210 HD
ENDBRANCH  25  31
BRANCH  24  33
ATOM     33  O   UNL     1       4.687  -3.501  -5.696  0.00  0.00    -0.383 OA
ATOM     34  H   UNL     1       3.830  -3.612  -6.130  0.00  0.00    +0.210 HD
ENDBRANCH  24  33
BRANCH  27  35
ATOM     35  C   UNL     1       5.251  -5.048  -0.306  0.00  0.00    +0.190 C 
BRANCH  35  36
ATOM     36  O   UNL     1       4.272  -4.535   0.599  0.00  0.00    -0.392 OA
ATOM     37  H   UNL     1       4.255  -4.984   1.456  0.00  0.00    +0.210 HD
ENDBRANCH  35  36
ENDBRANCH  27  35
ENDBRANCH  22  23
ENDBRANCH   8  22
TORSDOF 10
