REMARK  Name = ZINC36024679
REMARK  5 active torsions:
REMARK  status: ('A' for Active; 'I' for Inactive)
REMARK    1  A    between atoms: C_3  and  C_31
REMARK    2  A    between atoms: C_5  and  S_7
REMARK    3  A    between atoms: S_7  and  N_10
REMARK    4  A    between atoms: N_20  and  C_21
REMARK    5  A    between atoms: C_21  and  C_22
REMARK                            x       y       z     vdW  Elec       q    Type
REMARK                         _______ _______ _______ _____ _____    ______ ____
ROOT
ATOM      1  N   UNL     1       2.210  -5.274   3.364  0.00  0.00    -0.177 NA
ATOM      2  C   UNL     1       2.805  -4.859   4.642  0.00  0.00    +0.109 C 
ATOM      3  C   UNL     1       1.835  -5.210   5.774  0.00  0.00    +0.023 C 
ATOM      4  C   UNL     1       0.468  -4.597   5.479  0.00  0.00    +0.006 C 
ATOM      5  C   UNL     1      -0.090  -5.147   4.168  0.00  0.00    +0.023 C 
ATOM      6  C   UNL     1       0.867  -4.791   3.019  0.00  0.00    +0.109 C 
ATOM      7  N   UNL     1      -0.465  -4.901   6.585  0.00  0.00    +0.399 N 
ATOM      8  C   UNL     1      -1.322  -3.692   6.644  0.00  0.00    +0.018 C 
ATOM      9  C   UNL     1      -0.463  -2.582   6.081  0.00  0.00    +0.198 C 
ATOM     10  O   UNL     1      -0.668  -1.393   6.208  0.00  0.00    -0.278 OA
ATOM     11  N   UNL     1       0.570  -3.137   5.413  0.00  0.00    -0.310 N 
ATOM     12  H   UNL     1      -1.016  -5.719   6.371  0.00  0.00    -0.082 HD
ATOM     13  H   UNL     1       0.037  -5.024   7.451  0.00  0.00    -0.082 HD
ENDROOT
BRANCH   1  14
ATOM     14  S   UNL     1       3.042  -6.264   2.329  0.00  0.00    +0.061 S 
ATOM     15  O   UNL     1       2.071  -6.912   1.518  0.00  0.00    -0.153 OA
ATOM     16  O   UNL     1       3.978  -6.984   3.119  0.00  0.00    -0.153 OA
BRANCH  14  21
ATOM     17  C   UNL     1       4.169  -3.973  -0.774  0.00  0.00    +0.002 A 
ATOM     18  C   UNL     1       5.453  -3.600  -0.424  0.00  0.00    +0.012 A 
ATOM     19  C   UNL     1       6.001  -4.040   0.765  0.00  0.00    +0.057 A 
ATOM     20  C   UNL     1       5.265  -4.854   1.607  0.00  0.00    +0.041 A 
ATOM     21  C   UNL     1       3.980  -5.226   1.258  0.00  0.00    +0.106 A 
ATOM     22  C   UNL     1       3.433  -4.787   0.067  0.00  0.00    +0.028 A 
BRANCH  19  23
ATOM     23  C   UNL     1       7.402  -3.634   1.146  0.00  0.00    +0.417 C 
ATOM     24  F   UNL     1       7.939  -2.818   0.145  0.00  0.00    -0.166 F 
ATOM     25  F   UNL     1       7.371  -2.931   2.355  0.00  0.00    -0.166 F 
ATOM     26  F   UNL     1       8.195  -4.777   1.292  0.00  0.00    -0.166 F 
ENDBRANCH  19  23
ENDBRANCH  14  21
ENDBRANCH   1  14
BRANCH  11  27
ATOM     27  C   UNL     1       1.631  -2.394   4.728  0.00  0.00    +0.141 C 
BRANCH  27  28
ATOM     28  C   UNL     1       2.727  -2.064   5.709  0.00  0.00    -0.026 A 
ATOM     29  C   UNL     1       2.412  -1.771   7.023  0.00  0.00    +0.009 A 
ATOM     30  C   UNL     1       3.413  -1.468   7.926  0.00  0.00    +0.050 A 
ATOM     31  C   UNL     1       4.737  -1.458   7.516  0.00  0.00    +0.166 A 
ATOM     32  C   UNL     1       5.054  -1.753   6.193  0.00  0.00    +0.167 A 
ATOM     33  C   UNL     1       4.046  -2.061   5.294  0.00  0.00    +0.054 A 
ATOM     34  O   UNL     1       6.409  -1.676   6.042  0.00  0.00    -0.453 OA
ATOM     35  C   UNL     1       6.881  -0.934   7.182  0.00  0.00    +0.466 C 
ATOM     36  O   UNL     1       5.892  -1.196   8.194  0.00  0.00    -0.453 OA
ENDBRANCH  27  28
ENDBRANCH  11  27
TORSDOF 5
