REMARK  Name = ZINC36660287
REMARK  12 active torsions:
REMARK  status: ('A' for Active; 'I' for Inactive)
REMARK    1  A    between atoms: C_1  and  C_2
REMARK    2  A    between atoms: C_2  and  C_3
REMARK    3  A    between atoms: N_12  and  C_13
REMARK    4  A    between atoms: C_13  and  C_14
REMARK    5  A    between atoms: C_14  and  C_15
REMARK    6  A    between atoms: C_15  and  N_16
REMARK    7  A    between atoms: N_16  and  C_17
REMARK    8  A    between atoms: N_16  and  C_18
REMARK    9  A    between atoms: C_19  and  C_21
REMARK   10  A    between atoms: N_26  and  S_27
REMARK   11  A    between atoms: S_27  and  C_30
REMARK   12  A    between atoms: C_33  and  C_36
REMARK                            x       y       z     vdW  Elec       q    Type
REMARK                         _______ _______ _______ _____ _____    ______ ____
ROOT
ATOM      1  C   UNL     1      -1.698   0.760   0.069  0.00  0.00    -0.021 A 
ATOM      2  C   UNL     1      -2.352   0.911   1.264  0.00  0.00    +0.006 A 
ATOM      3  C   UNL     1      -3.730   1.061   1.323  0.00  0.00    +0.001 A 
ATOM      4  C   UNL     1      -4.462   1.058   0.149  0.00  0.00    +0.017 A 
ATOM      5  C   UNL     1      -3.816   0.907  -1.052  0.00  0.00    +0.041 A 
ATOM      6  C   UNL     1      -2.413   0.757  -1.151  0.00  0.00    +0.083 A 
ATOM      7  N   UNL     1      -1.926   0.625  -2.403  0.00  0.00    -0.224 NA
ATOM      8  C   UNL     1      -2.697   0.638  -3.465  0.00  0.00    +0.168 A 
ATOM      9  S   UNL     1      -4.323   0.844  -2.753  0.00  0.00    -0.052 S 
ATOM     10  N   UNL     1      -2.341   0.515  -4.798  0.00  0.00    -0.249 N 
ATOM     11  C   UNL     1      -1.040   0.476  -5.148  0.00  0.00    +0.240 C 
ATOM     12  O   UNL     1      -0.729   0.292  -6.306  0.00  0.00    -0.273 OA
ENDROOT
BRANCH  11  13
ATOM     13  C   UNL     1       0.027   0.661  -4.101  0.00  0.00    +0.166 C 
ATOM     14  C   UNL     1       0.376  -0.699  -3.460  0.00  0.00    +0.031 C 
ATOM     15  C   UNL     1       1.640  -1.139  -4.244  0.00  0.00    +0.019 C 
ATOM     16  C   UNL     1       2.348   0.219  -4.479  0.00  0.00    +0.110 C 
ATOM     17  N   UNL     1       1.254   1.181  -4.723  0.00  0.00    -0.165 NA
BRANCH  17  18
ATOM     18  S   UNL     1       1.383   2.605  -5.558  0.00  0.00    +0.062 S 
ATOM     19  O   UNL     1       2.498   2.465  -6.429  0.00  0.00    -0.153 OA
ATOM     20  O   UNL     1       0.080   2.917  -6.033  0.00  0.00    -0.153 OA
BRANCH  18  21
ATOM     21  C   UNL     1       1.808   3.856  -4.393  0.00  0.00    +0.106 A 
ATOM     22  C   UNL     1       0.813   4.560  -3.741  0.00  0.00    +0.029 A 
ATOM     23  C   UNL     1       1.146   5.542  -2.826  0.00  0.00    +0.005 A 
ATOM     24  C   UNL     1       2.475   5.819  -2.563  0.00  0.00    -0.050 A 
ATOM     25  C   UNL     1       3.470   5.114  -3.215  0.00  0.00    +0.005 A 
ATOM     26  C   UNL     1       3.136   4.130  -4.126  0.00  0.00    +0.029 A 
ATOM     27  C   UNL     1       2.838   6.890  -1.567  0.00  0.00    +0.044 C 
ENDBRANCH  18  21
ENDBRANCH  17  18
ENDBRANCH  11  13
BRANCH   1  29
ATOM     28  C   UNL     1       0.452   1.936  -0.308  0.00  0.00    +0.009 C 
ATOM     29  C   UNL     1      -0.200   0.600   0.055  0.00  0.00    +0.034 C 
ENDBRANCH   1  29
BRANCH  10  30
ATOM     30  C   UNL     1      -3.380   0.427  -5.829  0.00  0.00    +0.114 C 
BRANCH  30  31
ATOM     31  C   UNL     1      -3.674   1.825  -6.377  0.00  0.00    +0.001 C 
BRANCH  31  32
ATOM     32  C   UNL     1      -4.840   1.750  -7.365  0.00  0.00    -0.078 C 
BRANCH  32  33
ATOM     33  N   UNL     1      -5.122   3.092  -7.891  0.00  0.00    +0.376 N 
ATOM     34  C   UNL     1      -3.975   3.561  -8.679  0.00  0.00    -0.097 C 
ATOM     35  C   UNL     1      -6.316   3.041  -8.746  0.00  0.00    -0.097 C 
ATOM     36  H   UNL     1      -5.285   3.727  -7.124  0.00  0.00    -0.083 HD
ENDBRANCH  32  33
ENDBRANCH  31  32
ENDBRANCH  30  31
ENDBRANCH  10  30
TORSDOF 8
