REMARK  Name = ZINC48623002
REMARK  3 active torsions:
REMARK  status: ('A' for Active; 'I' for Inactive)
REMARK    1  A    between atoms: C_3  and  C_6
REMARK    2  A    between atoms: C_6  and  N_7
REMARK    3  A    between atoms: C_17  and  C_19
REMARK                            x       y       z     vdW  Elec       q    Type
REMARK                         _______ _______ _______ _____ _____    ______ ____
ROOT
ATOM      1  N   UNL     1       4.235   2.004   1.357  0.00  0.00    -0.293 NA
ATOM      2  C   UNL     1       5.534   2.696   1.393  0.00  0.00    +0.091 C 
ATOM      3  C   UNL     1       5.808   3.132   2.832  0.00  0.00    +0.069 C 
ATOM      4  C   UNL     1       5.607   1.971   3.771  0.00  0.00    +0.028 A 
ATOM      5  C   UNL     1       4.927   0.866   3.406  0.00  0.00    +0.052 A 
ATOM      6  C   UNL     1       4.761  -0.190   4.333  0.00  0.00    +0.279 A 
ATOM      7  N   UNL     1       5.285  -0.096   5.568  0.00  0.00    -0.180 N 
ATOM      8  C   UNL     1       5.978   1.023   5.929  0.00  0.00    +0.138 A 
ATOM      9  N   UNL     1       6.138   2.057   5.029  0.00  0.00    -0.343 N 
ATOM     10  C   UNL     1       6.392   0.849   7.215  0.00  0.00    +0.069 A 
ATOM     11  C   UNL     1       5.942  -0.401   7.645  0.00  0.00    +0.052 A 
ATOM     12  N   UNL     1       5.282  -0.967   6.665  0.00  0.00    -0.169 NA
ATOM     13  O   UNL     1       4.139  -1.187   4.012  0.00  0.00    -0.265 OA
ATOM     14  C   UNL     1       4.336   0.705   2.030  0.00  0.00    +0.127 C 
ATOM     15  H   UNL     1       6.630   2.851   5.290  0.00  0.00    +0.167 HD
ENDROOT
BRANCH  11  16
ATOM     16  C   UNL     1       6.178  -1.000   9.007  0.00  0.00    -0.020 C 
ATOM     17  C   UNL     1       7.539  -1.699   9.028  0.00  0.00    -0.010 C 
ATOM     18  C   UNL     1       7.774  -2.305  10.415  0.00  0.00    -0.003 C 
ATOM     19  C   UNL     1       6.624  -3.262  10.744  0.00  0.00    -0.019 C 
ATOM     20  C   UNL     1       5.297  -2.505  10.659  0.00  0.00    -0.082 C 
ATOM     21  N   UNL     1       5.120  -1.973   9.303  0.00  0.00    +0.385 N 
ATOM     22  H   UNL     1       4.220  -1.521   9.236  0.00  0.00    -0.085 HD
ATOM     23  H   UNL     1       5.164  -2.729   8.637  0.00  0.00    -0.085 HD
ENDBRANCH  11  16
BRANCH   1  24
ATOM     24  C   UNL     1       3.761   1.845  -0.024  0.00  0.00    +0.127 C 
BRANCH  24  27
ATOM     25  C   UNL     1      -0.016   1.351   0.009  0.00  0.00    +0.008 A 
ATOM     26  C   UNL     1       1.183   2.038   0.002  0.00  0.00    +0.012 A 
ATOM     27  C   UNL     1       2.343   1.336  -0.013  0.00  0.00    +0.004 A 
ATOM     28  S   UNL     1       1.754  -0.349  -0.017  0.00  0.00    -0.100 S 
ATOM     29  C   UNL     1       0.002  -0.004   0.002  0.00  0.00    +0.045 A 
ENDBRANCH  24  27
ENDBRANCH   1  24
TORSDOF 3
