REMARK  Name = ZINC39979842
REMARK  6 active torsions:
REMARK  status: ('A' for Active; 'I' for Inactive)
REMARK    1  A    between atoms: C_1  and  C_2
REMARK    2  A    between atoms: N_4  and  C_5
REMARK    3  A    between atoms: C_8  and  S_11
REMARK    4  A    between atoms: S_11  and  N_14
REMARK    5  A    between atoms: C_16  and  N_26
REMARK    6  A    between atoms: N_26  and  C_27
REMARK                            x       y       z     vdW  Elec       q    Type
REMARK                         _______ _______ _______ _____ _____    ______ ____
ROOT
ATOM      1  N   UNL     1      -0.940  -6.900   2.034  0.00  0.00    -0.110 NA
ATOM      2  C   UNL     1      -0.862  -8.163   2.336  0.00  0.00    +0.192 C 
ATOM      3  C   UNL     1      -0.869  -8.608   3.781  0.00  0.00    +0.237 C 
ATOM      4  N   UNL     1      -0.779 -10.051   4.055  0.00  0.00    -0.359 N 
ATOM      5  C   UNL     1      -0.699 -10.873   3.046  0.00  0.00    +0.063 A 
ATOM      6  C   UNL     1      -0.607 -12.324   3.267  0.00  0.00    +0.027 A 
ATOM      7  C   UNL     1      -0.526 -13.143   2.196  0.00  0.00    +0.002 A 
ATOM      8  C   UNL     1      -0.526 -12.645   0.882  0.00  0.00    +0.002 A 
ATOM      9  C   UNL     1      -0.607 -11.326   0.601  0.00  0.00    +0.030 A 
ATOM     10  C   UNL     1      -0.697 -10.374   1.649  0.00  0.00    +0.089 A 
ATOM     11  N   UNL     1      -0.781  -9.091   1.369  0.00  0.00    -0.226 NA
ATOM     12  H   UNL     1      -0.780 -10.384   4.967  0.00  0.00    +0.162 HD
ENDROOT
BRANCH   1  13
ATOM     13  S   UNL     1      -0.938  -6.426   0.448  0.00  0.00    +0.100 S 
ATOM     14  O   UNL     1      -2.142  -6.919  -0.125  0.00  0.00    -0.146 OA
ATOM     15  O   UNL     1       0.343  -6.755  -0.073  0.00  0.00    -0.146 OA
BRANCH  13  19
ATOM     16  C   UNL     1      -1.236  -1.908   0.399  0.00  0.00    +0.033 A 
ATOM     17  C   UNL     1       0.009  -2.523   0.432  0.00  0.00    +0.025 A 
ATOM     18  C   UNL     1       0.096  -3.901   0.446  0.00  0.00    +0.031 A 
ATOM     19  C   UNL     1      -1.054  -4.668   0.429  0.00  0.00    +0.113 A 
ATOM     20  C   UNL     1      -2.295  -4.059   0.396  0.00  0.00    +0.031 A 
ATOM     21  C   UNL     1      -2.389  -2.681   0.388  0.00  0.00    +0.025 A 
BRANCH  16  25
ATOM     22  C   UNL     1      -2.375   1.609   1.110  0.00  0.00    +0.109 C 
ATOM     23  C   UNL     1      -2.334   0.104   1.036  0.00  0.00    +0.214 C 
ATOM     24  O   UNL     1      -3.208  -0.552   1.562  0.00  0.00    -0.276 OA
ATOM     25  N   UNL     1      -1.328  -0.512   0.385  0.00  0.00    -0.286 N 
ATOM     26  H   UNL     1      -0.668   0.013  -0.095  0.00  0.00    +0.155 HD
ENDBRANCH  16  25
ENDBRANCH  13  19
ENDBRANCH   1  13
BRANCH   3  27
ATOM     27  N   UNL     1       0.255  -7.955   4.455  0.00  0.00    -0.318 N 
ATOM     28  H   UNL     1       1.121  -7.908   4.020  0.00  0.00    +0.148 HD
BRANCH  27  29
ATOM     29  C   UNL     1       0.081  -7.400   5.726  0.00  0.00    +0.031 A 
ATOM     30  C   UNL     1      -1.194  -7.405   6.308  0.00  0.00    +0.025 A 
ATOM     31  C   UNL     1      -1.411  -6.879   7.534  0.00  0.00    +0.032 A 
ATOM     32  C   UNL     1      -0.337  -6.303   8.267  0.00  0.00    +0.100 A 
ATOM     33  C   UNL     1       0.992  -6.296   7.664  0.00  0.00    +0.102 A 
ATOM     34  C   UNL     1       1.152  -6.870   6.374  0.00  0.00    +0.053 A 
ATOM     35  N   UNL     1       1.917  -5.732   8.441  0.00  0.00    -0.191 NA
ATOM     36  S   UNL     1       1.145  -5.277   9.776  0.00  0.00    +0.116 S 
ATOM     37  N   UNL     1      -0.365  -5.744   9.477  0.00  0.00    -0.191 NA
ENDBRANCH  27  29
ENDBRANCH   3  27
TORSDOF 5
