REMARK  Name = ZINC35760394
REMARK  9 active torsions:
REMARK  status: ('A' for Active; 'I' for Inactive)
REMARK    1  A    between atoms: C_1  and  C_2
REMARK    2  A    between atoms: C_3  and  C_26
REMARK    3  A    between atoms: C_4  and  C_13
REMARK    4  A    between atoms: C_16  and  N_19
REMARK    5  A    between atoms: C_20  and  C_22
REMARK    6  A    between atoms: C_22  and  C_24
REMARK    7  A    between atoms: N_28  and  C_29
REMARK    8  A    between atoms: C_32  and  O_35
REMARK    9  A    between atoms: O_35  and  C_36
REMARK                            x       y       z     vdW  Elec       q    Type
REMARK                         _______ _______ _______ _____ _____    ______ ____
ROOT
ATOM      1  C   UNL     1       0.330   1.511  -0.475  0.00  0.00    +0.064 C 
ATOM      2  C   UNL     1       0.165   0.013  -0.448  0.00  0.00    +0.025 C 
ATOM      3  C   UNL     1      -1.078  -0.523  -0.302  0.00  0.00    +0.058 C 
ATOM      4  C   UNL     1      -1.234  -2.021  -0.211  0.00  0.00    +0.142 C 
ATOM      5  N   UNL     1      -0.098  -2.655  -0.906  0.00  0.00    -0.300 N 
ATOM      6  C   UNL     1      -0.356  -3.832  -1.716  0.00  0.00    +0.109 C 
ATOM      7  C   UNL     1       0.749  -4.858  -1.777  0.00  0.00    +0.030 C 
ATOM      8  C   UNL     1       2.068  -4.249  -2.257  0.00  0.00    +0.078 C 
ATOM      9  S   UNL     1       2.592  -3.035  -1.003  0.00  0.00    -0.092 S 
ATOM     10  C   UNL     1       1.130  -2.065  -0.799  0.00  0.00    +0.135 C 
ATOM     11  N   UNL     1       1.236  -0.767  -0.573  0.00  0.00    -0.341 N 
ATOM     12  H   UNL     1       2.119  -0.374  -0.491  0.00  0.00    +0.167 HD
ENDROOT
BRANCH   4  13
ATOM     13  C   UNL     1      -1.245  -2.442   1.235  0.00  0.00    -0.022 A 
ATOM     14  C   UNL     1      -0.055  -2.554   1.931  0.00  0.00    +0.007 A 
ATOM     15  C   UNL     1      -0.062  -2.940   3.257  0.00  0.00    +0.023 A 
ATOM     16  C   UNL     1      -1.266  -3.215   3.892  0.00  0.00    +0.033 A 
ATOM     17  C   UNL     1      -2.460  -3.101   3.191  0.00  0.00    +0.023 A 
ATOM     18  C   UNL     1      -2.446  -2.710   1.866  0.00  0.00    +0.007 A 
BRANCH  16  19
ATOM     19  N   UNL     1      -1.277  -3.606   5.235  0.00  0.00    -0.284 N 
ATOM     20  C   UNL     1      -0.357  -3.114   6.088  0.00  0.00    +0.235 C 
ATOM     21  O   UNL     1       0.421  -2.262   5.715  0.00  0.00    -0.274 OA
ATOM     22  H   UNL     1      -1.946  -4.233   5.553  0.00  0.00    +0.155 HD
BRANCH  20  23
ATOM     23  C   UNL     1      -0.296  -3.621   7.506  0.00  0.00    +0.163 C 
ATOM     24  C   UNL     1      -0.151  -2.437   8.465  0.00  0.00    +0.034 C 
ATOM     25 CL   UNL     1       1.121  -4.720   7.691  0.00  0.00    -0.112 Cl
ENDBRANCH  20  23
ENDBRANCH  16  19
ENDBRANCH   4  13
BRANCH   3  26
ATOM     26  C   UNL     1      -2.208   0.313  -0.235  0.00  0.00    +0.248 C 
ATOM     27  O   UNL     1      -2.076   1.523  -0.308  0.00  0.00    -0.270 OA
ATOM     28  N   UNL     1      -3.436  -0.224  -0.090  0.00  0.00    -0.282 N 
ATOM     29  H   UNL     1      -3.535  -1.181   0.034  0.00  0.00    +0.155 HD
BRANCH  28  30
ATOM     30  C   UNL     1      -4.568   0.600  -0.120  0.00  0.00    +0.034 A 
ATOM     31  C   UNL     1      -5.748   0.139  -0.688  0.00  0.00    +0.027 A 
ATOM     32  C   UNL     1      -6.864   0.952  -0.717  0.00  0.00    +0.047 A 
ATOM     33  C   UNL     1      -6.806   2.229  -0.178  0.00  0.00    +0.120 A 
ATOM     34  C   UNL     1      -5.628   2.690   0.390  0.00  0.00    +0.047 A 
ATOM     35  C   UNL     1      -4.513   1.876   0.425  0.00  0.00    +0.027 A 
BRANCH  33  36
ATOM     36  O   UNL     1      -7.905   3.029  -0.207  0.00  0.00    -0.495 OA
ATOM     37  C   UNL     1      -7.775   4.332   0.365  0.00  0.00    +0.277 C 
ENDBRANCH  33  36
ENDBRANCH  28  30
ENDBRANCH   3  26
TORSDOF 6
