REMARK  Name = ZINC09186532
REMARK  16 active torsions:
REMARK  status: ('A' for Active; 'I' for Inactive)
REMARK    1  A    between atoms: C_1  and  C_2
REMARK    2  A    between atoms: N_10  and  O_11
REMARK    3  A    between atoms: C_14  and  C_23
REMARK    4  A    between atoms: C_16  and  O_22
REMARK    5  A    between atoms: C_18  and  O_21
REMARK    6  A    between atoms: C_27  and  C_29
REMARK    7  A    between atoms: C_29  and  C_30
REMARK    8  A    between atoms: C_29  and  C_31
REMARK    9  A    between atoms: C_29  and  O_40
REMARK   10  A    between atoms: C_31  and  C_33
REMARK   11  A    between atoms: C_31  and  O_39
REMARK   12  A    between atoms: C_33  and  C_34
REMARK   13  A    between atoms: C_34  and  C_35
REMARK   14  A    between atoms: C_35  and  C_36
REMARK   15  A    between atoms: C_35  and  C_37
REMARK   16  A    between atoms: C_35  and  O_38
REMARK                            x       y       z     vdW  Elec       q    Type
REMARK                         _______ _______ _______ _____ _____    ______ ____
ROOT
ATOM      1  C   UNL     1      -2.167   8.198   3.626  0.00  0.00    +0.016 C 
ATOM      2  C   UNL     1      -2.956   7.557   4.770  0.00  0.00    -0.001 C 
ATOM      3  C   UNL     1      -4.000   8.524   5.303  0.00  0.00    +0.012 C 
ATOM      4  C   UNL     1      -4.220   8.404   6.791  0.00  0.00    +0.009 C 
ATOM      5  C   UNL     1      -2.998   8.722   7.635  0.00  0.00    +0.026 C 
ATOM      6  C   UNL     1      -1.752   8.198   6.948  0.00  0.00    -0.039 C 
ATOM      7  C   UNL     1      -0.542   8.662   7.269  0.00  0.00    +0.031 C 
ATOM      8  C   UNL     1      -0.406   9.768   8.222  0.00  0.00    +0.084 C 
ATOM      9  N   UNL     1       0.775  10.188   8.560  0.00  0.00    -0.092 NA
ATOM     10  C   UNL     1      -1.630  10.417   8.809  0.00  0.00    +0.050 C 
ATOM     11  C   UNL     1      -2.826  10.216   7.867  0.00  0.00    -0.014 C 
ATOM     12  C   UNL     1      -4.078  10.815   8.509  0.00  0.00    +0.041 C 
ATOM     13  C   UNL     1      -3.857  12.313   8.735  0.00  0.00    +0.144 C 
ATOM     14  C   UNL     1      -2.647  12.534   9.643  0.00  0.00    +0.144 C 
ATOM     15  C   UNL     1      -1.400  11.915   9.007  0.00  0.00    +0.044 C 
ATOM     16  C   UNL     1      -2.551  10.914   6.534  0.00  0.00    +0.012 C 
ATOM     17  C   UNL     1      -2.014   7.194   5.912  0.00  0.00    -0.041 C 
ATOM     18  C   UNL     1      -1.664   5.928   5.836  0.00  0.00    -0.022 C 
ATOM     19  C   UNL     1      -2.369   5.253   4.675  0.00  0.00    +0.034 C 
ATOM     20  C   UNL     1      -3.535   6.212   4.316  0.00  0.00    +0.037 C 
ENDROOT
BRANCH   9  21
ATOM     21  O   UNL     1       1.928   9.580   8.009  0.00  0.00    -0.409 OA
ATOM     22  H   UNL     1       2.761   9.960   8.320  0.00  0.00    +0.328 HD
ENDBRANCH   9  21
BRANCH  14  23
ATOM     23  O   UNL     1      -2.440  13.936   9.826  0.00  0.00    -0.389 OA
ATOM     24  H   UNL     1      -3.191  14.396  10.226  0.00  0.00    +0.210 HD
ENDBRANCH  14  23
BRANCH  13  25
ATOM     25  O   UNL     1      -3.628  12.947   7.475  0.00  0.00    -0.389 OA
ATOM     26  H   UNL     1      -3.487  13.901   7.535  0.00  0.00    +0.210 HD
ENDBRANCH  13  25
BRANCH  20  27
ATOM     27  C   UNL     1      -3.809   6.208   2.811  0.00  0.00    +0.093 C 
ATOM     28  C   UNL     1      -4.466   4.885   2.415  0.00  0.00    +0.044 C 
BRANCH  27  29
ATOM     29  O   UNL     1      -2.577   6.359   2.102  0.00  0.00    -0.386 OA
ATOM     30  H   UNL     1      -2.359   7.275   1.883  0.00  0.00    +0.210 HD
ENDBRANCH  27  29
BRANCH  27  31
ATOM     31  C   UNL     1      -4.744   7.367   2.460  0.00  0.00    +0.146 C 
BRANCH  31  32
ATOM     32  O   UNL     1      -6.019   7.151   3.067  0.00  0.00    -0.389 OA
ATOM     33  H   UNL     1      -6.456   6.336   2.785  0.00  0.00    +0.210 HD
ENDBRANCH  31  32
BRANCH  31  34
ATOM     34  C   UNL     1      -4.909   7.447   0.941  0.00  0.00    +0.037 C 
BRANCH  34  35
ATOM     35  C   UNL     1      -5.742   8.680   0.583  0.00  0.00    +0.037 C 
BRANCH  35  36
ATOM     36  C   UNL     1      -5.907   8.760  -0.935  0.00  0.00    +0.061 C 
ATOM     37  C   UNL     1      -6.740   9.992  -1.294  0.00  0.00    +0.041 C 
ATOM     38  C   UNL     1      -6.617   7.501  -1.438  0.00  0.00    +0.041 C 
BRANCH  36  39
ATOM     39  O   UNL     1      -4.621   8.860  -1.550  0.00  0.00    -0.389 OA
ATOM     40  H   UNL     1      -4.114   9.636  -1.277  0.00  0.00    +0.210 HD
ENDBRANCH  36  39
ENDBRANCH  35  36
ENDBRANCH  34  35
ENDBRANCH  31  34
ENDBRANCH  27  31
ENDBRANCH  20  27
TORSDOF 11
