REMARK  Name = ZINC40986370
REMARK  14 active torsions:
REMARK  status: ('A' for Active; 'I' for Inactive)
REMARK    1  A    between atoms: C_1  and  C_2
REMARK    2  A    between atoms: C_5  and  C_8
REMARK    3  A    between atoms: C_8  and  S_9
REMARK    4  A    between atoms: S_9  and  C_12
REMARK    5  A    between atoms: C_15  and  C_19
REMARK    6  A    between atoms: N_21  and  C_22
REMARK    7  A    between atoms: C_22  and  C_23
REMARK    8  A    between atoms: C_23  and  C_25
REMARK    9  A    between atoms: C_23  and  N_34
REMARK   10  A    between atoms: C_28  and  N_31
REMARK   11  A    between atoms: N_31  and  C_32
REMARK   12  A    between atoms: N_31  and  C_33
REMARK   13  A    between atoms: N_34  and  C_35
REMARK   14  A    between atoms: N_34  and  C_36
REMARK                            x       y       z     vdW  Elec       q    Type
REMARK                         _______ _______ _______ _____ _____    ______ ____
ROOT
ATOM      1  C   UNL     1       1.392 -10.574   0.089  0.00  0.00    +0.248 C 
ATOM      2  O   UNL     1       1.390 -11.128  -0.993  0.00  0.00    -0.270 OA
ATOM      3  N   UNL     1       1.321 -11.304   1.220  0.00  0.00    -0.312 N 
ATOM      4  H   UNL     1       1.322 -10.862   2.084  0.00  0.00    +0.149 HD
ENDROOT
BRANCH   1   8
ATOM      5  C   UNL     1       1.617  -6.428   0.301  0.00  0.00    +0.272 A 
ATOM      6  N   UNL     1       1.548  -7.123   1.420  0.00  0.00    -0.219 NA
ATOM      7  C   UNL     1       1.475  -8.442   1.399  0.00  0.00    +0.130 A 
ATOM      8  C   UNL     1       1.471  -9.101   0.165  0.00  0.00    +0.092 A 
ATOM      9  C   UNL     1       1.546  -8.323  -0.999  0.00  0.00    +0.146 A 
ATOM     10  N   UNL     1       1.611  -7.006  -0.884  0.00  0.00    -0.199 NA
ATOM     11 CL   UNL     1       1.546  -9.073  -2.564  0.00  0.00    -0.061 Cl
BRANCH   5  12
ATOM     12  S   UNL     1       1.712  -4.671   0.393  0.00  0.00    +0.036 S 
ATOM     13  O   UNL     1       2.364  -4.280  -0.808  0.00  0.00    -0.166 OA
ATOM     14  O   UNL     1       2.302  -4.405   1.658  0.00  0.00    -0.166 OA
BRANCH  12  15
ATOM     15  C   UNL     1      -0.013  -4.110   0.378  0.00  0.00    +0.210 C 
BRANCH  15  20
ATOM     16  C   UNL     1      -0.167   1.660   0.667  0.00  0.00    +0.044 C 
ATOM     17  C   UNL     1      -0.127   0.155   0.591  0.00  0.00    -0.050 A 
ATOM     18  C   UNL     1      -0.077  -0.474  -0.638  0.00  0.00    +0.003 A 
ATOM     19  C   UNL     1      -0.040  -1.855  -0.708  0.00  0.00    +0.005 A 
ATOM     20  C   UNL     1      -0.052  -2.605   0.453  0.00  0.00    -0.026 A 
ATOM     21  C   UNL     1      -0.101  -1.976   1.683  0.00  0.00    +0.005 A 
ATOM     22  C   UNL     1      -0.134  -0.596   1.752  0.00  0.00    +0.003 A 
ENDBRANCH  15  20
ENDBRANCH  12  15
ENDBRANCH   5  12
ENDBRANCH   1   8
BRANCH   3  23
ATOM     23  C   UNL     1       1.242 -12.765   1.146  0.00  0.00    +0.094 C 
BRANCH  23  24
ATOM     24  C   UNL     1       1.302 -13.351   2.558  0.00  0.00    -0.021 C 
BRANCH  24  25
ATOM     25  C   UNL     1       2.637 -13.031   3.179  0.00  0.00    -0.059 A 
ATOM     26  C   UNL     1       3.749 -13.783   2.849  0.00  0.00    +0.004 A 
ATOM     27  C   UNL     1       4.974 -13.492   3.417  0.00  0.00    +0.023 A 
ATOM     28  C   UNL     1       5.088 -12.442   4.319  0.00  0.00    +0.029 A 
ATOM     29  C   UNL     1       3.969 -11.688   4.647  0.00  0.00    +0.023 A 
ATOM     30  C   UNL     1       2.748 -11.981   4.072  0.00  0.00    +0.004 A 
BRANCH  28  31
ATOM     31  N   UNL     1       6.325 -12.145   4.895  0.00  0.00    -0.336 N 
ATOM     32  C   UNL     1       7.479 -13.012   4.641  0.00  0.00    +0.129 C 
ATOM     33  C   UNL     1       6.470 -10.966   5.752  0.00  0.00    +0.129 C 
ENDBRANCH  28  31
ENDBRANCH  24  25
BRANCH  24  34
ATOM     34  N   UNL     1       1.131 -14.809   2.490  0.00  0.00    +0.382 N 
ATOM     35  C   UNL     1       1.099 -15.362   3.850  0.00  0.00    -0.096 C 
ATOM     36  C   UNL     1      -0.130 -15.123   1.804  0.00  0.00    -0.096 C 
ATOM     37  H   UNL     1       1.901 -15.215   1.980  0.00  0.00    -0.082 HD
ENDBRANCH  24  34
ENDBRANCH  23  24
ENDBRANCH   3  23
TORSDOF 9
