REMARK  Name = ZINC13141619
REMARK  7 active torsions:
REMARK  status: ('A' for Active; 'I' for Inactive)
REMARK    1  A    between atoms: C_1  and  C_2
REMARK    2  A    between atoms: C_7  and  N_8
REMARK    3  A    between atoms: C_11  and  C_16
REMARK    4  A    between atoms: C_16  and  N_47
REMARK    5  A    between atoms: C_17  and  N_47
REMARK    6  A    between atoms: C_18  and  C_19
REMARK    7  A    between atoms: C_18  and  N_47
REMARK                            x       y       z     vdW  Elec       q    Type
REMARK                         _______ _______ _______ _____ _____    ______ ____
ROOT
ATOM      1  N   UNL     1       0.061  -2.694   2.334  0.00  0.00    -0.283 N 
ATOM      2  C   UNL     1       0.037  -2.000   1.141  0.00  0.00    +0.224 A 
ATOM      3  N   UNL     1       0.001  -0.669   1.144  0.00  0.00    -0.201 NA
ATOM      4  C   UNL     1      -0.022  -0.004   0.003  0.00  0.00    +0.120 A 
ATOM      5  N   UNL     1      -0.015  -0.656  -1.147  0.00  0.00    -0.202 NA
ATOM      6  C   UNL     1       0.026  -1.987  -1.158  0.00  0.00    +0.217 A 
ATOM      7  N   UNL     1       0.049  -2.659  -0.013  0.00  0.00    -0.181 NA
ATOM      8  N   UNL     1       0.039  -2.667  -2.359  0.00  0.00    -0.327 N 
ATOM      9  H   UNL     1       0.139  -2.214   3.174  0.00  0.00    +0.155 HD
ATOM     10  H   UNL     1       0.065  -3.637  -2.367  0.00  0.00    +0.145 HD
ATOM     11  H   UNL     1       0.022  -2.175  -3.195  0.00  0.00    +0.145 HD
ENDROOT
BRANCH   1  18
ATOM     12  C   UNL     1       1.145  -4.109   4.552  0.00  0.00    +0.045 C 
ATOM     13  C   UNL     1       0.491  -4.820   3.396  0.00  0.00    -0.029 A 
ATOM     14  C   UNL     1       0.404  -6.199   3.392  0.00  0.00    +0.005 A 
ATOM     15  C   UNL     1      -0.197  -6.852   2.331  0.00  0.00    +0.000 A 
ATOM     16  C   UNL     1      -0.712  -6.128   1.271  0.00  0.00    +0.002 A 
ATOM     17  C   UNL     1      -0.633  -4.749   1.272  0.00  0.00    +0.023 A 
ATOM     18  C   UNL     1      -0.025  -4.090   2.333  0.00  0.00    +0.036 A 
ENDBRANCH   1  18
BRANCH   4  19
ATOM     19  C   UNL     1      -0.062   1.502   0.012  0.00  0.00    -0.001 C 
BRANCH  19  21
ATOM     20  C   UNL     1       1.994   1.705  -1.250  0.00  0.00    -0.095 C 
ATOM     21  N   UNL     1       1.324   2.016   0.030  0.00  0.00    +0.385 N 
ATOM     22  H   UNL     1       1.837   1.563   0.794  0.00  0.00    -0.081 HD
BRANCH  21  23
ATOM     23  C   UNL     1       1.318   3.477   0.255  0.00  0.00    -0.040 C 
BRANCH  23  24
ATOM     24  C   UNL     1       2.733   3.939   0.488  0.00  0.00    -0.029 A 
ATOM     25  C   UNL     1       3.186   4.155   1.776  0.00  0.00    +0.004 A 
ATOM     26  C   UNL     1       4.486   4.573   1.990  0.00  0.00    +0.000 A 
ATOM     27  C   UNL     1       5.331   4.786   0.917  0.00  0.00    +0.003 A 
ATOM     28  C   UNL     1       4.879   4.576  -0.371  0.00  0.00    +0.038 A 
ATOM     29  C   UNL     1       3.578   4.152  -0.588  0.00  0.00    +0.125 A 
ATOM     30  F   UNL     1       3.134   3.947  -1.847  0.00  0.00    -0.205 F 
ENDBRANCH  23  24
ENDBRANCH  21  23
ENDBRANCH  19  21
ENDBRANCH   4  19
TORSDOF 5
