REMARK  Name = ZINC37141765
REMARK  6 active torsions:
REMARK  status: ('A' for Active; 'I' for Inactive)
REMARK    1  A    between atoms: C_3  and  C_9
REMARK    2  A    between atoms: C_4  and  O_8
REMARK    3  A    between atoms: C_6  and  O_7
REMARK    4  A    between atoms: C_9  and  N_10
REMARK    5  A    between atoms: N_10  and  C_11
REMARK    6  A    between atoms: C_16  and  C_19
REMARK                            x       y       z     vdW  Elec       q    Type
REMARK                         _______ _______ _______ _____ _____    ______ ____
ROOT
ATOM      1  N   UNL     1       4.200   2.249  -1.391  0.00  0.00    +0.384 N 
ATOM      2  H   UNL     1       4.368   1.311  -1.722  0.00  0.00    -0.085 HD
ATOM      3  H   UNL     1       3.531   2.704  -1.993  0.00  0.00    -0.085 HD
ENDROOT
BRANCH   1   4
ATOM      4  C   UNL     1       5.459   3.005  -1.399  0.00  0.00    -0.071 C 
ATOM      5  C   UNL     1       5.183   4.460  -1.016  0.00  0.00    -0.016 C 
ATOM      6  C   UNL     1       6.495   5.247  -1.024  0.00  0.00    -0.001 C 
ATOM      7  C   UNL     1       7.111   5.197  -2.424  0.00  0.00    +0.012 C 
ATOM      8  C   UNL     1       7.387   3.741  -2.808  0.00  0.00    +0.092 C 
ATOM      9  C   UNL     1       6.075   2.954  -2.799  0.00  0.00    -0.004 C 
BRANCH   8  10
ATOM     10  C   UNL     1       8.003   3.691  -4.207  0.00  0.00    +0.393 C 
ATOM     11  F   UNL     1       9.203   4.411  -4.215  0.00  0.00    -0.170 F 
ATOM     12  F   UNL     1       8.255   2.360  -4.558  0.00  0.00    -0.170 F 
ATOM     13  F   UNL     1       7.114   4.255  -5.128  0.00  0.00    -0.170 F 
ENDBRANCH   8  10
ENDBRANCH   1   4
BRANCH   1  14
ATOM     14  C   UNL     1       3.670   2.196  -0.022  0.00  0.00    -0.043 C 
BRANCH  14  17
ATOM     15  C   UNL     1      -0.017   1.383   0.010  0.00  0.00    +0.046 A 
ATOM     16  C   UNL     1       1.170   2.092   0.002  0.00  0.00    +0.009 A 
ATOM     17  C   UNL     1       2.377   1.421  -0.013  0.00  0.00    -0.023 A 
ATOM     18  C   UNL     1       2.402   0.033  -0.021  0.00  0.00    +0.122 A 
ATOM     19  C   UNL     1       1.213  -0.680  -0.013  0.00  0.00    +0.091 A 
ATOM     20  C   UNL     1       0.002  -0.004   0.002  0.00  0.00    +0.120 A 
BRANCH  20  21
ATOM     21  O   UNL     1      -1.165  -0.700   0.010  0.00  0.00    -0.507 OA
ATOM     22  H   UNL     1      -1.512  -0.897  -0.871  0.00  0.00    +0.292 HD
ENDBRANCH  20  21
BRANCH  18  23
ATOM     23  O   UNL     1       3.590  -0.626  -0.036  0.00  0.00    -0.506 OA
ATOM     24  H   UNL     1       3.942  -0.822   0.843  0.00  0.00    +0.292 HD
ENDBRANCH  18  23
ENDBRANCH  14  17
ENDBRANCH   1  14
TORSDOF 6
