REMARK  Name = ZINC06684064
REMARK  5 active torsions:
REMARK  status: ('A' for Active; 'I' for Inactive)
REMARK    1  A    between atoms: C_3  and  N_14
REMARK    2  A    between atoms: C_4  and  N_11
REMARK    3  A    between atoms: C_6  and  C_7
REMARK    4  A    between atoms: N_14  and  N_15
REMARK    5  A    between atoms: N_15  and  C_16
REMARK                            x       y       z     vdW  Elec       q    Type
REMARK                         _______ _______ _______ _____ _____    ______ ____
ROOT
ATOM      1  N   UNL     1       3.733   1.606  -0.181  0.00  0.00    -0.264 N 
ATOM      2  H   UNL     1       4.487   0.999  -0.133  0.00  0.00    +0.170 HD
ENDROOT
BRANCH   1   5
ATOM      3  C   UNL     1       0.064   1.488   0.005  0.00  0.00    +0.014 A 
ATOM      4  C   UNL     1       1.351   1.984  -0.073  0.00  0.00    +0.027 A 
ATOM      5  C   UNL     1       2.430   1.109  -0.102  0.00  0.00    +0.075 A 
ATOM      6  C   UNL     1       2.210  -0.262  -0.051  0.00  0.00    +0.149 A 
ATOM      7  C   UNL     1       0.921  -0.750   0.027  0.00  0.00    +0.047 A 
ATOM      8  C   UNL     1      -0.151   0.123   0.055  0.00  0.00    +0.057 A 
BRANCH   8   9
ATOM      9  C   UNL     1      -1.556  -0.414   0.140  0.00  0.00    +0.417 C 
ATOM     10  F   UNL     1      -2.463   0.652   0.154  0.00  0.00    -0.166 F 
ATOM     11  F   UNL     1      -1.812  -1.228  -0.968  0.00  0.00    -0.166 F 
ATOM     12  F   UNL     1      -1.699  -1.163   1.313  0.00  0.00    -0.166 F 
ENDBRANCH   8   9
BRANCH   6  13
ATOM     13  N   UNL     1       3.357  -1.198  -0.082  0.00  0.00    +0.058 N 
ATOM     14  O   UNL     1       3.273  -2.236  -0.696  0.00  0.00    -0.126 OA
ATOM     15  O   UNL     1       4.376  -0.924   0.507  0.00  0.00    -0.126 OA
ENDBRANCH   6  13
ENDBRANCH   1   5
BRANCH   1  16
ATOM     16  N   UNL     1       3.949   2.983  -0.329  0.00  0.00    -0.261 N 
ATOM     17  H   UNL     1       3.199   3.597  -0.307  0.00  0.00    +0.170 HD
BRANCH  16  18
ATOM     18  C   UNL     1       5.188   3.449  -0.501  0.00  0.00    +0.116 C 
ATOM     19  C   UNL     1       6.400   2.717  -0.445  0.00  0.00    +0.026 A 
ATOM     20  C   UNL     1       6.696   1.369  -0.209  0.00  0.00    +0.050 A 
ATOM     21  C   UNL     1       8.012   0.945  -0.218  0.00  0.00    +0.124 A 
ATOM     22  C   UNL     1       9.036   1.849  -0.458  0.00  0.00    +0.040 A 
ATOM     23  C   UNL     1       8.762   3.187  -0.693  0.00  0.00    +0.027 A 
ATOM     24  C   UNL     1       7.447   3.643  -0.691  0.00  0.00    +0.043 A 
ATOM     25  N   UNL     1       6.918   4.885  -0.890  0.00  0.00    -0.280 N 
ATOM     26  C   UNL     1       5.601   4.864  -0.803  0.00  0.00    +0.264 C 
ATOM     27  O   UNL     1       4.855   5.817  -0.939  0.00  0.00    -0.268 OA
ATOM     28  F   UNL     1       8.302  -0.355   0.009  0.00  0.00    -0.205 F 
ATOM     29  H   UNL     1       7.442   5.680  -1.075  0.00  0.00    +0.155 HD
ENDBRANCH  16  18
ENDBRANCH   1  16
TORSDOF 5
