REMARK  Name = ZINC32865327
REMARK  8 active torsions:
REMARK  status: ('A' for Active; 'I' for Inactive)
REMARK    1  A    between atoms: C_1  and  C_2
REMARK    2  A    between atoms: C_2  and  C_4
REMARK    3  A    between atoms: C_2  and  N_18
REMARK    4  A    between atoms: N_6  and  C_7
REMARK    5  A    between atoms: C_9  and  C_14
REMARK    6  A    between atoms: C_21  and  N_24
REMARK    7  A    between atoms: N_24  and  S_25
REMARK    8  A    between atoms: S_25  and  C_28
REMARK                            x       y       z     vdW  Elec       q    Type
REMARK                         _______ _______ _______ _____ _____    ______ ____
ROOT
ATOM      1  C   UNL     1       1.512   1.745   7.133  0.00  0.00    -0.004 C 
ATOM      2  C   UNL     1       2.141   2.646   6.069  0.00  0.00    +0.016 C 
ENDROOT
BRANCH   2   3
ATOM      3  N   UNL     1       3.543   2.257   5.865  0.00  0.00    +0.387 N 
ATOM      4  C   UNL     1       3.644   0.856   5.437  0.00  0.00    -0.076 C 
ATOM      5  C   UNL     1       5.099   0.530   5.095  0.00  0.00    +0.002 C 
ATOM      6  C   UNL     1       5.975   0.771   6.328  0.00  0.00    +0.073 C 
ATOM      7  C   UNL     1       5.814   2.224   6.782  0.00  0.00    +0.002 C 
ATOM      8  C   UNL     1       4.338   2.502   7.075  0.00  0.00    -0.076 C 
ATOM      9  H   UNL     1       3.956   2.884   5.060  0.00  0.00    -0.081 HD
BRANCH   6  10
ATOM     10  N   UNL     1       7.378   0.515   5.990  0.00  0.00    -0.187 NA
ATOM     11  H   UNL     1       7.938   1.242   5.383  0.00  0.00    +0.148 HD
BRANCH  10  12
ATOM     12  S   UNL     1       8.048  -0.966   6.303  0.00  0.00    +0.065 S 
ATOM     13  O   UNL     1       9.392  -0.909   5.843  0.00  0.00    -0.153 OA
ATOM     14  O   UNL     1       7.715  -1.287   7.646  0.00  0.00    -0.153 OA
BRANCH  12  15
ATOM     15  C   UNL     1       7.218  -2.139   5.284  0.00  0.00    +0.142 A 
ATOM     16  C   UNL     1       7.524  -2.548   4.028  0.00  0.00    +0.036 A 
ATOM     17  C   UNL     1       6.721  -3.491   3.416  0.00  0.00    +0.010 A 
ATOM     18  C   UNL     1       5.651  -3.980   4.088  0.00  0.00    +0.047 A 
ATOM     19  S   UNL     1       5.759  -3.105   5.640  0.00  0.00    -0.077 S 
ENDBRANCH  12  15
ENDBRANCH  10  12
ENDBRANCH   6  10
ENDBRANCH   2   3
BRANCH   2  20
ATOM     20  C   UNL     1       1.385   2.497   4.774  0.00  0.00    +0.203 C 
ATOM     21  O   UNL     1       1.958   2.106   3.779  0.00  0.00    -0.277 OA
ATOM     22  N   UNL     1       0.073   2.799   4.721  0.00  0.00    -0.286 N 
ATOM     23  H   UNL     1      -0.430   3.223   5.602  0.00  0.00    +0.155 HD
BRANCH  22  24
ATOM     24  C   UNL     1      -0.651   2.572   3.544  0.00  0.00    +0.052 A 
ATOM     25  C   UNL     1      -0.041   2.741   2.308  0.00  0.00    +0.037 A 
ATOM     26  C   UNL     1      -0.757   2.517   1.149  0.00  0.00    +0.057 A 
ATOM     27  C   UNL     1      -2.083   2.128   1.218  0.00  0.00    +0.014 A 
ATOM     28  C   UNL     1      -2.692   1.952   2.446  0.00  0.00    +0.022 A 
ATOM     29  C   UNL     1      -1.981   2.176   3.610  0.00  0.00    +0.062 A 
ATOM     30 CL   UNL     1      -2.749   1.962   5.152  0.00  0.00    -0.082 Cl
BRANCH  26  31
ATOM     31  C   UNL     1      -0.095   2.701  -0.192  0.00  0.00    +0.417 C 
ATOM     32  F   UNL     1       0.486   1.494  -0.595  0.00  0.00    -0.166 F 
ATOM     33  F   UNL     1       0.894   3.685  -0.093  0.00  0.00    -0.166 F 
ATOM     34  F   UNL     1      -1.052   3.094  -1.134  0.00  0.00    -0.166 F 
ENDBRANCH  26  31
ENDBRANCH  22  24
ENDBRANCH   2  20
TORSDOF 7
