REMARK  Name = ZINC63134371
REMARK  6 active torsions:
REMARK  status: ('A' for Active; 'I' for Inactive)
REMARK    1  A    between atoms: C_7  and  C_10
REMARK    2  A    between atoms: C_10  and  C_11
REMARK    3  A    between atoms: N_13  and  N_14
REMARK    4  A    between atoms: C_15  and  C_16
REMARK    5  A    between atoms: C_19  and  O_23
REMARK    6  A    between atoms: C_21  and  O_22
REMARK                            x       y       z     vdW  Elec       q    Type
REMARK                         _______ _______ _______ _____ _____    ______ ____
ROOT
ATOM      1  C   UNL     1       0.460  -3.646  -1.440  0.00  0.00    +0.236 C 
ATOM      2  O   UNL     1       1.006  -3.075  -2.360  0.00  0.00    -0.274 OA
ATOM      3  N   UNL     1      -0.353  -4.693  -1.684  0.00  0.00    -0.207 N 
ATOM      4  H   UNL     1      -0.790  -5.150  -0.948  0.00  0.00    +0.177 HD
ENDROOT
BRANCH   3   5
ATOM      5  N   UNL     1      -0.567  -5.122  -3.001  0.00  0.00    -0.188 NA
ATOM      6  C   UNL     1      -1.350  -6.130  -3.236  0.00  0.00    +0.142 C 
BRANCH   6   7
ATOM      7  C   UNL     1      -1.576  -6.580  -4.620  0.00  0.00    +0.036 A 
ATOM      8  C   UNL     1      -2.423  -7.662  -4.877  0.00  0.00    +0.016 A 
ATOM      9  C   UNL     1      -2.631  -8.080  -6.173  0.00  0.00    +0.046 A 
ATOM     10  C   UNL     1      -2.001  -7.429  -7.228  0.00  0.00    +0.120 A 
ATOM     11  C   UNL     1      -1.158  -6.355  -6.983  0.00  0.00    +0.091 A 
ATOM     12  C   UNL     1      -0.946  -5.922  -5.686  0.00  0.00    +0.129 A 
BRANCH  12  13
ATOM     13  O   UNL     1      -0.125  -4.867  -5.446  0.00  0.00    -0.506 OA
ATOM     14  H   UNL     1       0.800  -5.112  -5.309  0.00  0.00    +0.292 HD
ENDBRANCH  12  13
BRANCH  10  15
ATOM     15  O   UNL     1      -2.211  -7.848  -8.503  0.00  0.00    -0.507 OA
ATOM     16  H   UNL     1      -2.958  -7.416  -8.941  0.00  0.00    +0.292 HD
ENDBRANCH  10  15
ENDBRANCH   6   7
ENDBRANCH   3   5
BRANCH   1  17
ATOM     17  C   UNL     1       0.691  -3.186  -0.024  0.00  0.00    +0.130 C 
BRANCH  17  24
ATOM     18  C   UNL     1      -0.016   1.348   0.009  0.00  0.00    +0.001 A 
ATOM     19  C   UNL     1       1.166   2.101   0.002  0.00  0.00    +0.002 A 
ATOM     20  C   UNL     1       2.391   1.535  -0.013  0.00  0.00    +0.026 A 
ATOM     21  C   UNL     1       2.529   0.120  -0.022  0.00  0.00    +0.043 A 
ATOM     22  N   UNL     1       3.587  -0.654  -0.037  0.00  0.00    -0.380 N 
ATOM     23  C   UNL     1       3.143  -2.053  -0.041  0.00  0.00    +0.145 C 
ATOM     24  C   UNL     1       1.631  -2.008  -0.025  0.00  0.00    -0.033 C 
ATOM     25  C   UNL     1       1.295  -0.698  -0.014  0.00  0.00    -0.001 A 
ATOM     26  C   UNL     1       0.002  -0.004   0.002  0.00  0.00    +0.010 A 
ATOM     27  H   UNL     1       4.509  -0.353  -0.045  0.00  0.00    +0.160 HD
ENDBRANCH  17  24
ENDBRANCH   1  17
TORSDOF 6
