REMARK  Name = ZINC44184660
REMARK  16 active torsions:
REMARK  status: ('A' for Active; 'I' for Inactive)
REMARK    1  A    between atoms: C_1  and  C_2
REMARK    2  A    between atoms: C_13  and  C_22
REMARK    3  A    between atoms: C_15  and  O_21
REMARK    4  A    between atoms: C_17  and  O_20
REMARK    5  A    between atoms: C_23  and  O_40
REMARK    6  A    between atoms: C_26  and  C_28
REMARK    7  A    between atoms: C_28  and  C_29
REMARK    8  A    between atoms: C_28  and  C_30
REMARK    9  A    between atoms: C_28  and  O_39
REMARK   10  A    between atoms: C_30  and  C_32
REMARK   11  A    between atoms: C_30  and  O_38
REMARK   12  A    between atoms: C_32  and  C_33
REMARK   13  A    between atoms: C_33  and  C_34
REMARK   14  A    between atoms: C_34  and  C_35
REMARK   15  A    between atoms: C_34  and  C_36
REMARK   16  A    between atoms: C_34  and  O_37
REMARK                            x       y       z     vdW  Elec       q    Type
REMARK                         _______ _______ _______ _____ _____    ______ ____
ROOT
ATOM      1  C   UNL     1       0.294   1.351   0.005  0.00  0.00    +0.015 C 
ATOM      2  C   UNL     1       0.127  -0.159   0.242  0.00  0.00    +0.006 C 
ATOM      3  C   UNL     1       0.964  -0.918  -0.740  0.00  0.00    +0.011 C 
ATOM      4  C   UNL     1       2.437  -1.024  -0.317  0.00  0.00    +0.009 C 
ATOM      5  C   UNL     1       2.834  -0.025   0.752  0.00  0.00    +0.025 C 
ATOM      6  C   UNL     1       1.929  -0.130   1.943  0.00  0.00    -0.031 C 
ATOM      7  C   UNL     1       2.349   0.031   3.196  0.00  0.00    +0.049 C 
ATOM      8  C   UNL     1       3.782   0.229   3.445  0.00  0.00    +0.160 C 
ATOM      9  O   UNL     1       4.200   0.817   4.419  0.00  0.00    -0.292 OA
ATOM     10  C   UNL     1       4.716  -0.400   2.429  0.00  0.00    +0.069 C 
ATOM     11  C   UNL     1       4.310   0.059   1.036  0.00  0.00    -0.013 C 
ATOM     12  C   UNL     1       5.164  -0.615  -0.030  0.00  0.00    +0.041 C 
ATOM     13  C   UNL     1       5.188  -2.132   0.108  0.00  0.00    +0.144 C 
ATOM     14  C   UNL     1       5.601  -2.540   1.523  0.00  0.00    +0.144 C 
ATOM     15  C   UNL     1       4.628  -1.923   2.531  0.00  0.00    +0.046 C 
ATOM     16  C   UNL     1       4.661   1.563   0.967  0.00  0.00    +0.012 C 
ATOM     17  C   UNL     1       0.505  -0.533   1.694  0.00  0.00    +0.093 C 
ATOM     18  C   UNL     1      -0.556   0.231   2.498  0.00  0.00    +0.040 C 
ATOM     19  C   UNL     1      -1.847   0.033   1.657  0.00  0.00    +0.010 C 
ATOM     20  C   UNL     1      -1.391  -0.384   0.234  0.00  0.00    +0.032 C 
ENDROOT
BRANCH  14  21
ATOM     21  O   UNL     1       5.567  -3.964   1.639  0.00  0.00    -0.389 OA
ATOM     22  H   UNL     1       6.158  -4.423   1.026  0.00  0.00    +0.210 HD
ENDBRANCH  14  21
BRANCH  13  23
ATOM     23  O   UNL     1       6.138  -2.671  -0.823  0.00  0.00    -0.389 OA
ATOM     24  H   UNL     1       6.211  -3.635  -0.796  0.00  0.00    +0.210 HD
ENDBRANCH  13  23
BRANCH  20  25
ATOM     25  C   UNL     1      -1.774  -1.829  -0.053  0.00  0.00    +0.092 C 
ATOM     26  C   UNL     1      -1.508  -2.143  -1.527  0.00  0.00    +0.044 C 
BRANCH  25  27
ATOM     27  O   UNL     1      -0.994  -2.701   0.768  0.00  0.00    -0.386 OA
ATOM     28  H   UNL     1      -1.113  -2.558   1.717  0.00  0.00    +0.210 HD
ENDBRANCH  25  27
BRANCH  25  29
ATOM     29  C   UNL     1      -3.259  -2.033   0.252  0.00  0.00    +0.146 C 
BRANCH  29  30
ATOM     30  O   UNL     1      -3.462  -2.007   1.666  0.00  0.00    -0.389 OA
ATOM     31  H   UNL     1      -2.976  -2.690   2.147  0.00  0.00    +0.210 HD
ENDBRANCH  29  30
BRANCH  29  32
ATOM     32  C   UNL     1      -3.712  -3.385  -0.303  0.00  0.00    +0.037 C 
BRANCH  32  33
ATOM     33  C   UNL     1      -5.223  -3.535  -0.109  0.00  0.00    +0.037 C 
BRANCH  33  34
ATOM     34  C   UNL     1      -5.676  -4.887  -0.664  0.00  0.00    +0.061 C 
ATOM     35  C   UNL     1      -7.201  -4.985  -0.584  0.00  0.00    +0.041 C 
ATOM     36  C   UNL     1      -5.233  -5.013  -2.123  0.00  0.00    +0.041 C 
BRANCH  34  37
ATOM     37  O   UNL     1      -5.090  -5.939   0.105  0.00  0.00    -0.389 OA
ATOM     38  H   UNL     1      -5.327  -5.921   1.042  0.00  0.00    +0.210 HD
ENDBRANCH  34  37
ENDBRANCH  33  34
ENDBRANCH  32  33
ENDBRANCH  29  32
ENDBRANCH  25  29
ENDBRANCH  20  25
BRANCH  17  39
ATOM     39  O   UNL     1       0.367  -1.947   1.932  0.00  0.00    -0.384 OA
ATOM     40  H   UNL     1       0.595  -2.219   2.832  0.00  0.00    +0.211 HD
ENDBRANCH  17  39
TORSDOF 11
