REMARK  Name = ZINC35465834
REMARK  16 active torsions:
REMARK  status: ('A' for Active; 'I' for Inactive)
REMARK    1  A    between atoms: C_1  and  C_2
REMARK    2  A    between atoms: C_2  and  C_3
REMARK    3  A    between atoms: C_2  and  C_4
REMARK    4  A    between atoms: C_2  and  O_39
REMARK    5  A    between atoms: C_4  and  C_6
REMARK    6  A    between atoms: C_4  and  O_38
REMARK    7  A    between atoms: C_6  and  C_8
REMARK    8  A    between atoms: C_6  and  O_21
REMARK    9  A    between atoms: C_18  and  O_19
REMARK   10  A    between atoms: O_19  and  C_20
REMARK   11  A    between atoms: O_21  and  C_22
REMARK   12  A    between atoms: C_24  and  O_37
REMARK   13  A    between atoms: C_26  and  O_36
REMARK   14  A    between atoms: C_28  and  O_35
REMARK   15  A    between atoms: C_30  and  C_33
REMARK   16  A    between atoms: C_33  and  O_34
REMARK                            x       y       z     vdW  Elec       q    Type
REMARK                         _______ _______ _______ _____ _____    ______ ____
ROOT
ATOM      1  C   UNL     1      -1.837  -2.179   0.520  0.00  0.00    +0.186 C 
ENDROOT
BRANCH   1   2
ATOM      2  C   UNL     1      -3.132  -2.941   0.404  0.00  0.00    +0.026 A 
ATOM      3  C   UNL     1      -3.438  -3.586  -0.760  0.00  0.00    +0.021 A 
ATOM      4  C   UNL     1      -4.640  -4.294  -0.867  0.00  0.00    +0.018 A 
ATOM      5  C   UNL     1      -4.994  -4.995  -2.103  0.00  0.00    +0.018 A 
ATOM      6  C   UNL     1      -6.175  -5.665  -2.145  0.00  0.00    +0.092 A 
ATOM      7  C   UNL     1      -7.019  -5.670  -1.016  0.00  0.00    +0.337 A 
ATOM      8  O   UNL     1      -8.075  -6.275  -1.067  0.00  0.00    -0.245 OA
ATOM      9  O   UNL     1      -6.689  -5.026   0.115  0.00  0.00    -0.422 OA
ATOM     10  C   UNL     1      -5.530  -4.341   0.222  0.00  0.00    +0.143 A 
ATOM     11  C   UNL     1      -5.204  -3.680   1.397  0.00  0.00    +0.093 A 
ATOM     12  C   UNL     1      -4.006  -2.989   1.488  0.00  0.00    +0.129 A 
BRANCH  12  13
ATOM     13  O   UNL     1      -3.685  -2.348   2.641  0.00  0.00    -0.495 OA
ATOM     14  C   UNL     1      -4.624  -2.435   3.715  0.00  0.00    +0.277 C 
ENDBRANCH  12  13
ENDBRANCH   1   2
BRANCH   1  15
ATOM     15  C   UNL     1      -2.084  -0.703   0.200  0.00  0.00    +0.179 C 
BRANCH  15  17
ATOM     16  C   UNL     1      -1.041   1.565   0.110  0.00  0.00    +0.044 C 
ATOM     17  C   UNL     1      -0.779   0.079   0.359  0.00  0.00    +0.089 C 
ATOM     18  C   UNL     1      -0.238  -0.114   1.777  0.00  0.00    +0.044 C 
BRANCH  17  19
ATOM     19  O   UNL     1       0.181  -0.401  -0.585  0.00  0.00    -0.386 OA
ATOM     20  H   UNL     1      -0.096  -0.310  -1.508  0.00  0.00    +0.210 HD
ENDBRANCH  17  19
ENDBRANCH  15  17
BRANCH  15  21
ATOM     21  O   UNL     1      -3.065  -0.179   1.098  0.00  0.00    -0.386 OA
ATOM     22  H   UNL     1      -2.813  -0.231   2.030  0.00  0.00    +0.210 HD
ENDBRANCH  15  21
ENDBRANCH   1  15
BRANCH   1  23
ATOM     23  O   UNL     1      -0.886  -2.713  -0.402  0.00  0.00    -0.338 OA
BRANCH  23  24
ATOM     24  C   UNL     1      -0.159  -3.837   0.098  0.00  0.00    +0.282 C 
ATOM     25  C   UNL     1       0.643  -4.474  -1.040  0.00  0.00    +0.201 C 
ATOM     26  C   UNL     1       1.466  -5.641  -0.483  0.00  0.00    +0.179 C 
ATOM     27  C   UNL     1       2.364  -5.125   0.645  0.00  0.00    +0.177 C 
ATOM     28  C   UNL     1       1.495  -4.464   1.718  0.00  0.00    +0.178 C 
ATOM     29  O   UNL     1       0.734  -3.408   1.128  0.00  0.00    -0.341 OA
BRANCH  27  30
ATOM     30  O   UNL     1       3.084  -6.218   1.219  0.00  0.00    -0.386 OA
ATOM     31  H   UNL     1       3.653  -6.687   0.593  0.00  0.00    +0.210 HD
ENDBRANCH  27  30
BRANCH  26  32
ATOM     32  O   UNL     1       2.272  -6.196  -1.524  0.00  0.00    -0.386 OA
ATOM     33  H   UNL     1       1.767  -6.536  -2.275  0.00  0.00    +0.210 HD
ENDBRANCH  26  32
BRANCH  25  34
ATOM     34  O   UNL     1      -0.251  -4.955  -2.045  0.00  0.00    -0.384 OA
ATOM     35  H   UNL     1      -0.807  -4.268  -2.438  0.00  0.00    +0.210 HD
ENDBRANCH  25  34
BRANCH  28  36
ATOM     36  C   UNL     1       2.390  -3.893   2.820  0.00  0.00    +0.190 C 
BRANCH  36  37
ATOM     37  O   UNL     1       1.577  -3.402   3.887  0.00  0.00    -0.392 OA
ATOM     38  H   UNL     1       2.079  -3.025   4.622  0.00  0.00    +0.210 HD
ENDBRANCH  36  37
ENDBRANCH  28  36
ENDBRANCH  23  24
ENDBRANCH   1  23
TORSDOF 13
