REMARK  Name = ZINC21262900
REMARK  13 active torsions:
REMARK  status: ('A' for Active; 'I' for Inactive)
REMARK    1  A    between atoms: C_1  and  C_2
REMARK    2  A    between atoms: C_2  and  C_30
REMARK    3  A    between atoms: C_4  and  N_10
REMARK    4  A    between atoms: C_6  and  C_8
REMARK    5  A    between atoms: C_6  and  C_9
REMARK    6  A    between atoms: N_10  and  C_11
REMARK    7  A    between atoms: C_11  and  N_13
REMARK    8  A    between atoms: N_13  and  C_14
REMARK    9  A    between atoms: N_13  and  C_23
REMARK   10  A    between atoms: C_14  and  C_15
REMARK   11  A    between atoms: C_18  and  O_21
REMARK   12  A    between atoms: O_21  and  C_22
REMARK   13  A    between atoms: C_23  and  C_24
REMARK                            x       y       z     vdW  Elec       q    Type
REMARK                         _______ _______ _______ _____ _____    ______ ____
ROOT
ATOM      1  N   UNL     1       0.240   5.721   1.290  0.00  0.00    -0.303 N 
ENDROOT
BRANCH   1   2
ATOM      2  C   UNL     1       1.532   6.036   1.509  0.00  0.00    +0.134 C 
ATOM      3  S   UNL     1       1.996   6.770   2.984  0.00  0.00    -0.019 S 
BRANCH   2   4
ATOM      4  N   UNL     1       2.459   5.772   0.567  0.00  0.00    -0.324 N 
ATOM      5  H   UNL     1       2.161   5.300  -0.381  0.00  0.00    +0.148 HD
BRANCH   4   9
ATOM      6  C   UNL     1       6.693   5.018   1.523  0.00  0.00    -0.010 C 
ATOM      7  C   UNL     1       6.227   5.558   0.165  0.00  0.00    -0.072 C 
ATOM      8  C   UNL     1       4.756   5.209  -0.045  0.00  0.00    +0.009 C 
ATOM      9  C   UNL     1       3.866   6.114   0.806  0.00  0.00    +0.069 C 
ATOM     10  C   UNL     1       4.109   7.565   0.390  0.00  0.00    +0.009 C 
ATOM     11  C   UNL     1       5.572   7.942   0.609  0.00  0.00    -0.072 C 
ATOM     12  N   UNL     1       6.495   6.976   0.048  0.00  0.00    +0.386 N 
ATOM     13  C   UNL     1       5.830   8.149   2.106  0.00  0.00    -0.010 C 
ATOM     14  C   UNL     1       5.812   9.300  -0.089  0.00  0.00    -0.010 C 
ATOM     15  C   UNL     1       7.041   4.822  -0.923  0.00  0.00    -0.010 C 
ATOM     16  H   UNL     1       7.451   7.211   0.538  0.00  0.00    -0.084 HD
ATOM     17  H   UNL     1       6.550   7.252  -1.016  0.00  0.00    -0.084 HD
ENDBRANCH   4   9
ENDBRANCH   2   4
ENDBRANCH   1   2
BRANCH   1  18
ATOM     18  C   UNL     1      -0.768   6.008   2.314  0.00  0.00    +0.142 C 
BRANCH  18  19
ATOM     19  C   UNL     1      -0.982   4.783   3.165  0.00  0.00    -0.030 A 
ATOM     20  C   UNL     1      -1.927   3.844   2.797  0.00  0.00    +0.009 A 
ATOM     21  C   UNL     1      -2.121   2.717   3.573  0.00  0.00    +0.046 A 
ATOM     22  C   UNL     1      -1.374   2.535   4.728  0.00  0.00    +0.120 A 
ATOM     23  C   UNL     1      -0.431   3.482   5.098  0.00  0.00    +0.046 A 
ATOM     24  C   UNL     1      -0.236   4.604   4.316  0.00  0.00    +0.009 A 
BRANCH  22  25
ATOM     25  O   UNL     1      -1.567   1.430   5.495  0.00  0.00    -0.495 OA
ATOM     26  C   UNL     1      -2.555   0.497   5.054  0.00  0.00    +0.277 C 
ENDBRANCH  22  25
ENDBRANCH  18  19
ENDBRANCH   1  18
BRANCH   1  27
ATOM     27  C   UNL     1      -0.157   5.093   0.027  0.00  0.00    +0.162 C 
BRANCH  27  28
ATOM     28  C   UNL     1      -0.530   6.160  -0.969  0.00  0.00    +0.058 A 
ATOM     29  C   UNL     1       0.415   6.615  -1.869  0.00  0.00    +0.025 A 
ATOM     30  C   UNL     1       0.060   7.593  -2.785  0.00  0.00    +0.003 A 
ATOM     31  C   UNL     1      -1.236   8.087  -2.755  0.00  0.00    +0.020 A 
ATOM     32  C   UNL     1      -2.126   7.584  -1.826  0.00  0.00    +0.111 A 
ATOM     33  N   UNL     1      -1.755   6.649  -0.973  0.00  0.00    -0.258 NA
ENDBRANCH  27  28
ENDBRANCH   1  27
TORSDOF 8
