REMARK  Name = ZINC41006297
REMARK  11 active torsions:
REMARK  status: ('A' for Active; 'I' for Inactive)
REMARK    1  A    between atoms: C_1  and  C_2
REMARK    2  A    between atoms: C_5  and  N_9
REMARK    3  A    between atoms: C_6  and  C_8
REMARK    4  A    between atoms: C_10  and  C_12
REMARK    5  A    between atoms: C_14  and  C_35
REMARK    6  A    between atoms: C_16  and  C_24
REMARK    7  A    between atoms: C_18  and  C_22
REMARK    8  A    between atoms: C_18  and  O_23
REMARK    9  A    between atoms: N_26  and  C_27
REMARK   10  A    between atoms: C_30  and  C_34
REMARK   11  A    between atoms: C_32  and  C_33
REMARK                            x       y       z     vdW  Elec       q    Type
REMARK                         _______ _______ _______ _____ _____    ______ ____
ROOT
ATOM      1  C   UNL     1      -0.174  -6.335  -1.189  0.00  0.00    +0.149 C 
ATOM      2  C   UNL     1      -0.270  -6.847  -2.630  0.00  0.00    +0.055 C 
ATOM      3  C   UNL     1      -0.503  -8.358  -2.619  0.00  0.00    +0.116 C 
ATOM      4  C   UNL     1      -1.848  -8.671  -1.960  0.00  0.00    +0.082 C 
ATOM      5  C   UNL     1      -1.811  -8.228  -0.493  0.00  0.00    +0.110 C 
ATOM      6  C   UNL     1      -1.413  -6.769  -0.437  0.00  0.00    +0.148 C 
ATOM      7  O   UNL     1      -2.069  -5.971   0.188  0.00  0.00    -0.296 OA
ATOM      8  C   UNL     1      -2.962  -7.920  -2.692  0.00  0.00    +0.042 C 
ENDROOT
BRANCH   2   9
ATOM      9  C   UNL     1       1.013  -6.542  -3.359  0.00  0.00    -0.007 A 
ATOM     10  C   UNL     1       2.208  -7.065  -2.903  0.00  0.00    +0.007 A 
ATOM     11  C   UNL     1       3.386  -6.785  -3.571  0.00  0.00    +0.000 A 
ATOM     12  C   UNL     1       3.369  -5.981  -4.696  0.00  0.00    +0.003 A 
ATOM     13  C   UNL     1       2.176  -5.457  -5.153  0.00  0.00    +0.038 A 
ATOM     14  C   UNL     1       0.995  -5.741  -4.488  0.00  0.00    +0.127 A 
ATOM     15  F   UNL     1      -0.173  -5.233  -4.938  0.00  0.00    -0.205 F 
ENDBRANCH   2   9
BRANCH   1  17
ATOM     16  N   UNL     1       0.002  -4.160  -0.026  0.00  0.00    -0.285 N 
ATOM     17  C   UNL     1      -0.084  -4.831  -1.191  0.00  0.00    +0.228 C 
ATOM     18  O   UNL     1      -0.088  -4.224  -2.241  0.00  0.00    -0.275 OA
ATOM     19  H   UNL     1       0.071  -4.646   0.810  0.00  0.00    +0.155 HD
BRANCH  16  24
ATOM     20  C   UNL     1      -0.049   1.513  -0.011  0.00  0.00    +0.044 C 
ATOM     21  C   UNL     1      -0.036   0.006  -0.015  0.00  0.00    -0.050 A 
ATOM     22  C   UNL     1       0.574  -0.675  -1.052  0.00  0.00    +0.005 A 
ATOM     23  C   UNL     1       0.588  -2.056  -1.058  0.00  0.00    +0.024 A 
ATOM     24  C   UNL     1      -0.011  -2.760  -0.022  0.00  0.00    +0.036 A 
ATOM     25  C   UNL     1      -0.622  -2.073   1.018  0.00  0.00    -0.029 A 
ATOM     26  C   UNL     1      -0.628  -0.691   1.021  0.00  0.00    +0.008 A 
ATOM     27  C   UNL     1      -1.273  -2.833   2.145  0.00  0.00    +0.045 C 
ENDBRANCH  16  24
ENDBRANCH   1  17
BRANCH   3  28
ATOM     28  C   UNL     1      -0.509  -8.876  -4.034  0.00  0.00    +0.224 C 
ATOM     29  O   UNL     1      -0.343  -8.110  -4.960  0.00  0.00    -0.275 OA
ATOM     30  N   UNL     1      -0.698 -10.189  -4.271  0.00  0.00    -0.285 N 
ATOM     31  H   UNL     1      -0.893 -10.791  -3.536  0.00  0.00    +0.155 HD
BRANCH  30  32
ATOM     32  C   UNL     1      -0.614 -10.683  -5.577  0.00  0.00    +0.036 A 
ATOM     33  C   UNL     1      -1.048  -9.907  -6.644  0.00  0.00    +0.024 A 
ATOM     34  C   UNL     1      -0.963 -10.398  -7.932  0.00  0.00    +0.005 A 
ATOM     35  C   UNL     1      -0.448 -11.661  -8.160  0.00  0.00    -0.050 A 
ATOM     36  C   UNL     1      -0.016 -12.436  -7.100  0.00  0.00    +0.008 A 
ATOM     37  C   UNL     1      -0.092 -11.948  -5.810  0.00  0.00    -0.029 A 
ATOM     38  C   UNL     1       0.386 -12.791  -4.656  0.00  0.00    +0.045 C 
ATOM     39  C   UNL     1      -0.358 -12.194  -9.567  0.00  0.00    +0.044 C 
ENDBRANCH  30  32
ENDBRANCH   3  28
BRANCH   4  40
ATOM     40  O   UNL     1      -2.096 -10.076  -2.027  0.00  0.00    -0.388 OA
ATOM     41  H   UNL     1      -2.934 -10.347  -1.627  0.00  0.00    +0.210 HD
ENDBRANCH   4  40
TORSDOF 6
