REMARK  Name = ZINC64066641
REMARK  7 active torsions:
REMARK  status: ('A' for Active; 'I' for Inactive)
REMARK    1  A    between atoms: C_6  and  C_11
REMARK    2  A    between atoms: C_11  and  N_12
REMARK    3  A    between atoms: C_13  and  C_15
REMARK    4  A    between atoms: C_15  and  C_16
REMARK    5  A    between atoms: C_16  and  C_17
REMARK    6  A    between atoms: C_21  and  C_24
REMARK    7  A    between atoms: C_24  and  C_28
REMARK                            x       y       z     vdW  Elec       q    Type
REMARK                         _______ _______ _______ _____ _____    ______ ____
ROOT
ATOM      1  C   UNL     1       9.215  -3.666   3.388  0.00  0.00    +0.202 C 
ATOM      2  N   UNL     1       9.701  -4.069   4.734  0.00  0.00    -0.227 NA
ATOM      3  N   UNL     1      11.135  -4.304   4.492  0.00  0.00    -0.226 NA
ATOM      4  C   UNL     1      11.170  -4.889   3.132  0.00  0.00    +0.212 C 
ATOM      5  O   UNL     1       9.961  -4.483   2.469  0.00  0.00    -0.341 OA
ATOM      6  H   UNL     1       9.244  -4.914   5.045  0.00  0.00    +0.143 HD
ATOM      7  H   UNL     1      11.516  -4.945   5.171  0.00  0.00    +0.143 HD
ENDROOT
BRANCH   4   8
ATOM      8  C   UNL     1      12.387  -4.364   2.369  0.00  0.00    +0.036 C 
ATOM      9  C   UNL     1      12.212  -2.932   1.838  0.00  0.00    +0.015 C 
ATOM     10  C   UNL     1      12.928  -3.401   0.561  0.00  0.00    +0.002 C 
ATOM     11  C   UNL     1      12.437  -4.819   0.901  0.00  0.00    +0.015 C 
BRANCH   8  12
ATOM     12  C   UNL     1      13.681  -4.580   3.112  0.00  0.00    -0.037 A 
ATOM     13  C   UNL     1      14.395  -3.496   3.585  0.00  0.00    +0.006 A 
ATOM     14  C   UNL     1      15.582  -3.693   4.266  0.00  0.00    +0.020 A 
ATOM     15  C   UNL     1      16.054  -4.977   4.474  0.00  0.00    +0.041 A 
ATOM     16  C   UNL     1      15.339  -6.062   4.000  0.00  0.00    +0.020 A 
ATOM     17  C   UNL     1      14.150  -5.864   3.324  0.00  0.00    +0.006 A 
ATOM     18 CL   UNL     1      17.544  -5.225   5.329  0.00  0.00    -0.084 Cl
ENDBRANCH   8  12
ENDBRANCH   4   8
BRANCH   1  19
ATOM     19  C   UNL     1       7.716  -3.946   3.256  0.00  0.00    +0.058 C 
BRANCH  19  20
ATOM     20  C   UNL     1       7.229  -3.479   1.884  0.00  0.00    +0.099 C 
BRANCH  20  22
ATOM     21  N   UNL     1       5.103  -3.424   0.620  0.00  0.00    -0.313 N 
ATOM     22  C   UNL     1       5.753  -3.755   1.754  0.00  0.00    +0.213 C 
ATOM     23  O   UNL     1       5.151  -4.275   2.669  0.00  0.00    -0.276 OA
ATOM     24  H   UNL     1       5.585  -3.008  -0.112  0.00  0.00    +0.149 HD
BRANCH  21  25
ATOM     25  C   UNL     1       3.668  -3.693   0.494  0.00  0.00    +0.132 C 
BRANCH  25  31
ATOM     26  C   UNL     1      -0.209  -0.127  -1.560  0.00  0.00    +0.001 A 
ATOM     27  C   UNL     1       0.915   0.709  -1.628  0.00  0.00    +0.002 A 
ATOM     28  C   UNL     1       2.176   0.248  -1.484  0.00  0.00    +0.026 A 
ATOM     29  C   UNL     1       2.414  -1.135  -1.252  0.00  0.00    +0.043 A 
ATOM     30  N   UNL     1       3.523  -1.813  -1.082  0.00  0.00    -0.376 N 
ATOM     31  C   UNL     1       3.181  -3.225  -0.879  0.00  0.00    +0.120 C 
ATOM     32  C   UNL     1       1.672  -3.301  -0.952  0.00  0.00    +0.009 C 
ATOM     33  C   UNL     1       1.244  -2.038  -1.175  0.00  0.00    -0.004 A 
ATOM     34  C   UNL     1      -0.094  -1.457  -1.343  0.00  0.00    +0.010 A 
ATOM     35  H   UNL     1       4.420  -1.443  -1.091  0.00  0.00    +0.160 HD
ENDBRANCH  25  31
ENDBRANCH  21  25
ENDBRANCH  20  22
ENDBRANCH  19  20
ENDBRANCH   1  19
TORSDOF 7
