REMARK  Name = ZINC43687533
REMARK  4 active torsions:
REMARK  status: ('A' for Active; 'I' for Inactive)
REMARK    1  A    between atoms: C_3  and  O_11
REMARK    2  A    between atoms: C_6  and  C_7
REMARK    3  A    between atoms: O_11  and  C_12
REMARK    4  A    between atoms: C_12  and  C_13
REMARK                            x       y       z     vdW  Elec       q    Type
REMARK                         _______ _______ _______ _____ _____    ______ ____
ROOT
ATOM      1  C   UNL     1      -0.017   1.392   0.010  0.00  0.00    +0.015 A 
ATOM      2  C   UNL     1       1.168   2.096   0.002  0.00  0.00    +0.048 A 
ATOM      3  C   UNL     1       2.380   1.419  -0.013  0.00  0.00    +0.139 A 
ATOM      4  C   UNL     1       2.404   0.028  -0.021  0.00  0.00    +0.083 A 
ATOM      5  C   UNL     1       1.223  -0.683  -0.014  0.00  0.00    +0.035 A 
ATOM      6  C   UNL     1       0.002  -0.004   0.002  0.00  0.00    +0.014 A 
ATOM      7 CL   UNL     1       3.922  -0.814  -0.040  0.00  0.00    -0.080 Cl
ENDROOT
BRANCH   6   8
ATOM      8  C   UNL     1      -1.266  -0.762   0.010  0.00  0.00    +0.094 C 
ATOM      9  N   UNL     1      -1.246  -2.094   0.003  0.00  0.00    -0.387 N 
ATOM     10  N   UNL     1      -2.430  -0.113   0.025  0.00  0.00    -0.345 N 
ATOM     11  H   UNL     1      -0.399  -2.567  -0.008  0.00  0.00    +0.157 HD
ATOM     12  H   UNL     1      -2.444   0.857   0.030  0.00  0.00    +0.144 HD
ATOM     13  H   UNL     1      -3.263  -0.611   0.030  0.00  0.00    +0.144 HD
ATOM     14  H   UNL     1      -2.079  -2.592   0.008  0.00  0.00    +0.157 HD
ENDBRANCH   6   8
BRANCH   3  15
ATOM     15  O   UNL     1       3.545   2.115  -0.021  0.00  0.00    -0.485 OA
BRANCH  15  16
ATOM     16  C   UNL     1       3.448   3.541  -0.013  0.00  0.00    +0.271 C 
BRANCH  16  17
ATOM     17  C   UNL     1       4.832   4.139  -0.023  0.00  0.00    +0.028 A 
ATOM     18  C   UNL     1       5.603   4.488  -1.082  0.00  0.00    +0.029 A 
ATOM     19  C   UNL     1       6.855   5.025  -0.851  0.00  0.00    +0.025 A 
ATOM     20  C   UNL     1       7.275   5.188   0.428  0.00  0.00    +0.060 A 
ATOM     21  S   UNL     1       5.877   4.578   1.356  0.00  0.00    -0.097 S 
ATOM     22 BR   UNL     1       7.967   5.526  -2.297  0.00  0.00    -0.050 Br
ENDBRANCH  16  17
ENDBRANCH  15  16
ENDBRANCH   3  15
TORSDOF 4
