REMARK  Name = ZINC04521758
REMARK  7 active torsions:
REMARK  status: ('A' for Active; 'I' for Inactive)
REMARK    1  A    between atoms: C_1  and  C_2
REMARK    2  A    between atoms: C_4  and  O_27
REMARK    3  A    between atoms: C_6  and  O_26
REMARK    4  A    between atoms: C_7  and  C_8
REMARK    5  A    between atoms: C_9  and  C_25
REMARK    6  A    between atoms: C_13  and  N_14
REMARK    7  A    between atoms: C_21  and  C_24
REMARK                            x       y       z     vdW  Elec       q    Type
REMARK                         _______ _______ _______ _____ _____    ______ ____
ROOT
ATOM      1  C   UNL     1       0.025   0.024   2.494  0.00  0.00    +0.012 A 
ATOM      2  C   UNL     1       1.225   0.381   3.072  0.00  0.00    -0.012 A 
ATOM      3  C   UNL     1       1.227   1.077   4.298  0.00  0.00    +0.110 A 
ATOM      4  C   UNL     1      -0.049   1.407   4.933  0.00  0.00    +0.156 A 
ATOM      5  C   UNL     1      -1.231   1.030   4.320  0.00  0.00    +0.071 A 
ATOM      6  C   UNL     1      -1.200   0.351   3.111  0.00  0.00    +0.036 A 
ATOM      7  O   UNL     1      -0.065   2.073   6.108  0.00  0.00    -0.452 OA
ATOM      8  C   UNL     1       1.107   2.425   6.681  0.00  0.00    +0.158 A 
ATOM      9  C   UNL     1       1.131   3.098   7.868  0.00  0.00    +0.099 A 
ATOM     10  C   UNL     1       2.352   3.458   8.453  0.00  0.00    +0.183 A 
ATOM     11  O   UNL     1       2.350   4.060   9.518  0.00  0.00    -0.288 OA
ATOM     12  C   UNL     1       3.587   3.141   7.841  0.00  0.00    +0.056 A 
ATOM     13  C   UNL     1       3.629   2.476   6.664  0.00  0.00    -0.018 A 
ATOM     14  C   UNL     1       2.374   2.083   6.024  0.00  0.00    +0.110 A 
ATOM     15  N   UNL     1       2.377   1.431   4.873  0.00  0.00    -0.240 NA
ATOM     16  C   UNL     1       4.951   2.144   6.021  0.00  0.00    +0.046 C 
ATOM     17  C   UNL     1       2.527   0.030   2.398  0.00  0.00    +0.047 C 
ENDROOT
BRANCH   1  24
ATOM     18  C   UNL     1      -0.018   1.503   0.010  0.00  0.00    +0.044 C 
ATOM     19  C   UNL     1       0.002  -0.004   0.002  0.00  0.00    -0.036 A 
ATOM     20  C   UNL     1       0.006  -0.687  -1.196  0.00  0.00    +0.049 A 
ATOM     21  C   UNL     1       0.024  -2.076  -1.208  0.00  0.00    +0.121 A 
ATOM     22  C   UNL     1       0.039  -2.784  -0.015  0.00  0.00    +0.091 A 
ATOM     23  C   UNL     1       0.036  -2.107   1.192  0.00  0.00    +0.128 A 
ATOM     24  C   UNL     1       0.023  -0.708   1.205  0.00  0.00    +0.029 A 
BRANCH  23  25
ATOM     25  O   UNL     1       0.050  -2.799   2.361  0.00  0.00    -0.506 OA
ATOM     26  H   UNL     1       0.937  -2.988   2.696  0.00  0.00    +0.292 HD
ENDBRANCH  23  25
BRANCH  21  27
ATOM     27  O   UNL     1       0.027  -2.743  -2.392  0.00  0.00    -0.507 OA
ATOM     28  H   UNL     1       0.911  -2.925  -2.739  0.00  0.00    +0.292 HD
ENDBRANCH  21  27
ENDBRANCH   1  24
BRANCH   6  29
ATOM     29  N   UNL     1      -2.389  -0.015   2.505  0.00  0.00    -0.357 N 
ATOM     30  H   UNL     1      -2.375  -0.493   1.661  0.00  0.00    +0.142 HD
ATOM     31  H   UNL     1      -3.235   0.206   2.924  0.00  0.00    +0.142 HD
ENDBRANCH   6  29
TORSDOF 4
