REMARK  Name = ZINC52042745
REMARK  6 active torsions:
REMARK  status: ('A' for Active; 'I' for Inactive)
REMARK    1  A    between atoms: C_1  and  C_2
REMARK    2  A    between atoms: C_2  and  C_4
REMARK    3  A    between atoms: C_2  and  N_11
REMARK    4  A    between atoms: N_14  and  C_15
REMARK    5  A    between atoms: C_15  and  C_16
REMARK    6  A    between atoms: C_15  and  C_17
REMARK                            x       y       z     vdW  Elec       q    Type
REMARK                         _______ _______ _______ _____ _____    ______ ____
ROOT
ATOM      1  N   UNL     1       0.711  -0.489   1.189  0.00  0.00    -0.351 N 
ATOM      2  C   UNL     1       2.081  -0.602   1.173  0.00  0.00    +0.169 C 
ATOM      3  N   UNL     1       2.749  -0.277   0.103  0.00  0.00    -0.371 N 
ATOM      4  N   UNL     1       2.746  -1.058   2.287  0.00  0.00    -0.356 N 
ATOM      5  H   UNL     1       0.213  -0.731   1.986  0.00  0.00    +0.163 HD
ATOM      6  H   UNL     1       3.716  -0.356   0.092  0.00  0.00    +0.159 HD
ATOM      7  H   UNL     1       2.248  -1.299   3.084  0.00  0.00    +0.163 HD
ATOM      8  H   UNL     1       2.280   0.044  -0.683  0.00  0.00    +0.159 HD
ENDROOT
BRANCH   4   9
ATOM      9  C   UNL     1       4.206  -1.177   2.271  0.00  0.00    +0.076 C 
ATOM     10  C   UNL     1       4.741  -1.085   3.701  0.00  0.00    +0.030 C 
ATOM     11  C   UNL     1       4.600  -2.526   1.664  0.00  0.00    +0.030 C 
ENDBRANCH   4   9
BRANCH   1  13
ATOM     12  C   UNL     1      -0.019   1.526   0.010  0.00  0.00    +0.035 C 
ATOM     13  C   UNL     1       0.002  -0.004   0.002  0.00  0.00    +0.109 C 
BRANCH  13  14
ATOM     14  C   UNL     1      -1.412  -0.526   0.013  0.00  0.00    -0.024 A 
ATOM     15  C   UNL     1      -2.123  -0.571   1.198  0.00  0.00    +0.006 A 
ATOM     16  C   UNL     1      -3.420  -1.049   1.208  0.00  0.00    +0.001 A 
ATOM     17  C   UNL     1      -4.006  -1.483   0.034  0.00  0.00    +0.015 A 
ATOM     18  C   UNL     1      -3.295  -1.437  -1.152  0.00  0.00    +0.018 A 
ATOM     19  C   UNL     1      -1.999  -0.954  -1.163  0.00  0.00    +0.021 A 
ATOM     20 BR   UNL     1      -4.097  -2.031  -2.759  0.00  0.00    -0.050 Br
ENDBRANCH  13  14
ENDBRANCH   1  13
TORSDOF 3
