REMARK  Name = ZINC62965752
REMARK  9 active torsions:
REMARK  status: ('A' for Active; 'I' for Inactive)
REMARK    1  A    between atoms: C_1  and  N_2
REMARK    2  A    between atoms: N_2  and  C_3
REMARK    3  A    between atoms: N_2  and  C_4
REMARK    4  A    between atoms: N_8  and  C_10
REMARK    5  A    between atoms: C_10  and  C_11
REMARK    6  A    between atoms: C_11  and  C_13
REMARK    7  A    between atoms: C_11  and  O_22
REMARK    8  A    between atoms: C_16  and  C_19
REMARK    9  A    between atoms: C_19  and  N_21
REMARK                            x       y       z     vdW  Elec       q    Type
REMARK                         _______ _______ _______ _____ _____    ______ ____
ROOT
ATOM      1  C   UNL     1      -4.336  -3.916  -1.472  0.00  0.00    +0.128 C 
ENDROOT
BRANCH   1   2
ATOM      2  C   UNL     1      -5.331  -4.815  -0.784  0.00  0.00    -0.021 A 
ATOM      3  C   UNL     1      -6.452  -4.269  -0.184  0.00  0.00    +0.007 A 
ATOM      4  C   UNL     1      -7.367  -5.086   0.447  0.00  0.00    +0.010 A 
ATOM      5  C   UNL     1      -7.160  -6.467   0.479  0.00  0.00    +0.003 A 
ATOM      6  C   UNL     1      -6.027  -7.011  -0.129  0.00  0.00    +0.010 A 
ATOM      7  C   UNL     1      -5.122  -6.183  -0.760  0.00  0.00    +0.007 A 
BRANCH   5   8
ATOM      8  C   UNL     1      -8.135  -7.347   1.153  0.00  0.00    +0.077 C 
ATOM      9  S   UNL     1      -9.805  -6.971   1.105  0.00  0.00    -0.035 S 
BRANCH   8  10
ATOM     10  N   UNL     1      -7.711  -8.447   1.807  0.00  0.00    -0.352 N 
ATOM     11  H   UNL     1      -6.765  -8.660   1.834  0.00  0.00    +0.143 HD
ATOM     12  H   UNL     1      -8.351  -9.025   2.249  0.00  0.00    +0.143 HD
ENDBRANCH   8  10
ENDBRANCH   5   8
ENDBRANCH   1   2
BRANCH   1  13
ATOM     13  O   UNL     1      -5.025  -2.824  -2.084  0.00  0.00    -0.389 OA
ATOM     14  H   UNL     1      -5.523  -2.275  -1.462  0.00  0.00    +0.210 HD
ENDBRANCH   1  13
BRANCH   1  15
ATOM     15  C   UNL     1      -3.338  -3.379  -0.444  0.00  0.00    -0.042 C 
BRANCH  15  19
ATOM     16  C   UNL     1      -1.360  -0.549  -0.083  0.00  0.00    +0.038 C 
ATOM     17  C   UNL     1      -2.028  -0.149  -1.424  0.00  0.00    -0.002 C 
ATOM     18  C   UNL     1      -3.054  -1.293  -1.616  0.00  0.00    -0.077 C 
ATOM     19  N   UNL     1      -2.368  -2.503  -1.115  0.00  0.00    +0.383 N 
ATOM     20  C   UNL     1      -1.328  -2.090  -0.151  0.00  0.00    -0.060 C 
ATOM     21  H   UNL     1      -1.943  -2.996  -1.885  0.00  0.00    -0.082 HD
BRANCH  16  23
ATOM     22  C   UNL     1      -0.018   1.465   0.010  0.00  0.00    +0.104 C 
ATOM     23  N   UNL     1       0.002  -0.004   0.002  0.00  0.00    -0.307 NA
ATOM     24  C   UNL     1       0.706  -0.527   1.180  0.00  0.00    +0.104 C 
ENDBRANCH  16  23
ENDBRANCH  15  19
ENDBRANCH   1  15
TORSDOF 7
