REMARK  Name = ZINC35310480
REMARK  7 active torsions:
REMARK  status: ('A' for Active; 'I' for Inactive)
REMARK    1  A    between atoms: C_1  and  C_2
REMARK    2  A    between atoms: C_4  and  C_26
REMARK    3  A    between atoms: C_5  and  C_9
REMARK    4  A    between atoms: C_6  and  C_8
REMARK    5  A    between atoms: C_11  and  C_17
REMARK    6  A    between atoms: C_17  and  C_19
REMARK    7  A    between atoms: C_17  and  O_25
REMARK                            x       y       z     vdW  Elec       q    Type
REMARK                         _______ _______ _______ _____ _____    ______ ____
ROOT
ATOM      1  C   UNL     1      -0.224  -4.430   0.070  0.00  0.00    +0.109 C 
ATOM      2  C   UNL     1       1.004  -5.309   0.433  0.00  0.00    +0.131 C 
ATOM      3  N   UNL     1       1.064  -6.493  -0.404  0.00  0.00    -0.361 N 
ATOM      4  C   UNL     1       0.408  -6.561  -1.528  0.00  0.00    +0.126 C 
ATOM      5  S   UNL     1      -0.471  -5.012  -1.662  0.00  0.00    -0.083 S 
ATOM      6  N   UNL     1       0.395  -7.606  -2.422  0.00  0.00    -0.339 N 
ATOM      7  H   UNL     1       0.915  -8.405  -2.243  0.00  0.00    +0.144 HD
ATOM      8  H   UNL     1      -0.135  -7.545  -3.232  0.00  0.00    +0.144 HD
ATOM      9  H   UNL     1       1.603  -7.249  -0.122  0.00  0.00    +0.162 HD
ENDROOT
BRANCH   1  14
ATOM     10  C   UNL     1       1.061   1.200   0.264  0.00  0.00    +0.044 C 
ATOM     11  C   UNL     1       0.726  -0.268   0.213  0.00  0.00    -0.050 A 
ATOM     12  C   UNL     1      -0.073  -0.829   1.192  0.00  0.00    +0.007 A 
ATOM     13  C   UNL     1      -0.381  -2.175   1.146  0.00  0.00    -0.046 A 
ATOM     14  C   UNL     1       0.110  -2.962   0.120  0.00  0.00    -0.026 A 
ATOM     15  C   UNL     1       0.908  -2.401  -0.859  0.00  0.00    -0.046 A 
ATOM     16  C   UNL     1       1.212  -1.053  -0.815  0.00  0.00    +0.007 A 
ATOM     17  C   UNL     1       1.444  -3.258  -1.977  0.00  0.00    +0.044 C 
ATOM     18  C   UNL     1      -1.251  -2.787   2.214  0.00  0.00    +0.044 C 
ENDBRANCH   1  14
BRANCH   2  19
ATOM     19  C   UNL     1       0.900  -5.737   1.898  0.00  0.00    +0.168 C 
BRANCH  19  20
ATOM     20  C   UNL     1       2.055  -6.643   2.239  0.00  0.00    -0.017 A 
ATOM     21  C   UNL     1       3.267  -6.103   2.626  0.00  0.00    +0.006 A 
ATOM     22  C   UNL     1       4.326  -6.934   2.939  0.00  0.00    +0.000 A 
ATOM     23  C   UNL     1       4.173  -8.306   2.866  0.00  0.00    +0.000 A 
ATOM     24  C   UNL     1       2.961  -8.846   2.480  0.00  0.00    +0.000 A 
ATOM     25  C   UNL     1       1.900  -8.015   2.171  0.00  0.00    +0.006 A 
ENDBRANCH  19  20
BRANCH  19  26
ATOM     26  O   UNL     1       0.939  -4.580   2.736  0.00  0.00    -0.385 OA
ATOM     27  H   UNL     1       1.707  -4.011   2.586  0.00  0.00    +0.210 HD
ENDBRANCH  19  26
ENDBRANCH   2  19
TORSDOF 4
