REMARK  Name = ZINC63351072
REMARK  11 active torsions:
REMARK  status: ('A' for Active; 'I' for Inactive)
REMARK    1  A    between atoms: C_1  and  C_2
REMARK    2  A    between atoms: C_6  and  O_18
REMARK    3  A    between atoms: C_12  and  C_13
REMARK    4  A    between atoms: C_13  and  C_14
REMARK    5  A    between atoms: C_14  and  O_16
REMARK    6  A    between atoms: O_16  and  C_17
REMARK    7  A    between atoms: O_18  and  C_19
REMARK    8  A    between atoms: C_19  and  C_20
REMARK    9  A    between atoms: C_35  and  C_37
REMARK   10  A    between atoms: C_37  and  O_39
REMARK   11  A    between atoms: O_39  and  C_40
REMARK                            x       y       z     vdW  Elec       q    Type
REMARK                         _______ _______ _______ _____ _____    ______ ____
ROOT
ATOM      1  C   UNL     1      -7.399  -3.360   2.386  0.00  0.00    +0.254 C 
ATOM      2  O   UNL     1      -7.133  -4.512   2.115  0.00  0.00    -0.272 OA
ATOM      3  N   UNL     1      -8.561  -2.820   1.966  0.00  0.00    -0.283 N 
ATOM      4  C   UNL     1      -8.832  -1.395   2.210  0.00  0.00    +0.137 C 
ATOM      5  C   UNL     1      -9.037  -0.716   0.852  0.00  0.00    +0.124 C 
ATOM      6  C   UNL     1     -10.029  -1.577   0.080  0.00  0.00    -0.035 C 
ATOM      7  C   UNL     1     -11.034  -0.778  -0.260  0.00  0.00    -0.001 A 
ATOM      8  C   UNL     1     -12.243  -1.014  -1.066  0.00  0.00    +0.010 A 
ATOM      9  C   UNL     1     -13.084   0.044  -1.208  0.00  0.00    +0.001 A 
ATOM     10  C   UNL     1     -12.846   1.298  -0.637  0.00  0.00    +0.002 A 
ATOM     11  C   UNL     1     -11.758   1.605   0.114  0.00  0.00    +0.026 A 
ATOM     12  C   UNL     1     -10.799   0.574   0.331  0.00  0.00    +0.043 A 
ATOM     13  N   UNL     1      -9.654   0.605   0.991  0.00  0.00    -0.376 N 
ATOM     14  C   UNL     1      -9.831  -3.059  -0.120  0.00  0.00    +0.067 C 
ATOM     15  C   UNL     1      -9.539  -3.658   1.263  0.00  0.00    +0.189 C 
ATOM     16  H   UNL     1      -9.285   1.354   1.484  0.00  0.00    +0.160 HD
ENDROOT
BRANCH  15  17
ATOM     17  C   UNL     1      -8.984  -5.049   1.100  0.00  0.00    +0.328 C 
ATOM     18  O   UNL     1      -7.989  -5.229   0.438  0.00  0.00    -0.249 OA
BRANCH  17  19
ATOM     19  O   UNL     1      -9.595  -6.089   1.689  0.00  0.00    -0.467 OA
ATOM     20  C   UNL     1      -9.014  -7.380   1.492  0.00  0.00    +0.280 C 
ENDBRANCH  17  19
ENDBRANCH  15  17
BRANCH   1  21
ATOM     21  C   UNL     1      -6.432  -2.533   3.192  0.00  0.00    +0.324 C 
BRANCH  21  22
ATOM     22  O   UNL     1      -5.285  -3.321   3.516  0.00  0.00    -0.483 OA
BRANCH  22  28
ATOM     23  C   UNL     1      -1.401   0.590   6.965  0.00  0.00    +0.045 C 
ATOM     24  C   UNL     1      -1.277  -0.844   6.519  0.00  0.00    -0.029 A 
ATOM     25  C   UNL     1      -2.335  -1.481   5.732  0.00  0.00    +0.021 A 
ATOM     26  C   UNL     1      -3.490  -0.776   5.374  0.00  0.00    +0.015 A 
ATOM     27  C   UNL     1      -4.461  -1.393   4.640  0.00  0.00    +0.046 A 
ATOM     28  C   UNL     1      -4.310  -2.721   4.245  0.00  0.00    +0.125 A 
ATOM     29  C   UNL     1      -3.174  -3.434   4.591  0.00  0.00    +0.092 A 
ATOM     30  C   UNL     1      -2.177  -2.822   5.336  0.00  0.00    +0.143 A 
ATOM     31  O   UNL     1      -1.061  -3.498   5.684  0.00  0.00    -0.422 OA
ATOM     32  C   UNL     1      -0.088  -2.921   6.404  0.00  0.00    +0.341 A 
ATOM     33  O   UNL     1       0.901  -3.570   6.694  0.00  0.00    -0.245 OA
ATOM     34  C   UNL     1      -0.178  -1.579   6.830  0.00  0.00    +0.051 A 
BRANCH  34  35
ATOM     35  C   UNL     1       0.940  -0.965   7.632  0.00  0.00    +0.163 C 
BRANCH  35  36
ATOM     36  C   UNL     1       0.742  -1.279   9.093  0.00  0.00    +0.311 C 
ATOM     37  O   UNL     1      -0.209  -1.935   9.446  0.00  0.00    -0.250 OA
BRANCH  36  38
ATOM     38  O   UNL     1       1.623  -0.831  10.001  0.00  0.00    -0.468 OA
ATOM     39  C   UNL     1       1.373  -1.167  11.368  0.00  0.00    +0.280 C 
ENDBRANCH  36  38
ENDBRANCH  35  36
ENDBRANCH  34  35
ENDBRANCH  22  28
ENDBRANCH  21  22
ENDBRANCH   1  21
TORSDOF 8
