REMARK  Name = ZINC43216945
REMARK  9 active torsions:
REMARK  status: ('A' for Active; 'I' for Inactive)
REMARK    1  A    between atoms: C_1  and  C_2
REMARK    2  A    between atoms: C_2  and  C_3
REMARK    3  A    between atoms: C_6  and  N_9
REMARK    4  A    between atoms: C_10  and  C_12
REMARK    5  A    between atoms: C_15  and  C_17
REMARK    6  A    between atoms: C_17  and  C_19
REMARK    7  A    between atoms: C_17  and  N_27
REMARK    8  A    between atoms: C_19  and  C_20
REMARK    9  A    between atoms: C_23  and  O_26
REMARK                            x       y       z     vdW  Elec       q    Type
REMARK                         _______ _______ _______ _____ _____    ______ ____
ROOT
ATOM      1  C   UNL     1       4.699  -2.319  -5.919  0.00  0.00    +0.164 A 
ATOM      2  C   UNL     1       6.041  -2.478  -6.076  0.00  0.00    +0.230 A 
ATOM      3  O   UNL     1       6.248  -2.813  -7.359  0.00  0.00    -0.449 OA
ATOM      4  C   UNL     1       5.060  -2.860  -7.977  0.00  0.00    +0.182 A 
ATOM      5  N   UNL     1       4.122  -2.571  -7.125  0.00  0.00    -0.210 NA
ENDROOT
BRANCH   1   7
ATOM      6  N   UNL     1       2.657  -1.834  -4.665  0.00  0.00    -0.280 N 
ATOM      7  C   UNL     1       4.000  -1.950  -4.675  0.00  0.00    +0.270 C 
ATOM      8  O   UNL     1       4.635  -1.749  -3.657  0.00  0.00    -0.268 OA
ATOM      9  H   UNL     1       2.144  -2.067  -5.454  0.00  0.00    +0.155 HD
BRANCH   6  13
ATOM     10  C   UNL     1       0.709  -0.473  -1.243  0.00  0.00    -0.048 A 
ATOM     11  C   UNL     1       0.099  -1.408  -2.059  0.00  0.00    +0.005 A 
ATOM     12  C   UNL     1       0.742  -1.861  -3.195  0.00  0.00    +0.023 A 
ATOM     13  C   UNL     1       2.003  -1.377  -3.516  0.00  0.00    +0.034 A 
ATOM     14  C   UNL     1       2.614  -0.439  -2.694  0.00  0.00    +0.023 A 
ATOM     15  C   UNL     1       1.963   0.015  -1.564  0.00  0.00    +0.005 A 
BRANCH  10  17
ATOM     16  C   UNL     1      -0.842   1.244  -0.354  0.00  0.00    +0.009 C 
ATOM     17  C   UNL     1       0.005   0.018  -0.005  0.00  0.00    +0.032 C 
ENDBRANCH  10  17
ENDBRANCH   6  13
ENDBRANCH   1   7
BRANCH   4  18
ATOM     18  C   UNL     1       4.845  -3.199  -9.430  0.00  0.00    +0.017 C 
BRANCH  18  19
ATOM     19  N   UNL     1       5.825  -2.477 -10.252  0.00  0.00    +0.386 N 
ATOM     20  H   UNL     1       5.710  -1.484 -10.117  0.00  0.00    -0.089 HD
ATOM     21  H   UNL     1       6.758  -2.747  -9.978  0.00  0.00    -0.089 HD
ATOM     22  H   UNL     1       5.681  -2.704 -11.224  0.00  0.00    -0.089 HD
ENDBRANCH  18  19
BRANCH  18  23
ATOM     23  C   UNL     1       5.020  -4.705  -9.633  0.00  0.00    +0.028 C 
BRANCH  23  24
ATOM     24  C   UNL     1       4.685  -5.062 -11.059  0.00  0.00    -0.048 A 
ATOM     25  C   UNL     1       3.387  -5.395 -11.400  0.00  0.00    +0.007 A 
ATOM     26  C   UNL     1       3.078  -5.723 -12.706  0.00  0.00    +0.045 A 
ATOM     27  C   UNL     1       4.071  -5.717 -13.675  0.00  0.00    +0.117 A 
ATOM     28  C   UNL     1       5.372  -5.382 -13.330  0.00  0.00    +0.045 A 
ATOM     29  C   UNL     1       5.675  -5.050 -12.024  0.00  0.00    +0.007 A 
BRANCH  27  30
ATOM     30  O   UNL     1       3.769  -6.040 -14.960  0.00  0.00    -0.507 OA
ATOM     31  H   UNL     1       3.509  -5.284 -15.505  0.00  0.00    +0.292 HD
ENDBRANCH  27  30
ENDBRANCH  23  24
ENDBRANCH  18  23
ENDBRANCH   4  18
TORSDOF 8
