REMARK  Name = ZINC33326886
REMARK  8 active torsions:
REMARK  status: ('A' for Active; 'I' for Inactive)
REMARK    1  A    between atoms: C_1  and  C_2
REMARK    2  A    between atoms: C_6  and  S_8
REMARK    3  A    between atoms: S_8  and  N_11
REMARK    4  A    between atoms: N_11  and  C_12
REMARK    5  A    between atoms: C_15  and  N_18
REMARK    6  A    between atoms: C_21  and  N_26
REMARK    7  A    between atoms: C_23  and  C_25
REMARK    8  A    between atoms: N_26  and  C_27
REMARK                            x       y       z     vdW  Elec       q    Type
REMARK                         _______ _______ _______ _____ _____    ______ ____
ROOT
ATOM      1  C   UNL     1       2.782   0.517  -1.397  0.00  0.00    +0.048 A 
ATOM      2  C   UNL     1       1.663  -0.107  -0.861  0.00  0.00    +0.026 A 
ATOM      3  C   UNL     1       0.501   0.612  -0.661  0.00  0.00    +0.025 A 
ATOM      4  C   UNL     1       0.453   1.959  -0.994  0.00  0.00    +0.032 A 
ATOM      5  C   UNL     1       1.572   2.583  -1.530  0.00  0.00    +0.025 A 
ATOM      6  C   UNL     1       2.733   1.864  -1.730  0.00  0.00    +0.026 A 
ENDROOT
BRANCH   4   7
ATOM      7  N   UNL     1      -0.728   2.687  -0.796  0.00  0.00    -0.301 N 
ATOM      8  C   UNL     1      -0.668   3.987  -0.317  0.00  0.00    +0.105 A 
ATOM      9  C   UNL     1       0.539   4.524   0.120  0.00  0.00    +0.085 A 
ATOM     10  C   UNL     1       0.546   5.833   0.591  0.00  0.00    +0.124 A 
ATOM     11  N   UNL     1      -0.594   6.521   0.606  0.00  0.00    -0.220 NA
ATOM     12  C   UNL     1      -1.717   5.977   0.183  0.00  0.00    +0.107 A 
ATOM     13  N   UNL     1      -1.764   4.742  -0.275  0.00  0.00    -0.332 N 
ATOM     14  C   UNL     1      -2.984   6.793   0.219  0.00  0.00    +0.086 C 
ATOM     15  H   UNL     1      -1.702   2.228  -1.020  0.00  0.00    +0.154 HD
ATOM     16  H   UNL     1      -2.725   4.337  -0.624  0.00  0.00    +0.168 HD
BRANCH  10  17
ATOM     17  N   UNL     1       1.723   6.414   1.037  0.00  0.00    -0.326 N 
ATOM     18  H   UNL     1       1.706   7.418   1.487  0.00  0.00    +0.148 HD
BRANCH  17  19
ATOM     19  C   UNL     1       2.991   5.691   0.910  0.00  0.00    +0.072 C 
ATOM     20  C   UNL     1       3.198   4.805   2.140  0.00  0.00    +0.022 C 
ATOM     21  C   UNL     1       4.522   4.049   2.008  0.00  0.00    +0.002 C 
ATOM     22  C   UNL     1       5.673   5.052   1.902  0.00  0.00    +0.000 C 
ATOM     23  C   UNL     1       5.466   5.938   0.672  0.00  0.00    +0.002 C 
ATOM     24  C   UNL     1       4.142   6.693   0.805  0.00  0.00    +0.022 C 
ENDBRANCH  17  19
ENDBRANCH  10  17
ENDBRANCH   4   7
BRANCH   1  25
ATOM     25  N   UNL     1       3.960  -0.212  -1.600  0.00  0.00    -0.216 N 
ATOM     26  H   UNL     1       4.823  -0.060  -0.935  0.00  0.00    +0.174 HD
BRANCH  25  27
ATOM     27  S   UNL     1       4.053  -1.304  -2.842  0.00  0.00    +0.072 S 
ATOM     28  O   UNL     1       5.389  -1.790  -2.855  0.00  0.00    -0.150 OA
ATOM     29  O   UNL     1       2.931  -2.165  -2.711  0.00  0.00    -0.150 OA
BRANCH  27  35
ATOM     30  C   UNL     1       1.030   0.467  -6.720  0.00  0.00    +0.044 C 
ATOM     31  C   UNL     1       2.397   0.378  -6.093  0.00  0.00    -0.049 A 
ATOM     32  C   UNL     1       3.476   0.998  -6.696  0.00  0.00    +0.003 A 
ATOM     33  C   UNL     1       4.730   0.916  -6.121  0.00  0.00    +0.002 A 
ATOM     34  C   UNL     1       4.907   0.213  -4.944  0.00  0.00    +0.029 A 
ATOM     35  C   UNL     1       3.829  -0.407  -4.342  0.00  0.00    +0.109 A 
ATOM     36  C   UNL     1       2.575  -0.330  -4.919  0.00  0.00    +0.032 A 
ENDBRANCH  27  35
ENDBRANCH  25  27
ENDBRANCH   1  25
TORSDOF 6
