REMARK  Name = ZINC47700027
REMARK  7 active torsions:
REMARK  status: ('A' for Active; 'I' for Inactive)
REMARK    1  A    between atoms: C_1  and  C_2
REMARK    2  A    between atoms: C_2  and  C_4
REMARK    3  A    between atoms: C_2  and  N_17
REMARK    4  A    between atoms: C_7  and  N_10
REMARK    5  A    between atoms: N_13  and  C_14
REMARK    6  A    between atoms: N_20  and  C_21
REMARK    7  A    between atoms: C_24  and  C_27
REMARK                            x       y       z     vdW  Elec       q    Type
REMARK                         _______ _______ _______ _____ _____    ______ ____
ROOT
ATOM      1  C   UNL     1       1.126   2.194   0.122  0.00  0.00    +0.033 C 
ATOM      2  C   UNL     1       1.030   0.726  -0.297  0.00  0.00    +0.102 C 
ENDROOT
BRANCH   2   3
ATOM      3  C   UNL     1       1.463  -0.153   0.849  0.00  0.00    -0.027 A 
ATOM      4  C   UNL     1       0.581  -0.430   1.877  0.00  0.00    +0.007 A 
ATOM      5  C   UNL     1       0.974  -1.235   2.928  0.00  0.00    +0.023 A 
ATOM      6  C   UNL     1       2.257  -1.766   2.952  0.00  0.00    +0.035 A 
ATOM      7  C   UNL     1       3.140  -1.486   1.918  0.00  0.00    +0.023 A 
ATOM      8  C   UNL     1       2.739  -0.685   0.866  0.00  0.00    +0.007 A 
BRANCH   6   9
ATOM      9  N   UNL     1       2.659  -2.581   4.016  0.00  0.00    -0.269 N 
ATOM     10  C   UNL     1       1.764  -3.383   4.626  0.00  0.00    +0.304 C 
ATOM     11  O   UNL     1       0.631  -3.469   4.193  0.00  0.00    -0.253 OA
ATOM     12  N   UNL     1       2.125  -4.090   5.715  0.00  0.00    -0.296 N 
ATOM     13  H   UNL     1       3.582  -2.570   4.314  0.00  0.00    +0.156 HD
ATOM     14  H   UNL     1       3.029  -4.021   6.061  0.00  0.00    +0.151 HD
BRANCH  12  15
ATOM     15  C   UNL     1       1.151  -4.961   6.379  0.00  0.00    +0.075 C 
ATOM     16  C   UNL     1       1.099  -4.927   7.907  0.00  0.00    +0.024 C 
ATOM     17  C   UNL     1       1.696  -6.139   7.189  0.00  0.00    +0.024 C 
ENDBRANCH  12  15
ENDBRANCH   6   9
ENDBRANCH   2   3
BRANCH   2  18
ATOM     18  N   UNL     1      -0.354   0.410  -0.658  0.00  0.00    -0.293 N 
ATOM     19  C   UNL     1      -0.798   0.661  -1.906  0.00  0.00    +0.304 C 
ATOM     20  O   UNL     1      -0.051   1.149  -2.731  0.00  0.00    -0.252 OA
ATOM     21  N   UNL     1      -2.072   0.370  -2.239  0.00  0.00    -0.269 N 
ATOM     22  H   UNL     1      -0.951   0.021  -0.000  0.00  0.00    +0.151 HD
ATOM     23  H   UNL     1      -2.689   0.052  -1.562  0.00  0.00    +0.156 HD
BRANCH  21  24
ATOM     24  C   UNL     1      -2.502   0.529  -3.557  0.00  0.00    +0.035 A 
ATOM     25  C   UNL     1      -1.621   0.295  -4.607  0.00  0.00    +0.024 A 
ATOM     26  C   UNL     1      -2.041   0.450  -5.909  0.00  0.00    +0.020 A 
ATOM     27  C   UNL     1      -3.356   0.842  -6.174  0.00  0.00    +0.052 A 
ATOM     28  C   UNL     1      -4.239   1.076  -5.116  0.00  0.00    +0.020 A 
ATOM     29  C   UNL     1      -3.813   0.914  -3.817  0.00  0.00    +0.024 A 
BRANCH  27  30
ATOM     30  C   UNL     1      -3.798   1.005  -7.527  0.00  0.00    +0.099 C 
ATOM     31  N   UNL     1      -4.148   1.134  -8.600  0.00  0.00    -0.191 NA
ENDBRANCH  27  30
ENDBRANCH  21  24
ENDBRANCH   2  18
TORSDOF 6
