REMARK  Name = ZINC43226716
REMARK  11 active torsions:
REMARK  status: ('A' for Active; 'I' for Inactive)
REMARK    1  A    between atoms: C_1  and  C_2
REMARK    2  A    between atoms: C_2  and  C_3
REMARK    3  A    between atoms: C_3  and  C_4
REMARK    4  A    between atoms: C_4  and  C_5
REMARK    5  A    between atoms: C_5  and  C_7
REMARK    6  A    between atoms: C_5  and  N_28
REMARK    7  A    between atoms: C_9  and  C_12
REMARK    8  A    between atoms: N_14  and  C_15
REMARK    9  A    between atoms: C_15  and  C_16
REMARK   10  A    between atoms: C_25  and  C_26
REMARK   11  A    between atoms: C_25  and  C_27
REMARK                            x       y       z     vdW  Elec       q    Type
REMARK                         _______ _______ _______ _____ _____    ______ ____
ROOT
ATOM      1  C   UNL     1       1.465  -3.829   2.708  0.00  0.00    +0.065 A 
ATOM      2  N   UNL     1       0.714  -4.593   3.455  0.00  0.00    -0.241 NA
ATOM      3  C   UNL     1       0.798  -5.917   3.295  0.00  0.00    +0.133 A 
ATOM      4  C   UNL     1       1.681  -6.354   2.344  0.00  0.00    +0.079 A 
ATOM      5  S   UNL     1       2.313  -4.915   1.749  0.00  0.00    -0.081 S 
ENDROOT
BRANCH   3   6
ATOM      6  C   UNL     1      -0.012  -6.852   4.095  0.00  0.00    +0.263 C 
ATOM      7  O   UNL     1       0.093  -8.051   3.920  0.00  0.00    -0.269 OA
ATOM      8  N   UNL     1      -0.869  -6.378   5.021  0.00  0.00    -0.310 N 
ATOM      9  H   UNL     1      -0.952  -5.422   5.161  0.00  0.00    +0.149 HD
BRANCH   8  10
ATOM     10  C   UNL     1      -1.674  -7.308   5.817  0.00  0.00    +0.108 C 
BRANCH  10  11
ATOM     11  C   UNL     1      -2.557  -6.517   6.788  0.00  0.00    +0.010 C 
ATOM     12  C   UNL     1      -1.704  -5.723   7.767  0.00  0.00    +0.005 C 
ATOM     13  C   UNL     1      -2.355  -5.567   9.135  0.00  0.00    +0.004 C 
ATOM     14  C   UNL     1      -3.425  -6.625   9.403  0.00  0.00    -0.005 C 
ATOM     15  C   UNL     1      -4.535  -6.589   8.332  0.00  0.00    +0.008 C 
ATOM     16  C   UNL     1      -3.544  -7.441   7.499  0.00  0.00    -0.000 C 
ATOM     17  C   UNL     1      -3.079  -8.011   8.840  0.00  0.00    -0.029 C 
ATOM     18  C   UNL     1      -3.999  -9.125   9.379  0.00  0.00    +0.011 C 
ATOM     19  C   UNL     1      -1.613  -8.416   8.952  0.00  0.00    +0.011 C 
ENDBRANCH  10  11
ENDBRANCH   8  10
ENDBRANCH   3   6
BRANCH   1  20
ATOM     20  C   UNL     1       1.547  -2.325   2.704  0.00  0.00    -0.018 C 
BRANCH  20  21
ATOM     21  N   UNL     1       2.956  -1.911   2.661  0.00  0.00    +0.384 N 
ATOM     22  H   UNL     1       3.010  -0.903   2.658  0.00  0.00    -0.089 HD
ATOM     23  H   UNL     1       3.437  -2.271   3.471  0.00  0.00    -0.089 HD
ATOM     24  H   UNL     1       3.387  -2.274   1.824  0.00  0.00    -0.089 HD
ENDBRANCH  20  21
BRANCH  20  25
ATOM     25  C   UNL     1       0.817  -1.778   1.475  0.00  0.00    -0.010 C 
BRANCH  25  26
ATOM     26  C   UNL     1       0.792  -0.249   1.535  0.00  0.00    -0.001 C 
BRANCH  26  28
ATOM     27  C   UNL     1       0.037   1.826   0.366  0.00  0.00    +0.004 C 
ATOM     28  C   UNL     1       0.062   0.297   0.306  0.00  0.00    -0.003 C 
ENDBRANCH  26  28
ENDBRANCH  25  26
ENDBRANCH  20  25
ENDBRANCH   1  20
TORSDOF 8
