REMARK  Name = ZINC04349680
REMARK  12 active torsions:
REMARK  status: ('A' for Active; 'I' for Inactive)
REMARK    1  A    between atoms: C_3  and  O_22
REMARK    2  A    between atoms: C_4  and  O_21
REMARK    3  A    between atoms: C_6  and  C_7
REMARK    4  A    between atoms: C_8  and  O_20
REMARK    5  A    between atoms: C_12  and  O_19
REMARK    6  A    between atoms: C_14  and  O_18
REMARK    7  A    between atoms: O_22  and  C_23
REMARK    8  A    between atoms: C_25  and  O_38
REMARK    9  A    between atoms: C_27  and  O_37
REMARK   10  A    between atoms: C_29  and  O_36
REMARK   11  A    between atoms: C_31  and  C_34
REMARK   12  A    between atoms: C_34  and  O_35
REMARK                            x       y       z     vdW  Elec       q    Type
REMARK                         _______ _______ _______ _____ _____    ______ ____
ROOT
ATOM      1  C   UNL     1       1.233  -0.357   3.618  0.00  0.00    +0.015 A 
ATOM      2  C   UNL     1       0.753   0.102   2.410  0.00  0.00    +0.050 A 
ATOM      3  C   UNL     1      -0.213   1.097   2.377  0.00  0.00    +0.165 A 
ATOM      4  C   UNL     1      -0.699   1.642   3.565  0.00  0.00    +0.159 A 
ATOM      5  C   UNL     1      -0.227   1.183   4.779  0.00  0.00    +0.060 A 
ATOM      6  C   UNL     1       0.746   0.180   4.813  0.00  0.00    +0.025 A 
ENDROOT
BRANCH   6   7
ATOM      7  C   UNL     1       1.258  -0.310   6.106  0.00  0.00    +0.181 A 
ATOM      8  C   UNL     1       0.366  -0.642   7.081  0.00  0.00    +0.208 A 
ATOM      9  C   UNL     1       0.843  -1.115   8.331  0.00  0.00    +0.238 A 
ATOM     10  O   UNL     1       0.074  -1.423   9.228  0.00  0.00    -0.283 OA
ATOM     11  C   UNL     1       2.300  -1.221   8.504  0.00  0.00    +0.109 A 
ATOM     12  C   UNL     1       2.858  -1.679   9.705  0.00  0.00    +0.135 A 
ATOM     13  C   UNL     1       4.232  -1.765   9.828  0.00  0.00    +0.091 A 
ATOM     14  C   UNL     1       5.053  -1.398   8.767  0.00  0.00    +0.124 A 
ATOM     15  C   UNL     1       4.509  -0.945   7.576  0.00  0.00    +0.092 A 
ATOM     16  C   UNL     1       3.132  -0.852   7.433  0.00  0.00    +0.147 A 
ATOM     17  O   UNL     1       2.587  -0.417   6.278  0.00  0.00    -0.451 OA
BRANCH  14  18
ATOM     18  O   UNL     1       6.402  -1.486   8.899  0.00  0.00    -0.507 OA
ATOM     19  H   UNL     1       6.817  -0.682   9.242  0.00  0.00    +0.292 HD
ENDBRANCH  14  18
BRANCH  12  20
ATOM     20  O   UNL     1       2.056  -2.036  10.740  0.00  0.00    -0.506 OA
ATOM     21  H   UNL     1       1.799  -2.968  10.735  0.00  0.00    +0.292 HD
ENDBRANCH  12  20
BRANCH   8  22
ATOM     22  O   UNL     1      -0.971  -0.522   6.858  0.00  0.00    -0.501 OA
ATOM     23  H   UNL     1      -1.381  -1.316   6.489  0.00  0.00    +0.292 HD
ENDBRANCH   8  22
ENDBRANCH   6   7
BRANCH   4  24
ATOM     24  O   UNL     1      -1.642   2.621   3.528  0.00  0.00    -0.503 OA
ATOM     25  H   UNL     1      -2.551   2.292   3.538  0.00  0.00    +0.292 HD
ENDBRANCH   4  24
BRANCH   3  26
ATOM     26  O   UNL     1      -0.683   1.546   1.183  0.00  0.00    -0.457 OA
BRANCH  26  27
ATOM     27  C   UNL     1      -0.138   0.948   0.005  0.00  0.00    +0.339 C 
ATOM     28  C   UNL     1      -0.870   1.487  -1.226  0.00  0.00    +0.214 C 
ATOM     29  C   UNL     1      -0.643   2.999  -1.325  0.00  0.00    +0.180 C 
ATOM     30  C   UNL     1       0.862   3.276  -1.376  0.00  0.00    +0.177 C 
ATOM     31  C   UNL     1       1.527   2.668  -0.138  0.00  0.00    +0.179 C 
ATOM     32  O   UNL     1       1.252   1.267  -0.091  0.00  0.00    -0.331 OA
BRANCH  30  33
ATOM     33  O   UNL     1       1.416   2.687  -2.554  0.00  0.00    -0.386 OA
ATOM     34  H   UNL     1       1.040   3.026  -3.378  0.00  0.00    +0.210 HD
ENDBRANCH  30  33
BRANCH  29  35
ATOM     35  O   UNL     1      -1.210   3.644  -0.182  0.00  0.00    -0.386 OA
ATOM     36  H   UNL     1      -2.163   3.510  -0.087  0.00  0.00    +0.210 HD
ENDBRANCH  29  35
BRANCH  28  37
ATOM     37  O   UNL     1      -0.362   0.851  -2.400  0.00  0.00    -0.383 OA
ATOM     38  H   UNL     1      -0.467  -0.111  -2.404  0.00  0.00    +0.210 HD
ENDBRANCH  28  37
BRANCH  31  39
ATOM     39  C   UNL     1       3.040   2.889  -0.212  0.00  0.00    +0.190 C 
BRANCH  39  40
ATOM     40  O   UNL     1       3.648   2.425   0.995  0.00  0.00    -0.392 OA
ATOM     41  H   UNL     1       4.609   2.534   1.019  0.00  0.00    +0.210 HD
ENDBRANCH  39  40
ENDBRANCH  31  39
ENDBRANCH  26  27
ENDBRANCH   3  26
TORSDOF 12
