REMARK  Name = ZINC01431241
REMARK  16 active torsions:
REMARK  status: ('A' for Active; 'I' for Inactive)
REMARK    1  A    between atoms: C_1  and  C_2
REMARK    2  A    between atoms: C_3  and  C_35
REMARK    3  A    between atoms: C_4  and  C_23
REMARK    4  A    between atoms: C_10  and  C_15
REMARK    5  A    between atoms: C_20  and  O_21
REMARK    6  A    between atoms: O_21  and  C_22
REMARK    7  A    between atoms: C_25  and  O_33
REMARK    8  A    between atoms: C_26  and  O_31
REMARK    9  A    between atoms: C_27  and  O_29
REMARK   10  A    between atoms: O_29  and  C_30
REMARK   11  A    between atoms: O_31  and  C_32
REMARK   12  A    between atoms: O_33  and  C_34
REMARK   13  A    between atoms: C_35  and  O_37
REMARK   14  A    between atoms: O_37  and  C_38
REMARK   15  A    between atoms: C_38  and  C_39
REMARK   16  A    between atoms: C_38  and  C_40
REMARK                            x       y       z     vdW  Elec       q    Type
REMARK                         _______ _______ _______ _____ _____    ______ ____
ROOT
ATOM      1  C   UNL     1       0.079   5.585   0.878  0.00  0.00    +0.061 C 
ATOM      2  C   UNL     1      -0.023   4.147   0.440  0.00  0.00    +0.016 C 
ATOM      3  C   UNL     1      -1.215   3.526   0.459  0.00  0.00    +0.065 C 
ATOM      4  C   UNL     1      -1.355   2.097   0.020  0.00  0.00    +0.092 C 
ATOM      5  C   UNL     1      -0.017   1.402   0.010  0.00  0.00    +0.024 C 
ATOM      6  C   UNL     1       1.130   2.114   0.003  0.00  0.00    +0.016 C 
ATOM      7  N   UNL     1       1.098   3.483   0.025  0.00  0.00    -0.321 N 
ATOM      8  C   UNL     1       2.472   1.426  -0.027  0.00  0.00    +0.060 C 
ATOM      9  C   UNL     1       2.374   0.079   0.694  0.00  0.00    +0.035 C 
ATOM     10  C   UNL     1       1.299  -0.766   0.002  0.00  0.00    +0.088 C 
ATOM     11  C   UNL     1       0.002  -0.004   0.002  0.00  0.00    +0.162 C 
ATOM     12  O   UNL     1      -1.048  -0.615  -0.004  0.00  0.00    -0.292 OA
ATOM     13  H   UNL     1       1.985   4.048  -0.295  0.00  0.00    +0.152 HD
ENDROOT
BRANCH   9  14
ATOM     14  C   UNL     1       3.701  -0.631   0.622  0.00  0.00    -0.002 A 
ATOM     15  C   UNL     1       4.255  -0.939  -0.606  0.00  0.00    +0.007 A 
ATOM     16  C   UNL     1       5.474  -1.587  -0.673  0.00  0.00    +0.001 A 
ATOM     17  C   UNL     1       6.138  -1.937   0.488  0.00  0.00    +0.004 A 
ATOM     18  C   UNL     1       5.586  -1.637   1.718  0.00  0.00    +0.046 A 
ATOM     19  C   UNL     1       4.365  -0.983   1.788  0.00  0.00    +0.124 A 
BRANCH  19  20
ATOM     20  O   UNL     1       3.820  -0.686   2.997  0.00  0.00    -0.495 OA
ATOM     21  C   UNL     1       4.559  -1.077   4.155  0.00  0.00    +0.277 C 
ENDBRANCH  19  20
ENDBRANCH   9  14
BRANCH   4  22
ATOM     22  C   UNL     1      -1.944   2.058  -1.367  0.00  0.00    -0.028 A 
ATOM     23  C   UNL     1      -1.268   2.648  -2.419  0.00  0.00    +0.054 A 
ATOM     24  C   UNL     1      -1.804   2.610  -3.697  0.00  0.00    +0.165 A 
ATOM     25  C   UNL     1      -3.026   1.987  -3.919  0.00  0.00    +0.204 A 
ATOM     26  C   UNL     1      -3.705   1.400  -2.857  0.00  0.00    +0.165 A 
ATOM     27  C   UNL     1      -3.160   1.438  -1.583  0.00  0.00    +0.054 A 
BRANCH  26  28
ATOM     28  O   UNL     1      -4.901   0.789  -3.069  0.00  0.00    -0.491 OA
ATOM     29  C   UNL     1      -5.542   0.207  -1.932  0.00  0.00    +0.277 C 
ENDBRANCH  26  28
BRANCH  25  30
ATOM     30  O   UNL     1      -3.558   1.953  -5.171  0.00  0.00    -0.488 OA
ATOM     31  C   UNL     1      -4.412   3.036  -5.543  0.00  0.00    +0.277 C 
ENDBRANCH  25  30
BRANCH  24  32
ATOM     32  O   UNL     1      -1.136   3.186  -4.733  0.00  0.00    -0.491 OA
ATOM     33  C   UNL     1       0.115   3.808  -4.432  0.00  0.00    +0.277 C 
ENDBRANCH  24  32
ENDBRANCH   4  22
BRANCH   3  34
ATOM     34  C   UNL     1      -2.358   4.232   0.900  0.00  0.00    +0.338 C 
ATOM     35  O   UNL     1      -2.257   5.391   1.256  0.00  0.00    -0.245 OA
BRANCH  34  36
ATOM     36  O   UNL     1      -3.561   3.621   0.925  0.00  0.00    -0.459 OA
BRANCH  36  37
ATOM     37  C   UNL     1      -4.673   4.395   1.381  0.00  0.00    +0.171 C 
ATOM     38  C   UNL     1      -5.949   3.909   0.690  0.00  0.00    +0.052 C 
ATOM     39  C   UNL     1      -4.819   4.234   2.895  0.00  0.00    +0.052 C 
ENDBRANCH  36  37
ENDBRANCH  34  36
ENDBRANCH   3  34
TORSDOF 9
