REMARK  Name = ZINC11982815
REMARK  3 active torsions:
REMARK  status: ('A' for Active; 'I' for Inactive)
REMARK    1  A    between atoms: C_11  and  C_14
REMARK    2  A    between atoms: C_14  and  C_15
REMARK    3  A    between atoms: C_15  and  N_28
REMARK                            x       y       z     vdW  Elec       q    Type
REMARK                         _______ _______ _______ _____ _____    ______ ____
ROOT
ATOM      1  C   UNL     1      -3.659   2.980   0.081  0.00  0.00    +0.003 A 
ATOM      2  C   UNL     1      -2.498   3.664  -0.230  0.00  0.00    +0.005 A 
ATOM      3  C   UNL     1      -1.289   2.998  -0.265  0.00  0.00    -0.023 A 
ATOM      4  C   UNL     1      -1.236   1.642   0.017  0.00  0.00    +0.072 A 
ATOM      5  C   UNL     1      -2.405   0.954   0.330  0.00  0.00    +0.145 A 
ATOM      6  C   UNL     1      -3.613   1.626   0.358  0.00  0.00    +0.040 A 
ATOM      7  F   UNL     1      -2.360  -0.369   0.600  0.00  0.00    -0.204 F 
ATOM      8  N   UNL     1      -0.011   0.966   0.007  0.00  0.00    -0.283 N 
ATOM      9  C   UNL     1       1.148   1.647  -0.000  0.00  0.00    +0.221 C 
ATOM     10  O   UNL     1       2.196   1.049  -0.121  0.00  0.00    -0.275 OA
ATOM     11  C   UNL     1       1.156   3.147   0.141  0.00  0.00    +0.078 C 
ATOM     12  C   UNL     1      -0.028   3.745  -0.618  0.00  0.00    +0.049 C 
ATOM     13  H   UNL     1       0.002  -0.004   0.002  0.00  0.00    +0.155 HD
ENDROOT
BRANCH  11  14
ATOM     14  C   UNL     1       1.051   3.518   1.622  0.00  0.00    -0.007 C 
BRANCH  14  15
ATOM     15  C   UNL     1       2.301   3.035   2.359  0.00  0.00    -0.086 C 
BRANCH  15  18
ATOM     16  H   UNL     1       3.015   3.083   4.290  0.00  0.00    -0.090 HD
ATOM     17  H   UNL     1       2.057   4.384   3.895  0.00  0.00    -0.090 HD
ATOM     18  N   UNL     1       2.179   3.379   3.787  0.00  0.00    +0.378 N 
ATOM     19  H   UNL     1       1.363   2.897   4.181  0.00  0.00    -0.090 HD
ENDBRANCH  15  18
ENDBRANCH  14  15
ENDBRANCH  11  14
TORSDOF 3
