REMARK  Name = ZINC05590469
REMARK  4 active torsions:
REMARK  status: ('A' for Active; 'I' for Inactive)
REMARK    1  A    between atoms: N_6  and  C_7
REMARK    2  A    between atoms: C_7  and  C_9
REMARK    3  A    between atoms: C_7  and  C_16
REMARK    4  A    between atoms: C_25  and  O_26
REMARK                            x       y       z     vdW  Elec       q    Type
REMARK                         _______ _______ _______ _____ _____    ______ ____
ROOT
ATOM      1  C   UNL     1       2.468   3.909   0.001  0.00  0.00    +0.136 C 
ENDROOT
BRANCH   1   2
ATOM      2  C   UNL     1       1.142   3.199  -0.079  0.00  0.00    +0.021 A 
ATOM      3  C   UNL     1       1.103   1.809  -0.002  0.00  0.00    +0.010 A 
ATOM      4  C   UNL     1      -0.080   1.137  -0.070  0.00  0.00    +0.010 A 
ATOM      5  C   UNL     1      -1.279   1.851  -0.227  0.00  0.00    +0.004 A 
ATOM      6  C   UNL     1      -2.519   1.191  -0.308  0.00  0.00    +0.011 A 
ATOM      7  C   UNL     1      -3.644   1.950  -0.461  0.00  0.00    +0.020 A 
ATOM      8  C   UNL     1      -3.542   3.338  -0.533  0.00  0.00    +0.111 A 
ATOM      9  N   UNL     1      -2.386   3.949  -0.446  0.00  0.00    -0.251 NA
ATOM     10  C   UNL     1      -1.247   3.265  -0.302  0.00  0.00    +0.113 A 
ATOM     11  C   UNL     1      -0.004   3.928  -0.227  0.00  0.00    +0.148 A 
BRANCH  11  12
ATOM     12  O   UNL     1       0.054   5.283  -0.301  0.00  0.00    -0.504 OA
ATOM     13  H   UNL     1       0.151   5.623  -1.201  0.00  0.00    +0.292 HD
ENDBRANCH  11  12
ENDBRANCH   1   2
BRANCH   1  19
ATOM     14  C   UNL     1       6.070   5.460  -1.492  0.00  0.00    +0.005 A 
ATOM     15  C   UNL     1       7.044   4.579  -1.943  0.00  0.00    +0.018 A 
ATOM     16  C   UNL     1       6.805   3.220  -1.889  0.00  0.00    +0.084 A 
ATOM     17  C   UNL     1       4.712   3.559  -0.977  0.00  0.00    +0.097 A 
ATOM     18  C   UNL     1       4.886   4.939  -1.002  0.00  0.00    +0.041 A 
ATOM     19  N   UNL     1       3.527   3.022  -0.487  0.00  0.00    -0.320 N 
ATOM     20  H   UNL     1       3.402   2.061  -0.468  0.00  0.00    +0.148 HD
ATOM     21  N   UNL     1       5.657   2.674  -1.408  0.00  0.00    -0.350 N 
ATOM     22  H   UNL     1       5.509   1.658  -1.372  0.00  0.00    +0.166 HD
ENDBRANCH   1  19
BRANCH   1  23
ATOM     23  C   UNL     1       2.750   4.289   1.432  0.00  0.00    -0.022 A 
ATOM     24  C   UNL     1       3.236   3.342   2.314  0.00  0.00    +0.006 A 
ATOM     25  C   UNL     1       3.500   3.691   3.626  0.00  0.00    +0.001 A 
ATOM     26  C   UNL     1       3.266   4.983   4.058  0.00  0.00    +0.015 A 
ATOM     27  C   UNL     1       2.774   5.929   3.176  0.00  0.00    +0.018 A 
ATOM     28  C   UNL     1       2.516   5.581   1.863  0.00  0.00    +0.021 A 
ATOM     29 BR   UNL     1       2.454   7.696   3.767  0.00  0.00    -0.050 Br
ENDBRANCH   1  23
TORSDOF 4
