REMARK  Name = ZINC08254417
REMARK  11 active torsions:
REMARK  status: ('A' for Active; 'I' for Inactive)
REMARK    1  A    between atoms: C_1  and  C_2
REMARK    2  A    between atoms: C_2  and  C_3
REMARK    3  A    between atoms: C_2  and  C_4
REMARK    4  A    between atoms: C_2  and  C_5
REMARK    5  A    between atoms: C_8  and  C_11
REMARK    6  A    between atoms: N_13  and  C_16
REMARK    7  A    between atoms: C_16  and  C_17
REMARK    8  A    between atoms: C_25  and  C_27
REMARK    9  A    between atoms: N_32  and  C_35
REMARK   10  A    between atoms: C_40  and  O_41
REMARK   11  A    between atoms: O_41  and  C_42
REMARK                            x       y       z     vdW  Elec       q    Type
REMARK                         _______ _______ _______ _____ _____    ______ ____
ROOT
ATOM      1  C   UNL     1       1.346   2.011   0.000  0.00  0.00    -0.046 C 
ATOM      2  C   UNL     1       2.082   1.563   1.266  0.00  0.00    -0.010 C 
ATOM      3  C   UNL     1       1.136   0.697   2.108  0.00  0.00    -0.004 C 
ATOM      4  C   UNL     1      -0.106   1.527   2.456  0.00  0.00    -0.015 C 
ATOM      5  C   UNL     1      -0.781   1.976   1.157  0.00  0.00    -0.078 C 
ATOM      6  C   UNL     1       0.002  -0.004   0.002  0.00  0.00    -0.065 C 
ATOM      7  C   UNL     1       0.699  -0.509   1.268  0.00  0.00    +0.062 C 
ATOM      8  N   UNL     1      -0.031   1.474  -0.014  0.00  0.00    +0.383 N 
ATOM      9  H   UNL     1      -0.502   1.788  -0.871  0.00  0.00    -0.081 HD
ENDROOT
BRANCH   7  10
ATOM     10  C   UNL     1      -0.256  -1.360   2.065  0.00  0.00    +0.217 C 
ATOM     11  O   UNL     1      -0.550  -1.043   3.198  0.00  0.00    -0.275 OA
ATOM     12  N   UNL     1      -0.783  -2.474   1.519  0.00  0.00    -0.298 N 
ATOM     13  C   UNL     1      -0.444  -2.874   0.145  0.00  0.00    +0.126 C 
ATOM     14  C   UNL     1       0.002  -4.344   0.167  0.00  0.00    +0.124 C 
ATOM     15  N   UNL     1      -1.038  -5.157   0.811  0.00  0.00    -0.324 N 
ATOM     16  C   UNL     1      -1.225  -4.768   2.216  0.00  0.00    +0.124 C 
ATOM     17  C   UNL     1      -1.717  -3.318   2.280  0.00  0.00    +0.126 C 
BRANCH  15  18
ATOM     18  C   UNL     1      -0.747  -6.522   0.703  0.00  0.00    +0.072 A 
ATOM     19  C   UNL     1       0.382  -7.043   1.318  0.00  0.00    +0.027 A 
ATOM     20  C   UNL     1       0.664  -8.392   1.214  0.00  0.00    +0.002 A 
ATOM     21  C   UNL     1      -0.171  -9.223   0.489  0.00  0.00    +0.004 A 
ATOM     22  C   UNL     1      -1.295  -8.709  -0.131  0.00  0.00    +0.047 A 
ATOM     23  C   UNL     1      -1.588  -7.359  -0.027  0.00  0.00    +0.141 A 
BRANCH  23  24
ATOM     24  O   UNL     1      -2.693  -6.853  -0.636  0.00  0.00    -0.493 OA
ATOM     25  C   UNL     1      -3.509  -7.770  -1.368  0.00  0.00    +0.277 C 
ENDBRANCH  23  24
ENDBRANCH  15  18
ENDBRANCH   7  10
BRANCH   1  26
ATOM     26  C   UNL     1       1.283   3.540  -0.040  0.00  0.00    +0.130 C 
BRANCH  26  29
ATOM     27  C   UNL     1      -0.602   4.917  -2.775  0.00  0.00    +0.113 A 
ATOM     28  C   UNL     1      -0.394   4.777  -1.434  0.00  0.00    +0.138 A 
ATOM     29  N   UNL     1       0.684   3.971  -1.305  0.00  0.00    -0.253 N 
ATOM     30  N   UNL     1       1.091   3.643  -2.480  0.00  0.00    -0.065 NA
ATOM     31  N   UNL     1       0.351   4.186  -3.381  0.00  0.00    -0.130 NA
BRANCH  27  35
ATOM     32  C   UNL     1      -3.658   7.195  -4.662  0.00  0.00    -0.042 A 
ATOM     33  C   UNL     1      -2.747   6.493  -5.431  0.00  0.00    +0.005 A 
ATOM     34  C   UNL     1      -1.754   5.752  -4.824  0.00  0.00    +0.010 A 
ATOM     35  C   UNL     1      -1.668   5.713  -3.434  0.00  0.00    +0.004 A 
ATOM     36  C   UNL     1      -2.591   6.417  -2.664  0.00  0.00    +0.010 A 
ATOM     37  C   UNL     1      -3.578   7.159  -3.282  0.00  0.00    +0.005 A 
BRANCH  32  39
ATOM     38  C   UNL     1      -5.611   7.080  -6.186  0.00  0.00    +0.015 C 
ATOM     39  C   UNL     1      -4.740   8.003  -5.331  0.00  0.00    -0.013 C 
ATOM     40  C   UNL     1      -5.606   8.677  -4.264  0.00  0.00    +0.015 C 
ATOM     41  C   UNL     1      -4.103   9.072  -6.221  0.00  0.00    +0.015 C 
ENDBRANCH  32  39
ENDBRANCH  27  35
ENDBRANCH  26  29
ENDBRANCH   1  26
TORSDOF 7
