REMARK  Name = ZINC35051154
REMARK  12 active torsions:
REMARK  status: ('A' for Active; 'I' for Inactive)
REMARK    1  A    between atoms: C_1  and  C_2
REMARK    2  A    between atoms: C_2  and  C_3
REMARK    3  A    between atoms: C_3  and  C_5
REMARK    4  A    between atoms: C_3  and  C_6
REMARK    5  A    between atoms: C_6  and  C_8
REMARK    6  A    between atoms: C_6  and  N_28
REMARK    7  A    between atoms: C_14  and  C_16
REMARK    8  A    between atoms: N_18  and  C_19
REMARK    9  A    between atoms: C_22  and  N_25
REMARK   10  A    between atoms: C_29  and  C_31
REMARK   11  A    between atoms: C_31  and  C_33
REMARK   12  A    between atoms: C_31  and  N_34
REMARK                            x       y       z     vdW  Elec       q    Type
REMARK                         _______ _______ _______ _____ _____    ______ ____
ROOT
ATOM      1  C   UNL     1       3.973  -0.578  -2.054  0.00  0.00    +0.237 C 
ATOM      2  O   UNL     1       4.792  -0.075  -2.795  0.00  0.00    -0.274 OA
ATOM      3  N   UNL     1       3.458  -1.790  -2.344  0.00  0.00    -0.288 N 
ATOM      4  C   UNL     1       2.375  -2.462  -1.603  0.00  0.00    +0.109 C 
ATOM      5  C   UNL     1       1.746  -3.443  -2.624  0.00  0.00    +0.021 C 
ATOM      6  C   UNL     1       2.996  -3.922  -3.407  0.00  0.00    +0.033 C 
ATOM      7  C   UNL     1       3.877  -2.656  -3.455  0.00  0.00    +0.162 C 
ENDROOT
BRANCH   7   8
ATOM      8  C   UNL     1       3.680  -1.940  -4.766  0.00  0.00    +0.238 C 
ATOM      9  O   UNL     1       3.015  -0.926  -4.809  0.00  0.00    -0.273 OA
ATOM     10  N   UNL     1       4.241  -2.426  -5.891  0.00  0.00    -0.284 N 
ATOM     11  H   UNL     1       4.703  -3.279  -5.873  0.00  0.00    +0.155 HD
BRANCH  10  12
ATOM     12  C   UNL     1       4.156  -1.702  -7.085  0.00  0.00    +0.034 A 
ATOM     13  C   UNL     1       4.140  -0.313  -7.057  0.00  0.00    +0.025 A 
ATOM     14  C   UNL     1       4.056   0.399  -8.237  0.00  0.00    +0.034 A 
ATOM     15  C   UNL     1       3.988  -0.269  -9.446  0.00  0.00    +0.126 A 
ATOM     16  C   UNL     1       4.003  -1.651  -9.478  0.00  0.00    +0.034 A 
ATOM     17  C   UNL     1       4.093  -2.369  -8.301  0.00  0.00    +0.025 A 
BRANCH  15  18
ATOM     18  N   UNL     1       3.898   0.498 -10.709  0.00  0.00    +0.056 N 
ATOM     19  O   UNL     1       3.885   1.706 -10.683  0.00  0.00    -0.126 OA
ATOM     20  O   UNL     1       3.839  -0.085 -11.767  0.00  0.00    -0.126 OA
ENDBRANCH  15  18
ENDBRANCH  10  12
ENDBRANCH   7   8
BRANCH   1  21
ATOM     21  C   UNL     1       3.533   0.150  -0.811  0.00  0.00    +0.162 C 
BRANCH  21  22
ATOM     22  N   UNL     1       4.417   1.295  -0.577  0.00  0.00    -0.305 N 
ATOM     23  C   UNL     1       4.696   1.683   0.683  0.00  0.00    +0.199 C 
ATOM     24  O   UNL     1       4.287   1.035   1.623  0.00  0.00    -0.278 OA
ATOM     25  H   UNL     1       4.802   1.772  -1.328  0.00  0.00    +0.149 HD
BRANCH  23  26
ATOM     26  C   UNL     1       5.516   2.924   0.924  0.00  0.00    +0.010 C 
ATOM     27  C   UNL     1       6.892   2.761   0.275  0.00  0.00    -0.005 C 
BRANCH  26  28
ATOM     28  N   UNL     1       5.679   3.131   2.370  0.00  0.00    +0.385 N 
ATOM     29  H   UNL     1       6.149   2.334   2.773  0.00  0.00    -0.089 HD
ATOM     30  H   UNL     1       6.228   3.962   2.531  0.00  0.00    -0.089 HD
ATOM     31  H   UNL     1       4.772   3.239   2.798  0.00  0.00    -0.089 HD
ENDBRANCH  26  28
ENDBRANCH  23  26
ENDBRANCH  21  22
BRANCH  21  32
ATOM     32  C   UNL     1       2.096   0.644  -0.991  0.00  0.00    +0.015 C 
ATOM     33  C   UNL     1       1.581   1.210   0.334  0.00  0.00    +0.010 C 
BRANCH  32  35
ATOM     34  C   UNL     1       2.383   1.127  -3.426  0.00  0.00    +0.004 C 
ATOM     35  C   UNL     1       2.064   1.739  -2.060  0.00  0.00    +0.002 C 
ENDBRANCH  32  35
ENDBRANCH  21  32
ENDBRANCH   1  21
TORSDOF 9
