REMARK  Name = ZINC40515365
REMARK  5 active torsions:
REMARK  status: ('A' for Active; 'I' for Inactive)
REMARK    1  A    between atoms: C_1  and  C_2
REMARK    2  A    between atoms: C_4  and  C_19
REMARK    3  A    between atoms: C_6  and  S_11
REMARK    4  A    between atoms: C_7  and  C_8
REMARK    5  A    between atoms: S_11  and  C_12
REMARK                            x       y       z     vdW  Elec       q    Type
REMARK                         _______ _______ _______ _____ _____    ______ ____
ROOT
ATOM      1  C   UNL     1      -0.013   1.502   0.008  0.00  0.00    +0.044 C 
ATOM      2  C   UNL     1       0.013  -0.005   0.001  0.00  0.00    -0.036 A 
ATOM      3  C   UNL     1       0.031  -0.708  -1.192  0.00  0.00    +0.027 A 
ATOM      4  C   UNL     1       0.055  -2.091  -1.167  0.00  0.00    +0.040 A 
ATOM      5  N   UNL     1       0.061  -2.754  -0.028  0.00  0.00    -0.245 NA
ATOM      6  C   UNL     1       0.045  -2.132   1.141  0.00  0.00    +0.112 A 
ATOM      7  C   UNL     1       0.027  -0.727   1.198  0.00  0.00    +0.047 A 
ATOM      8  C   UNL     1       0.074  -2.854  -2.467  0.00  0.00    +0.065 C 
ENDROOT
BRANCH   7   9
ATOM      9  C   UNL     1       0.016  -0.028   2.497  0.00  0.00    +0.097 C 
ATOM     10  N   UNL     1       1.065  -0.124   3.315  0.00  0.00    -0.387 N 
ATOM     11  N   UNL     1      -1.043   0.700   2.854  0.00  0.00    -0.344 N 
ATOM     12  H   UNL     1       1.835  -0.653   3.055  0.00  0.00    +0.157 HD
ATOM     13  H   UNL     1      -1.806   0.769   2.259  0.00  0.00    +0.144 HD
ATOM     14  H   UNL     1      -1.050   1.159   3.708  0.00  0.00    +0.144 HD
ATOM     15  H   UNL     1       1.057   0.336   4.169  0.00  0.00    +0.157 HD
ENDBRANCH   7   9
BRANCH   6  16
ATOM     16  S   UNL     1       0.054  -3.069   2.634  0.00  0.00    -0.069 S 
BRANCH  16  17
ATOM     17  C   UNL     1      -0.076  -4.739   2.088  0.00  0.00    +0.014 A 
ATOM     18  C   UNL     1       1.070  -5.507   1.917  0.00  0.00    +0.016 A 
ATOM     19  C   UNL     1       0.965  -6.816   1.490  0.00  0.00    +0.016 A 
ATOM     20  C   UNL     1      -0.280  -7.363   1.232  0.00  0.00    +0.018 A 
ATOM     21  C   UNL     1      -1.422  -6.601   1.401  0.00  0.00    +0.016 A 
ATOM     22  C   UNL     1      -1.324  -5.294   1.834  0.00  0.00    +0.016 A 
ATOM     23 BR   UNL     1      -0.419  -9.155   0.646  0.00  0.00    -0.050 Br
ENDBRANCH  16  17
ENDBRANCH   6  16
TORSDOF 3
