REMARK  Name = ZINC43402302
REMARK  13 active torsions:
REMARK  status: ('A' for Active; 'I' for Inactive)
REMARK    1  A    between atoms: C_1  and  C_2
REMARK    2  A    between atoms: C_2  and  C_4
REMARK    3  A    between atoms: C_2  and  N_7
REMARK    4  A    between atoms: N_7  and  C_8
REMARK    5  A    between atoms: N_7  and  C_12
REMARK    6  A    between atoms: C_8  and  C_9
REMARK    7  A    between atoms: C_9  and  O_10
REMARK    8  A    between atoms: O_10  and  C_11
REMARK    9  A    between atoms: C_12  and  C_13
REMARK   10  A    between atoms: C_15  and  C_18
REMARK   11  A    between atoms: C_18  and  C_19
REMARK   12  A    between atoms: C_18  and  C_20
REMARK   13  A    between atoms: C_18  and  N_21
REMARK                            x       y       z     vdW  Elec       q    Type
REMARK                         _______ _______ _______ _____ _____    ______ ____
ROOT
ATOM      1  C   UNL     1      -2.254  -0.269   1.302  0.00  0.00    +0.022 C 
ENDROOT
BRANCH   1   2
ATOM      2  C   UNL     1      -2.775   1.141   1.189  0.00  0.00    +0.211 A 
ATOM      3  N   UNL     1      -3.948   1.489   0.737  0.00  0.00    -0.199 NA
ATOM      4  C   UNL     1      -4.079   2.820   0.777  0.00  0.00    +0.160 A 
ATOM      5  N   UNL     1      -2.985   3.337   1.257  0.00  0.00    -0.063 NA
ATOM      6  O   UNL     1      -2.115   2.252   1.541  0.00  0.00    -0.340 OA
BRANCH   4   7
ATOM      7  C   UNL     1      -5.295   3.594   0.337  0.00  0.00    -0.012 C 
ATOM      8  C   UNL     1      -5.048   5.090   0.542  0.00  0.00    -0.003 C 
ATOM      9  C   UNL     1      -5.566   3.320  -1.143  0.00  0.00    -0.003 C 
BRANCH   7  10
ATOM     10  N   UNL     1      -6.456   3.175   1.134  0.00  0.00    +0.386 N 
ATOM     11  H   UNL     1      -6.277   3.356   2.110  0.00  0.00    -0.089 HD
ATOM     12  H   UNL     1      -7.270   3.694   0.839  0.00  0.00    -0.089 HD
ATOM     13  H   UNL     1      -6.619   2.189   0.999  0.00  0.00    -0.089 HD
ENDBRANCH   7  10
ENDBRANCH   4   7
ENDBRANCH   1   2
BRANCH   1  14
ATOM     14  N   UNL     1      -2.053  -0.825  -0.043  0.00  0.00    +0.389 N 
ATOM     15  H   UNL     1      -2.846  -0.599  -0.623  0.00  0.00    -0.081 HD
BRANCH  14  17
ATOM     16  C   UNL     1       0.330  -0.413   0.345  0.00  0.00    -0.013 C 
ATOM     17  C   UNL     1      -0.836  -0.252  -0.633  0.00  0.00    -0.068 C 
BRANCH  17  18
ATOM     18  C   UNL     1      -1.059   1.235  -0.919  0.00  0.00    -0.025 C 
ATOM     19  C   UNL     1      -1.252   1.652  -2.378  0.00  0.00    +0.002 C 
ATOM     20  C   UNL     1       0.052   1.988  -1.652  0.00  0.00    +0.002 C 
ENDBRANCH  17  18
ENDBRANCH  14  17
BRANCH  14  21
ATOM     21  C   UNL     1      -1.912  -2.285   0.047  0.00  0.00    -0.049 C 
BRANCH  21  22
ATOM     22  C   UNL     1      -1.886  -2.882  -1.361  0.00  0.00    +0.141 C 
BRANCH  22  23
ATOM     23  O   UNL     1      -0.647  -2.556  -1.994  0.00  0.00    -0.385 OA
ATOM     24  C   UNL     1      -0.563  -2.976  -3.357  0.00  0.00    +0.193 C 
ENDBRANCH  22  23
ENDBRANCH  21  22
ENDBRANCH  14  21
ENDBRANCH   1  14
TORSDOF 9
