REMARK  Name = ZINC62610699
REMARK  5 active torsions:
REMARK  status: ('A' for Active; 'I' for Inactive)
REMARK    1  A    between atoms: C_1  and  C_2
REMARK    2  A    between atoms: C_2  and  C_3
REMARK    3  A    between atoms: C_2  and  C_4
REMARK    4  A    between atoms: C_13  and  N_18
REMARK    5  A    between atoms: C_15  and  O_17
REMARK                            x       y       z     vdW  Elec       q    Type
REMARK                         _______ _______ _______ _____ _____    ______ ____
ROOT
ATOM      1  C   UNL     1      -1.412  -0.526   0.013  0.00  0.00    -0.003 A 
ATOM      2  C   UNL     1      -2.262  -0.206   1.055  0.00  0.00    +0.007 A 
ATOM      3  C   UNL     1      -3.560  -0.682   1.064  0.00  0.00    +0.001 A 
ATOM      4  C   UNL     1      -4.016  -1.475   0.025  0.00  0.00    +0.010 A 
ATOM      5  C   UNL     1      -3.167  -1.790  -1.017  0.00  0.00    +0.021 A 
ATOM      6  C   UNL     1      -1.869  -1.325  -1.027  0.00  0.00    +0.129 A 
ATOM      7  O   UNL     1      -1.023  -1.673  -2.036  0.00  0.00    -0.491 OA
ATOM      8  C   UNL     1      -0.609  -3.043  -2.051  0.00  0.00    +0.227 C 
ATOM      9  C   UNL     1      -1.602  -3.900  -2.809  0.00  0.00    +0.028 C 
ATOM     10  C   UNL     1      -2.966  -3.982  -2.139  0.00  0.00    -0.038 C 
ATOM     11  C   UNL     1      -3.667  -2.636  -2.171  0.00  0.00    +0.134 C 
ENDROOT
BRANCH  10  12
ATOM     12  N   UNL     1      -3.790  -4.974  -2.842  0.00  0.00    +0.382 N 
ATOM     13  H   UNL     1      -3.339  -5.876  -2.801  0.00  0.00    -0.090 HD
ATOM     14  H   UNL     1      -4.696  -5.032  -2.401  0.00  0.00    -0.090 HD
ATOM     15  H   UNL     1      -3.902  -4.697  -3.805  0.00  0.00    -0.090 HD
ENDBRANCH  10  12
BRANCH   1  17
ATOM     16  C   UNL     1      -0.019   1.526   0.010  0.00  0.00    +0.012 C 
ATOM     17  C   UNL     1       0.002  -0.004   0.002  0.00  0.00    +0.016 C 
ATOM     18  C   UNL     1       0.742  -0.511   1.242  0.00  0.00    +0.012 C 
ENDBRANCH   1  17
BRANCH  11  19
ATOM     19  O   UNL     1      -5.078  -2.826  -2.051  0.00  0.00    -0.389 OA
ATOM     20  H   UNL     1      -5.588  -2.004  -2.061  0.00  0.00    +0.210 HD
ENDBRANCH  11  19
TORSDOF 3
