REMARK  Name = ZINC39945157
REMARK  8 active torsions:
REMARK  status: ('A' for Active; 'I' for Inactive)
REMARK    1  A    between atoms: C_4  and  C_7
REMARK    2  A    between atoms: C_7  and  N_8
REMARK    3  A    between atoms: C_9  and  S_19
REMARK    4  A    between atoms: C_13  and  C_14
REMARK    5  A    between atoms: S_19  and  C_20
REMARK    6  A    between atoms: C_20  and  C_22
REMARK    7  A    between atoms: C_20  and  C_28
REMARK    8  A    between atoms: C_28  and  C_30
REMARK                            x       y       z     vdW  Elec       q    Type
REMARK                         _______ _______ _______ _____ _____    ______ ____
ROOT
ATOM      1  S   UNL     1       4.224   1.694   2.534  0.00  0.00    -0.102 S 
ENDROOT
BRANCH   1   3
ATOM      2  N   UNL     1       6.253   0.060   1.795  0.00  0.00    -0.279 N 
ATOM      3  C   UNL     1       4.876   0.016   2.317  0.00  0.00    +0.238 C 
ATOM      4  N   UNL     1       4.122  -0.703   1.275  0.00  0.00    -0.237 N 
ATOM      5  N   UNL     1       5.043  -1.017   0.268  0.00  0.00    -0.165 NA
ATOM      6  C   UNL     1       6.229  -0.586   0.559  0.00  0.00    +0.184 C 
ATOM      7  H   UNL     1       3.176  -0.916   1.285  0.00  0.00    +0.171 HD
BRANCH   6   8
ATOM      8  C   UNL     1       7.406  -0.759  -0.306  0.00  0.00    +0.169 A 
ATOM      9  C   UNL     1       7.423  -1.377  -1.520  0.00  0.00    +0.053 A 
ATOM     10  C   UNL     1       8.750  -1.312  -1.989  0.00  0.00    +0.042 A 
ATOM     11  C   UNL     1       9.470  -0.666  -1.052  0.00  0.00    +0.196 A 
ATOM     12  O   UNL     1       8.655  -0.328  -0.038  0.00  0.00    -0.460 OA
ENDBRANCH   6   8
BRANCH   2  13
ATOM     13  C   UNL     1       7.417   0.668   2.444  0.00  0.00    +0.144 C 
BRANCH  13  17
ATOM     14  C   UNL     1       7.518   4.847   1.565  0.00  0.00    +0.000 A 
ATOM     15  C   UNL     1       6.955   4.403   2.747  0.00  0.00    +0.000 A 
ATOM     16  C   UNL     1       6.922   3.050   3.031  0.00  0.00    +0.005 A 
ATOM     17  C   UNL     1       7.452   2.142   2.134  0.00  0.00    -0.030 A 
ATOM     18  C   UNL     1       8.014   2.587   0.952  0.00  0.00    +0.005 A 
ATOM     19  C   UNL     1       8.049   3.939   0.668  0.00  0.00    +0.000 A 
ENDBRANCH  13  17
ENDBRANCH   2  13
ENDBRANCH   1   3
BRANCH   1  20
ATOM     20  C   UNL     1       2.762   1.465   3.583  0.00  0.00    +0.150 C 
BRANCH  20  21
ATOM     21  C   UNL     1       1.703   0.719   2.812  0.00  0.00    -0.027 A 
ATOM     22  C   UNL     1       1.256   1.211   1.600  0.00  0.00    +0.005 A 
ATOM     23  C   UNL     1       0.285   0.527   0.893  0.00  0.00    +0.000 A 
ATOM     24  C   UNL     1      -0.239  -0.649   1.398  0.00  0.00    +0.000 A 
ATOM     25  C   UNL     1       0.209  -1.141   2.610  0.00  0.00    +0.000 A 
ATOM     26  C   UNL     1       1.184  -0.459   3.315  0.00  0.00    +0.005 A 
ENDBRANCH  20  21
BRANCH  20  27
ATOM     27  C   UNL     1       2.226   2.811   3.999  0.00  0.00    +0.179 C 
ATOM     28  O   UNL     1       2.446   3.790   3.315  0.00  0.00    -0.291 OA
BRANCH  27  29
ATOM     29  C   UNL     1       1.470   2.933   5.184  0.00  0.00    +0.024 C 
ATOM     30  C   UNL     1       0.905   4.085   5.701  0.00  0.00    +0.006 A 
ATOM     31  C   UNL     1       0.890   5.430   5.262  0.00  0.00    +0.010 A 
ATOM     32  C   UNL     1       0.245   6.375   5.982  0.00  0.00    +0.001 A 
ATOM     33  C   UNL     1      -0.430   6.081   7.178  0.00  0.00    +0.002 A 
ATOM     34  C   UNL     1      -0.476   4.829   7.684  0.00  0.00    +0.026 A 
ATOM     35  C   UNL     1       0.201   3.740   6.961  0.00  0.00    +0.043 A 
ATOM     36  N   UNL     1       0.316   2.468   7.214  0.00  0.00    -0.380 N 
ATOM     37  C   UNL     1       1.100   1.830   6.152  0.00  0.00    +0.152 C 
ATOM     38  H   UNL     1      -0.062   2.013   7.983  0.00  0.00    +0.160 HD
ENDBRANCH  27  29
ENDBRANCH  20  27
ENDBRANCH   1  20
TORSDOF 8
