REMARK  Name = ZINC66968476
REMARK  8 active torsions:
REMARK  status: ('A' for Active; 'I' for Inactive)
REMARK    1  A    between atoms: C_1  and  C_2
REMARK    2  A    between atoms: C_2  and  C_3
REMARK    3  A    between atoms: C_3  and  N_4
REMARK    4  A    between atoms: C_10  and  N_13
REMARK    5  A    between atoms: N_13  and  C_14
REMARK    6  A    between atoms: C_14  and  C_16
REMARK    7  A    between atoms: C_14  and  C_17
REMARK    8  A    between atoms: N_22  and  C_23
REMARK                            x       y       z     vdW  Elec       q    Type
REMARK                         _______ _______ _______ _____ _____    ______ ____
ROOT
ATOM      1  N   UNL     1      -4.774  -4.915   0.173  0.00  0.00    -0.333 N 
ATOM      2  H   UNL     1      -4.927  -4.176   0.781  0.00  0.00    +0.147 HD
ENDROOT
BRANCH   1   9
ATOM      3  N   UNL     1      -1.413  -2.002   0.005  0.00  0.00    +0.385 N 
ATOM      4  C   UNL     1      -0.958  -2.509  -1.310  0.00  0.00    -0.042 C 
ATOM      5  C   UNL     1      -1.721  -3.793  -1.540  0.00  0.00    -0.061 A 
ATOM      6  C   UNL     1      -1.505  -4.849  -2.405  0.00  0.00    +0.002 A 
ATOM      7  C   UNL     1      -2.371  -5.927  -2.417  0.00  0.00    +0.002 A 
ATOM      8  C   UNL     1      -3.457  -5.952  -1.563  0.00  0.00    +0.023 A 
ATOM      9  C   UNL     1      -3.677  -4.893  -0.692  0.00  0.00    +0.029 A 
ATOM     10  C   UNL     1      -2.805  -3.812  -0.682  0.00  0.00    -0.042 A 
ATOM     11  C   UNL     1      -2.786  -2.541   0.136  0.00  0.00    -0.040 C 
ATOM     12  H   UNL     1      -0.824  -2.353   0.745  0.00  0.00    -0.081 HD
BRANCH   3  13
ATOM     13  C   UNL     1      -1.433  -0.534   0.013  0.00  0.00    -0.078 C 
BRANCH  13  15
ATOM     14  C   UNL     1      -0.019   1.526   0.010  0.00  0.00    +0.002 C 
ATOM     15  C   UNL     1       0.002  -0.004   0.002  0.00  0.00    -0.022 C 
ENDBRANCH  13  15
ENDBRANCH   3  13
ENDBRANCH   1   9
BRANCH   1  16
ATOM     16  C   UNL     1      -5.693  -6.056   0.161  0.00  0.00    +0.154 C 
ATOM     17  C   UNL     1      -5.144  -7.162   1.065  0.00  0.00    +0.038 C 
BRANCH  16  18
ATOM     18  C   UNL     1      -7.043  -5.618   0.667  0.00  0.00    +0.240 C 
ATOM     19  O   UNL     1      -7.221  -4.467   1.003  0.00  0.00    -0.273 OA
ATOM     20  N   UNL     1      -8.054  -6.506   0.745  0.00  0.00    -0.239 N 
ATOM     21  C   UNL     1      -9.262  -6.115   1.196  0.00  0.00    +0.306 C 
ATOM     22  O   UNL     1      -9.440  -4.961   1.534  0.00  0.00    -0.252 OA
ATOM     23  N   UNL     1     -10.273  -7.003   1.274  0.00  0.00    -0.296 N 
ATOM     24  H   UNL     1      -7.912  -7.428   0.475  0.00  0.00    +0.159 HD
ATOM     25  H   UNL     1     -10.131  -7.924   1.005  0.00  0.00    +0.151 HD
BRANCH  23  26
ATOM     26  C   UNL     1     -11.586  -6.577   1.766  0.00  0.00    +0.075 C 
ATOM     27  C   UNL     1     -12.304  -7.501   2.752  0.00  0.00    +0.024 C 
ATOM     28  C   UNL     1     -12.805  -7.382   1.311  0.00  0.00    +0.024 C 
ENDBRANCH  23  26
ENDBRANCH  16  18
ENDBRANCH   1  16
TORSDOF 6
