REMARK  Name = ZINC20985165
REMARK  5 active torsions:
REMARK  status: ('A' for Active; 'I' for Inactive)
REMARK    1  A    between atoms: C_4  and  C_7
REMARK    2  A    between atoms: C_7  and  C_8
REMARK    3  A    between atoms: C_7  and  N_14
REMARK    4  A    between atoms: C_20  and  C_22
REMARK    5  A    between atoms: N_30  and  C_31
REMARK                            x       y       z     vdW  Elec       q    Type
REMARK                         _______ _______ _______ _____ _____    ______ ____
ROOT
ATOM      1  N   UNL     1      -0.188  -0.664   1.100  0.00  0.00    -0.289 NA
ATOM      2  C   UNL     1      -0.169  -0.107   2.459  0.00  0.00    +0.104 C 
ATOM      3  C   UNL     1      -1.446  -0.524   3.196  0.00  0.00    +0.123 C 
ATOM      4  N   UNL     1      -1.569  -1.988   3.125  0.00  0.00    -0.294 N 
ATOM      5  C   UNL     1      -1.460  -2.633   1.808  0.00  0.00    +0.123 C 
ATOM      6  C   UNL     1      -0.182  -2.132   1.126  0.00  0.00    +0.104 C 
ATOM      7  C   UNL     1      -1.777  -2.720   4.238  0.00  0.00    +0.266 C 
ATOM      8  O   UNL     1      -1.734  -2.188   5.332  0.00  0.00    -0.268 OA
ENDROOT
BRANCH   7   9
ATOM      9  C   UNL     1      -2.054  -4.161   4.130  0.00  0.00    +0.135 A 
ATOM     10  C   UNL     1      -2.092  -4.947   5.251  0.00  0.00    +0.081 A 
ATOM     11  S   UNL     1      -2.446  -6.506   4.573  0.00  0.00    -0.060 S 
ATOM     12  C   UNL     1      -2.521  -6.013   2.858  0.00  0.00    +0.166 A 
ATOM     13  N   UNL     1      -2.280  -4.721   2.939  0.00  0.00    -0.220 NA
ATOM     14  N   UNL     1      -2.775  -6.788   1.734  0.00  0.00    -0.248 N 
ATOM     15  C   UNL     1      -3.007  -8.109   1.865  0.00  0.00    +0.310 C 
ATOM     16  O   UNL     1      -2.995  -8.622   2.967  0.00  0.00    -0.252 OA
ATOM     17  N   UNL     1      -3.252  -8.861   0.774  0.00  0.00    -0.269 N 
ATOM     18  H   UNL     1      -2.785  -6.324   0.737  0.00  0.00    +0.158 HD
ATOM     19  H   UNL     1      -3.169  -8.418  -0.229  0.00  0.00    +0.156 HD
BRANCH  17  20
ATOM     20  C   UNL     1      -3.614 -10.206   0.918  0.00  0.00    +0.035 A 
ATOM     21  C   UNL     1      -3.212 -11.139  -0.029  0.00  0.00    +0.023 A 
ATOM     22  C   UNL     1      -3.567 -12.466   0.118  0.00  0.00    +0.002 A 
ATOM     23  C   UNL     1      -4.328 -12.864   1.202  0.00  0.00    +0.000 A 
ATOM     24  C   UNL     1      -4.734 -11.936   2.144  0.00  0.00    +0.002 A 
ATOM     25  C   UNL     1      -4.379 -10.608   2.005  0.00  0.00    +0.023 A 
ENDBRANCH  17  20
ENDBRANCH   7   9
BRANCH   1  26
ATOM     26  C   UNL     1       0.934  -0.147   0.304  0.00  0.00    +0.117 C 
BRANCH  26  30
ATOM     27  C   UNL     1       0.825   4.123   0.295  0.00  0.00    +0.000 A 
ATOM     28  C   UNL     1       2.035   3.463   0.401  0.00  0.00    +0.000 A 
ATOM     29  C   UNL     1       2.070   2.081   0.404  0.00  0.00    +0.005 A 
ATOM     30  C   UNL     1       0.895   1.360   0.301  0.00  0.00    -0.026 A 
ATOM     31  C   UNL     1      -0.314   2.020   0.190  0.00  0.00    +0.005 A 
ATOM     32  C   UNL     1      -0.350   3.402   0.192  0.00  0.00    +0.000 A 
ENDBRANCH  26  30
BRANCH  26  33
ATOM     33  C   UNL     1       0.823  -0.655  -1.110  0.00  0.00    -0.026 A 
ATOM     34  C   UNL     1      -0.414  -0.728  -1.723  0.00  0.00    +0.005 A 
ATOM     35  C   UNL     1      -0.516  -1.190  -3.022  0.00  0.00    +0.000 A 
ATOM     36  C   UNL     1       0.619  -1.588  -3.704  0.00  0.00    +0.000 A 
ATOM     37  C   UNL     1       1.855  -1.521  -3.089  0.00  0.00    +0.000 A 
ATOM     38  C   UNL     1       1.957  -1.054  -1.792  0.00  0.00    +0.005 A 
ENDBRANCH  26  33
ENDBRANCH   1  26
TORSDOF 5
