REMARK  Name = ZINC35427258
REMARK  5 active torsions:
REMARK  status: ('A' for Active; 'I' for Inactive)
REMARK    1  A    between atoms: C_1  and  N_2
REMARK    2  A    between atoms: C_16  and  C_31
REMARK    3  A    between atoms: N_22  and  C_23
REMARK    4  A    between atoms: C_26  and  O_29
REMARK    5  A    between atoms: O_29  and  C_30
REMARK                            x       y       z     vdW  Elec       q    Type
REMARK                         _______ _______ _______ _____ _____    ______ ____
ROOT
ATOM      1  C   UNL     1      -0.453   1.312  -1.407  0.00  0.00    -0.096 C 
ATOM      2  N   UNL     1      -0.367  -0.133  -1.156  0.00  0.00    +0.381 N 
ATOM      3  C   UNL     1      -1.708  -0.726  -1.243  0.00  0.00    -0.074 C 
ATOM      4  C   UNL     1      -1.612  -2.253  -1.303  0.00  0.00    +0.018 C 
ATOM      5  C   UNL     1      -0.755  -2.719  -0.128  0.00  0.00    -0.034 A 
ATOM      6  C   UNL     1      -0.745  -4.048   0.334  0.00  0.00    +0.004 A 
ATOM      7  C   UNL     1       0.074  -4.322   1.386  0.00  0.00    +0.090 A 
ATOM      8  S   UNL     1       0.826  -2.773   1.781  0.00  0.00    -0.077 S 
ATOM      9  C   UNL     1       0.037  -1.817   0.513  0.00  0.00    -0.021 A 
ATOM     10  C   UNL     1       0.186  -0.367   0.191  0.00  0.00    -0.036 C 
ATOM     11  N   UNL     1       0.228  -5.585   1.944  0.00  0.00    -0.312 N 
ATOM     12  C   UNL     1       0.247  -5.999   3.233  0.00  0.00    +0.092 A 
ATOM     13  C   UNL     1       0.356  -7.347   3.238  0.00  0.00    +0.020 A 
ATOM     14  C   UNL     1       0.424  -7.774   1.894  0.00  0.00    +0.025 A 
ATOM     15  C   UNL     1       0.369  -6.679   1.121  0.00  0.00    +0.049 A 
ATOM     16  C   UNL     1       0.480  -6.558  -0.369  0.00  0.00    +0.155 C 
ATOM     17  N   UNL     1      -0.806  -6.154  -0.987  0.00  0.00    -0.268 N 
ATOM     18  C   UNL     1      -1.600  -5.141  -0.268  0.00  0.00    +0.148 C 
ATOM     19  C   UNL     1      -1.230  -6.688  -2.150  0.00  0.00    +0.308 C 
ATOM     20  O   UNL     1      -0.551  -7.522  -2.718  0.00  0.00    -0.252 OA
ATOM     21  N   UNL     1      -2.404  -6.297  -2.683  0.00  0.00    -0.269 N 
ATOM     22  H   UNL     1      -2.910  -5.580  -2.269  0.00  0.00    +0.156 HD
ATOM     23  H   UNL     1       0.235  -0.558  -1.845  0.00  0.00    -0.082 HD
ENDROOT
BRANCH  16  24
ATOM     24  C   UNL     1       1.527  -5.526  -0.701  0.00  0.00    -0.021 A 
ATOM     25  C   UNL     1       2.626  -5.367   0.123  0.00  0.00    +0.008 A 
ATOM     26  C   UNL     1       3.587  -4.422  -0.181  0.00  0.00    +0.038 A 
ATOM     27  C   UNL     1       3.450  -3.634  -1.311  0.00  0.00    +0.123 A 
ATOM     28  C   UNL     1       2.349  -3.794  -2.135  0.00  0.00    +0.038 A 
ATOM     29  C   UNL     1       1.391  -4.743  -1.832  0.00  0.00    +0.008 A 
ATOM     30  F   UNL     1       4.388  -2.709  -1.608  0.00  0.00    -0.205 F 
ENDBRANCH  16  24
BRANCH  21  31
ATOM     31  C   UNL     1      -2.895  -6.927  -3.834  0.00  0.00    +0.035 A 
ATOM     32  C   UNL     1      -3.622  -6.200  -4.767  0.00  0.00    +0.027 A 
ATOM     33  C   UNL     1      -4.105  -6.821  -5.902  0.00  0.00    +0.047 A 
ATOM     34  C   UNL     1      -3.864  -8.171  -6.111  0.00  0.00    +0.120 A 
ATOM     35  C   UNL     1      -3.138  -8.898  -5.178  0.00  0.00    +0.047 A 
ATOM     36  C   UNL     1      -2.650  -8.277  -4.046  0.00  0.00    +0.027 A 
BRANCH  34  37
ATOM     37  O   UNL     1      -4.340  -8.782  -7.228  0.00  0.00    -0.495 OA
ATOM     38  C   UNL     1      -4.054 -10.174  -7.378  0.00  0.00    +0.277 C 
ENDBRANCH  34  37
ENDBRANCH  21  31
TORSDOF 3
