REMARK  Name = ZINC43145051
REMARK  8 active torsions:
REMARK  status: ('A' for Active; 'I' for Inactive)
REMARK    1  A    between atoms: C_1  and  N_2
REMARK    2  A    between atoms: N_2  and  C_3
REMARK    3  A    between atoms: N_2  and  C_4
REMARK    4  A    between atoms: C_4  and  C_6
REMARK    5  A    between atoms: C_4  and  C_24
REMARK    6  A    between atoms: C_6  and  N_7
REMARK    7  A    between atoms: N_10  and  N_11
REMARK    8  A    between atoms: C_12  and  C_14
REMARK                            x       y       z     vdW  Elec       q    Type
REMARK                         _______ _______ _______ _____ _____    ______ ____
ROOT
ATOM      1  N   UNL     1      -1.766   1.531  -1.169  0.00  0.00    -0.299 N 
ATOM      2  C   UNL     1      -2.260   2.263  -2.188  0.00  0.00    +0.316 C 
ATOM      3  O   UNL     1      -2.936   1.731  -3.047  0.00  0.00    -0.251 OA
ATOM      4  N   UNL     1      -2.004   3.585  -2.254  0.00  0.00    -0.218 N 
ATOM      5  H   UNL     1      -1.227   1.956  -0.484  0.00  0.00    +0.150 HD
ATOM      6  H   UNL     1      -2.360   4.111  -2.987  0.00  0.00    +0.174 HD
ENDROOT
BRANCH   4   7
ATOM      7  N   UNL     1      -1.225   4.198  -1.264  0.00  0.00    -0.229 N 
ATOM      8  C   UNL     1      -0.969   5.519  -1.330  0.00  0.00    +0.260 C 
ATOM      9  O   UNL     1      -1.415   6.179  -2.249  0.00  0.00    -0.269 OA
ATOM     10  H   UNL     1      -0.870   3.671  -0.531  0.00  0.00    +0.173 HD
BRANCH   8  11
ATOM     11  C   UNL     1      -0.148   6.165  -0.287  0.00  0.00    +0.042 A 
ATOM     12  C   UNL     1       0.370   5.407   0.766  0.00  0.00    +0.017 A 
ATOM     13  C   UNL     1       1.135   6.013   1.738  0.00  0.00    +0.050 A 
ATOM     14  C   UNL     1       1.395   7.377   1.676  0.00  0.00    +0.162 A 
ATOM     15  C   UNL     1       0.884   8.138   0.627  0.00  0.00    +0.163 A 
ATOM     16  C   UNL     1       0.118   7.535  -0.354  0.00  0.00    +0.062 A 
ATOM     17  O   UNL     1       1.137   9.473   0.548  0.00  0.00    -0.485 OA
ATOM     18  C   UNL     1       1.601  10.112   1.742  0.00  0.00    +0.270 C 
ATOM     19  C   UNL     1       2.705   9.241   2.355  0.00  0.00    +0.270 C 
ATOM     20  O   UNL     1       2.150   7.954   2.649  0.00  0.00    -0.485 OA
ENDBRANCH   8  11
ENDBRANCH   4   7
BRANCH   1  21
ATOM     21  C   UNL     1      -2.044   0.095  -1.098  0.00  0.00    +0.095 C 
BRANCH  21  22
ATOM     22  C   UNL     1      -1.281  -0.514   0.080  0.00  0.00    -0.014 C 
BRANCH  22  23
ATOM     23  C   UNL     1      -1.798   0.069   1.370  0.00  0.00    -0.022 A 
ATOM     24  C   UNL     1      -1.273   1.061   2.129  0.00  0.00    +0.009 A 
ATOM     25  C   UNL     1      -1.928   1.437   3.287  0.00  0.00    +0.008 A 
ATOM     26  C   UNL     1      -3.076   0.802   3.629  0.00  0.00    +0.045 A 
ATOM     27  S   UNL     1      -3.266  -0.363   2.289  0.00  0.00    -0.103 S 
ENDBRANCH  22  23
BRANCH  22  29
ATOM     28  C   UNL     1      -0.939  -2.543  -1.154  0.00  0.00    -0.096 C 
ATOM     29  N   UNL     1      -1.474  -1.971   0.089  0.00  0.00    +0.382 N 
ATOM     30  C   UNL     1      -0.769  -2.551   1.239  0.00  0.00    -0.096 C 
ATOM     31  H   UNL     1      -2.459  -2.179   0.158  0.00  0.00    -0.082 HD
ENDBRANCH  22  29
ENDBRANCH  21  22
ENDBRANCH   1  21
TORSDOF 6
