REMARK  Name = ZINC63349689
REMARK  6 active torsions:
REMARK  status: ('A' for Active; 'I' for Inactive)
REMARK    1  A    between atoms: C_1  and  O_2
REMARK    2  A    between atoms: O_2  and  C_3
REMARK    3  A    between atoms: C_5  and  C_14
REMARK    4  A    between atoms: C_8  and  O_9
REMARK    5  A    between atoms: O_9  and  C_10
REMARK    6  A    between atoms: C_10  and  C_11
REMARK                            x       y       z     vdW  Elec       q    Type
REMARK                         _______ _______ _______ _____ _____    ______ ____
ROOT
ATOM      1  C   UNL     1      -1.287  -0.782   0.624  0.00  0.00    +0.162 A 
ATOM      2  C   UNL     1      -2.460  -0.044   0.633  0.00  0.00    +0.054 A 
ATOM      3  C   UNL     1      -3.596  -0.546   0.027  0.00  0.00    -0.024 A 
ATOM      4  C   UNL     1      -3.566  -1.785  -0.587  0.00  0.00    +0.009 A 
ATOM      5  C   UNL     1      -2.400  -2.526  -0.599  0.00  0.00    +0.050 A 
ATOM      6  C   UNL     1      -1.255  -2.025   0.001  0.00  0.00    +0.163 A 
ENDROOT
BRANCH   3   7
ATOM      7  C   UNL     1      -4.871   0.257   0.037  0.00  0.00    +0.111 C 
ATOM      8  C   UNL     1      -5.392   0.416  -1.393  0.00  0.00    +0.128 C 
ATOM      9  C   UNL     1      -5.788  -0.980  -1.860  0.00  0.00    -0.035 C 
ATOM     10  C   UNL     1      -5.142  -1.192  -2.998  0.00  0.00    -0.001 A 
ATOM     11  C   UNL     1      -5.182  -2.308  -3.957  0.00  0.00    +0.010 A 
ATOM     12  C   UNL     1      -4.360  -2.203  -5.035  0.00  0.00    +0.001 A 
ATOM     13  C   UNL     1      -3.513  -1.112  -5.253  0.00  0.00    +0.002 A 
ATOM     14  C   UNL     1      -3.417  -0.039  -4.428  0.00  0.00    +0.026 A 
ATOM     15  C   UNL     1      -4.236  -0.031  -3.262  0.00  0.00    +0.043 A 
ATOM     16  N   UNL     1      -4.361   0.882  -2.319  0.00  0.00    -0.376 N 
ATOM     17  C   UNL     1      -6.674  -1.872  -1.026  0.00  0.00    +0.048 C 
ATOM     18  C   UNL     1      -6.100  -1.835   0.402  0.00  0.00    +0.086 C 
ATOM     19  N   UNL     1      -5.894  -0.446   0.828  0.00  0.00    -0.307 NA
ATOM     20  H   UNL     1      -5.687  -0.396   1.814  0.00  0.00    +0.123 HD
ATOM     21  H   UNL     1      -3.862   1.711  -2.242  0.00  0.00    +0.160 HD
ENDBRANCH   3   7
BRANCH   1  23
ATOM     22  C   UNL     1      -0.274   0.994   1.839  0.00  0.00    +0.277 C 
ATOM     23  O   UNL     1      -0.168  -0.289   1.219  0.00  0.00    -0.491 OA
ENDBRANCH   1  23
BRANCH   6  24
ATOM     24  O   UNL     1      -0.105  -2.750  -0.015  0.00  0.00    -0.479 OA
BRANCH  24  25
ATOM     25  C   UNL     1      -0.146  -4.018  -0.673  0.00  0.00    +0.324 C 
BRANCH  25  26
ATOM     26  C   UNL     1       1.209  -4.672  -0.590  0.00  0.00    +0.248 C 
ATOM     27  O   UNL     1       2.121  -4.108  -0.022  0.00  0.00    -0.272 OA
ATOM     28  N   UNL     1       1.409  -5.883  -1.145  0.00  0.00    -0.327 N 
ATOM     29  H   UNL     1       0.680  -6.335  -1.599  0.00  0.00    +0.145 HD
ATOM     30  H   UNL     1       2.281  -6.304  -1.091  0.00  0.00    +0.145 HD
ENDBRANCH  25  26
ENDBRANCH  24  25
ENDBRANCH   6  24
TORSDOF 5
