REMARK  Name = ZINC03900818
REMARK  8 active torsions:
REMARK  status: ('A' for Active; 'I' for Inactive)
REMARK    1  A    between atoms: C_1  and  C_2
REMARK    2  A    between atoms: C_17  and  C_28
REMARK    3  A    between atoms: C_22  and  C_23
REMARK    4  A    between atoms: C_22  and  O_27
REMARK    5  A    between atoms: C_23  and  N_63
REMARK    6  A    between atoms: C_24  and  C_25
REMARK    7  A    between atoms: C_24  and  N_63
REMARK    8  A    between atoms: C_25  and  O_26
REMARK                            x       y       z     vdW  Elec       q    Type
REMARK                         _______ _______ _______ _____ _____    ______ ____
ROOT
ATOM      1  C   UNL     1      -4.993   3.547  -0.347  0.00  0.00    +0.012 C 
ATOM      2  C   UNL     1      -3.729   3.316  -1.168  0.00  0.00    -0.026 C 
ATOM      3  C   UNL     1      -3.253   4.646  -1.766  0.00  0.00    +0.007 C 
ATOM      4  C   UNL     1      -4.273   5.187  -2.764  0.00  0.00    +0.001 C 
ATOM      5  C   UNL     1      -4.520   4.173  -3.880  0.00  0.00    +0.000 C 
ATOM      6  C   UNL     1      -5.019   2.856  -3.278  0.00  0.00    +0.004 C 
ATOM      7  C   UNL     1      -3.964   2.323  -2.315  0.00  0.00    -0.005 C 
ATOM      8  C   UNL     1      -4.337   0.937  -1.803  0.00  0.00    +0.004 C 
ATOM      9  C   UNL     1      -3.221   0.387  -0.896  0.00  0.00    +0.004 C 
ATOM     10  C   UNL     1      -3.049   1.368   0.250  0.00  0.00    -0.004 C 
ATOM     11  C   UNL     1      -2.614   2.728  -0.309  0.00  0.00    -0.001 C 
ATOM     12  C   UNL     1      -2.138   3.604   0.837  0.00  0.00    +0.005 C 
ATOM     13  C   UNL     1      -0.750   3.088   1.277  0.00  0.00    +0.010 C 
ATOM     14  C   UNL     1      -0.733   1.582   1.274  0.00  0.00    -0.002 C 
ATOM     15  C   UNL     1      -2.143   0.970   1.373  0.00  0.00    +0.001 C 
ATOM     16  C   UNL     1      -1.836  -0.529   1.518  0.00  0.00    +0.007 C 
ATOM     17  C   UNL     1      -0.554  -0.561   2.392  0.00  0.00    +0.034 C 
ATOM     18  C   UNL     1      -0.028   0.898   2.459  0.00  0.00    +0.057 C 
ATOM     19  C   UNL     1      -0.013   1.086   0.008  0.00  0.00    +0.014 C 
ENDROOT
BRANCH  18  20
ATOM     20  O   UNL     1       1.384   0.924   2.267  0.00  0.00    -0.390 OA
ATOM     21  H   UNL     1       1.886   0.507   2.981  0.00  0.00    +0.210 HD
ENDBRANCH  18  20
BRANCH  18  22
ATOM     22  C   UNL     1      -0.407   1.527   3.793  0.00  0.00    -0.047 C 
BRANCH  22  23
ATOM     23  N   UNL     1       0.302   0.823   4.878  0.00  0.00    +0.382 N 
ATOM     24  H   UNL     1       1.315   0.905   4.729  0.00  0.00    -0.086 HD
ATOM     25  H   UNL     1       0.034  -0.168   4.871  0.00  0.00    -0.086 HD
BRANCH  23  26
ATOM     26  C   UNL     1      -0.046   1.412   6.185  0.00  0.00    -0.054 C 
BRANCH  26  27
ATOM     27  C   UNL     1       0.703   0.663   7.288  0.00  0.00    +0.137 C 
BRANCH  27  28
ATOM     28  O   UNL     1       2.108   0.874   7.137  0.00  0.00    -0.397 OA
ATOM     29  H   UNL     1       2.647   0.428   7.805  0.00  0.00    +0.209 HD
ENDBRANCH  27  28
ENDBRANCH  26  27
ENDBRANCH  23  26
ENDBRANCH  22  23
ENDBRANCH  18  22
TORSDOF 6
