REMARK  Name = ZINC55292042
REMARK  5 active torsions:
REMARK  status: ('A' for Active; 'I' for Inactive)
REMARK    1  A    between atoms: C_9  and  N_11
REMARK    2  A    between atoms: N_11  and  S_12
REMARK    3  A    between atoms: S_12  and  C_15
REMARK    4  A    between atoms: C_19  and  S_21
REMARK    5  A    between atoms: S_21  and  N_24
REMARK                            x       y       z     vdW  Elec       q    Type
REMARK                         _______ _______ _______ _____ _____    ______ ____
ROOT
ATOM      1  S   UNL     1       5.880   0.384  -0.477  0.00  0.00    +0.059 S 
ATOM      2  O   UNL     1       6.682   0.638  -1.622  0.00  0.00    -0.153 OA
ATOM      3  O   UNL     1       5.365   1.428   0.339  0.00  0.00    -0.153 OA
ENDROOT
BRANCH   1   4
ATOM      4  C   UNL     1       6.826  -0.660   0.580  0.00  0.00    +0.107 A 
ATOM      5  C   UNL     1       6.561  -0.695   1.936  0.00  0.00    +0.028 A 
ATOM      6  C   UNL     1       7.303  -1.514   2.765  0.00  0.00    +0.004 A 
ATOM      7  C   UNL     1       8.311  -2.300   2.238  0.00  0.00    +0.028 A 
ATOM      8  C   UNL     1       8.576  -2.267   0.882  0.00  0.00    +0.107 A 
ATOM      9  C   UNL     1       7.830  -1.450   0.052  0.00  0.00    +0.057 A 
BRANCH   8  10
ATOM     10  S   UNL     1       9.861  -3.268   0.210  0.00  0.00    +0.056 S 
ATOM     11  O   UNL     1      10.269  -2.646  -1.001  0.00  0.00    -0.153 OA
ATOM     12  O   UNL     1      10.767  -3.533   1.273  0.00  0.00    -0.153 OA
BRANCH  10  13
ATOM     13  N   UNL     1       9.183  -4.719  -0.208  0.00  0.00    -0.204 NA
ATOM     14  H   UNL     1       8.236  -4.873  -0.060  0.00  0.00    +0.144 HD
ATOM     15  H   UNL     1       9.732  -5.416  -0.600  0.00  0.00    +0.144 HD
ENDBRANCH  10  13
ENDBRANCH   8  10
ENDBRANCH   1   4
BRANCH   1  16
ATOM     16  N   UNL     1       4.577  -0.496  -0.997  0.00  0.00    -0.183 NA
ATOM     17  H   UNL     1       4.485  -0.717  -1.937  0.00  0.00    +0.149 HD
BRANCH  16  26
ATOM     18  C   UNL     1      -0.017   1.377   0.010  0.00  0.00    +0.000 A 
ATOM     19  C   UNL     1       1.172   2.083   0.002  0.00  0.00    +0.000 A 
ATOM     20  C   UNL     1       2.376   1.406  -0.013  0.00  0.00    +0.005 A 
ATOM     21  C   UNL     1       2.396   0.021  -0.021  0.00  0.00    -0.026 A 
ATOM     22  C   UNL     1       1.208  -0.685  -0.013  0.00  0.00    -0.043 A 
ATOM     23  C   UNL     1       0.002  -0.004   0.002  0.00  0.00    +0.004 A 
ATOM     24  C   UNL     1       1.496  -2.171  -0.025  0.00  0.00    +0.037 C 
ATOM     25  C   UNL     1       2.966  -2.294  -0.480  0.00  0.00    +0.030 C 
ATOM     26  C   UNL     1       3.564  -0.942  -0.037  0.00  0.00    +0.107 C 
ENDBRANCH  16  26
ENDBRANCH   1  16
TORSDOF 5
