REMARK  Name = ZINC01206575
REMARK  5 active torsions:
REMARK  status: ('A' for Active; 'I' for Inactive)
REMARK    1  A    between atoms: C_9  and  O_12
REMARK    2  A    between atoms: O_12  and  C_13
REMARK    3  A    between atoms: C_13  and  C_14
REMARK    4  A    between atoms: C_16  and  N_53
REMARK    5  A    between atoms: C_20  and  N_25
REMARK                            x       y       z     vdW  Elec       q    Type
REMARK                         _______ _______ _______ _____ _____    ______ ____
ROOT
ATOM      1  C   UNL     1      -3.470   1.190  -0.299  0.00  0.00    +0.054 C 
ATOM      2  C   UNL     1      -2.201   0.971  -0.024  0.00  0.00    +0.096 C 
ATOM      3  C   UNL     1      -1.551  -0.372   0.244  0.00  0.00    +0.034 C 
ATOM      4  C   UNL     1      -0.103  -0.016   0.495  0.00  0.00    -0.009 A 
ATOM      5  C   UNL     1       1.008  -0.772   0.794  0.00  0.00    +0.038 A 
ATOM      6  C   UNL     1       2.234  -0.156   0.974  0.00  0.00    +0.127 A 
ATOM      7  C   UNL     1       2.336   1.218   0.852  0.00  0.00    +0.036 A 
ATOM      8  C   UNL     1       1.224   1.976   0.552  0.00  0.00    +0.049 A 
ATOM      9  C   UNL     1      -0.014   1.364   0.370  0.00  0.00    +0.130 A 
ATOM     10  O   UNL     1      -1.222   1.899   0.069  0.00  0.00    -0.462 OA
ENDROOT
BRANCH   3  16
ATOM     11  C   UNL     1      -1.925  -0.182   2.630  0.00  0.00    -0.049 C 
ATOM     12  C   UNL     1      -2.606  -0.848   3.829  0.00  0.00    +0.141 C 
ATOM     13  O   UNL     1      -2.096  -2.175   3.984  0.00  0.00    -0.383 OA
ATOM     14  C   UNL     1      -2.291  -3.004   2.835  0.00  0.00    +0.141 C 
ATOM     15  C   UNL     1      -1.607  -2.361   1.626  0.00  0.00    -0.049 C 
ATOM     16  N   UNL     1      -2.168  -1.008   1.428  0.00  0.00    +0.392 N 
ATOM     17  H   UNL     1      -3.181  -1.086   1.276  0.00  0.00    -0.080 HD
ENDBRANCH   3  16
BRANCH   6  18
ATOM     18  N   UNL     1       3.432  -0.964   1.296  0.00  0.00    +0.056 N 
ATOM     19  O   UNL     1       3.339  -2.174   1.403  0.00  0.00    -0.126 OA
ATOM     20  O   UNL     1       4.510  -0.419   1.454  0.00  0.00    -0.126 OA
ENDBRANCH   6  18
BRANCH   1  21
ATOM     21  C   UNL     1      -4.452   0.047  -0.287  0.00  0.00    +0.260 C 
BRANCH  21  22
ATOM     22  O   UNL     1      -5.638   0.444   0.405  0.00  0.00    -0.487 OA
BRANCH  22  31
ATOM     23  C   UNL     1     -10.818  -3.026   1.448  0.00  0.00    +0.001 A 
ATOM     24  C   UNL     1     -10.998  -1.764   2.011  0.00  0.00    +0.001 A 
ATOM     25  C   UNL     1     -10.027  -0.815   1.929  0.00  0.00    +0.010 A 
ATOM     26  C   UNL     1      -8.822  -1.108   1.266  0.00  0.00    -0.000 A 
ATOM     27  C   UNL     1      -8.638  -2.391   0.693  0.00  0.00    -0.017 A 
ATOM     28  C   UNL     1      -9.665  -3.345   0.799  0.00  0.00    +0.008 A 
ATOM     29  C   UNL     1      -7.435  -2.688   0.031  0.00  0.00    +0.012 A 
ATOM     30  C   UNL     1      -6.458  -1.746  -0.055  0.00  0.00    +0.047 A 
ATOM     31  C   UNL     1      -6.631  -0.477   0.507  0.00  0.00    +0.135 A 
ATOM     32  C   UNL     1      -7.795  -0.154   1.167  0.00  0.00    +0.067 A 
ATOM     33 BR   UNL     1      -8.013   1.563   1.929  0.00  0.00    -0.046 Br
ENDBRANCH  22  31
ENDBRANCH  21  22
ENDBRANCH   1  21
TORSDOF 5
