REMARK  Name = ZINC05517472
REMARK  6 active torsions:
REMARK  status: ('A' for Active; 'I' for Inactive)
REMARK    1  A    between atoms: N_10  and  N_11
REMARK    2  A    between atoms: C_12  and  C_14
REMARK    3  A    between atoms: C_14  and  O_15
REMARK    4  A    between atoms: O_15  and  C_16
REMARK    5  A    between atoms: C_19  and  C_22
REMARK    6  A    between atoms: C_25  and  C_28
REMARK                            x       y       z     vdW  Elec       q    Type
REMARK                         _______ _______ _______ _____ _____    ______ ____
ROOT
ATOM      1  N   UNL     1       5.705  -1.764  -0.062  0.00  0.00    -0.202 N 
ATOM      2  C   UNL     1       7.029  -1.511  -0.074  0.00  0.00    +0.270 C 
ATOM      3  O   UNL     1       7.427  -0.365  -0.072  0.00  0.00    -0.270 OA
ATOM      4  H   UNL     1       5.386  -2.680  -0.064  0.00  0.00    +0.177 HD
ENDROOT
BRANCH   1  14
ATOM      5  C   UNL     1      -0.017   1.376   0.010  0.00  0.00    +0.001 A 
ATOM      6  C   UNL     1       1.167   2.098   0.002  0.00  0.00    +0.001 A 
ATOM      7  C   UNL     1       2.386   1.447  -0.013  0.00  0.00    +0.012 A 
ATOM      8  C   UNL     1       2.424   0.061  -0.021  0.00  0.00    +0.029 A 
ATOM      9  C   UNL     1       1.220  -0.677  -0.013  0.00  0.00    +0.023 A 
ATOM     10  C   UNL     1       0.002  -0.004   0.002  0.00  0.00    +0.012 A 
ATOM     11  C   UNL     1       1.613  -2.093  -0.025  0.00  0.00    +0.103 C 
ATOM     12  N   UNL     1       2.922  -2.180  -0.038  0.00  0.00    -0.326 N 
ATOM     13  C   UNL     1       3.502  -0.950  -0.036  0.00  0.00    +0.158 C 
ATOM     14  N   UNL     1       4.790  -0.704  -0.048  0.00  0.00    -0.162 NA
ATOM     15  N   UNL     1       0.742  -3.164  -0.022  0.00  0.00    -0.344 N 
ATOM     16  H   UNL     1      -0.216  -3.010  -0.011  0.00  0.00    +0.144 HD
ATOM     17  H   UNL     1       1.087  -4.070  -0.030  0.00  0.00    +0.144 HD
ATOM     18  H   UNL     1       3.414  -3.016  -0.047  0.00  0.00    +0.169 HD
ENDBRANCH   1  14
BRANCH   2  19
ATOM     19  C   UNL     1       8.014  -2.651  -0.089  0.00  0.00    +0.326 C 
BRANCH  19  20
ATOM     20  O   UNL     1       9.345  -2.131  -0.100  0.00  0.00    -0.483 OA
BRANCH  20  21
ATOM     21  C   UNL     1      10.360  -3.034  -0.115  0.00  0.00    +0.121 A 
ATOM     22  C   UNL     1      10.077  -4.394  -0.124  0.00  0.00    +0.046 A 
ATOM     23  C   UNL     1      11.105  -5.313  -0.140  0.00  0.00    +0.012 A 
ATOM     24  C   UNL     1      12.429  -4.875  -0.145  0.00  0.00    -0.018 A 
ATOM     25  C   UNL     1      12.710  -3.509  -0.135  0.00  0.00    +0.012 A 
ATOM     26  C   UNL     1      11.677  -2.595  -0.125  0.00  0.00    +0.046 A 
BRANCH  24  27
ATOM     27  C   UNL     1      13.537  -5.860  -0.161  0.00  0.00    -0.018 A 
ATOM     28  C   UNL     1      13.254  -7.227  -0.176  0.00  0.00    +0.010 A 
ATOM     29  C   UNL     1      14.281  -8.143  -0.191  0.00  0.00    +0.019 A 
ATOM     30  C   UNL     1      15.608  -7.703  -0.190  0.00  0.00    +0.052 A 
ATOM     31  C   UNL     1      15.890  -6.334  -0.175  0.00  0.00    +0.019 A 
ATOM     32  C   UNL     1      14.861  -5.421  -0.166  0.00  0.00    +0.010 A 
BRANCH  30  33
ATOM     33  C   UNL     1      16.678  -8.655  -0.205  0.00  0.00    +0.099 C 
ATOM     34  N   UNL     1      17.527  -9.410  -0.216  0.00  0.00    -0.191 NA
ENDBRANCH  30  33
ENDBRANCH  24  27
ENDBRANCH  20  21
ENDBRANCH  19  20
ENDBRANCH   2  19
TORSDOF 6
