REMARK  Name = ZINC16218266
REMARK  8 active torsions:
REMARK  status: ('A' for Active; 'I' for Inactive)
REMARK    1  A    between atoms: C_6  and  N_7
REMARK    2  A    between atoms: N_7  and  C_8
REMARK    3  A    between atoms: C_8  and  N_10
REMARK    4  A    between atoms: N_10  and  N_11
REMARK    5  A    between atoms: N_11  and  C_12
REMARK    6  A    between atoms: C_15  and  S_21
REMARK    7  A    between atoms: C_17  and  N_18
REMARK    8  A    between atoms: S_21  and  N_24
REMARK                            x       y       z     vdW  Elec       q    Type
REMARK                         _______ _______ _______ _____ _____    ______ ____
ROOT
ATOM      1  N   UNL     1      -3.557  -2.059  -0.307  0.00  0.00    -0.263 N 
ATOM      2  H   UNL     1      -3.565  -1.091  -0.248  0.00  0.00    +0.170 HD
ENDROOT
BRANCH   1   3
ATOM      3  C   UNL     1      -4.761  -2.767  -0.339  0.00  0.00    +0.075 A 
ATOM      4  C   UNL     1      -4.752  -4.156  -0.341  0.00  0.00    +0.028 A 
ATOM      5  C   UNL     1      -5.944  -4.852  -0.372  0.00  0.00    +0.030 A 
ATOM      6  C   UNL     1      -7.146  -4.168  -0.402  0.00  0.00    +0.107 A 
ATOM      7  C   UNL     1      -7.158  -2.785  -0.400  0.00  0.00    +0.063 A 
ATOM      8  C   UNL     1      -5.970  -2.083  -0.363  0.00  0.00    +0.150 A 
BRANCH   8   9
ATOM      9  N   UNL     1      -5.984  -0.603  -0.354  0.00  0.00    +0.058 N 
ATOM     10  O   UNL     1      -5.184   0.006   0.318  0.00  0.00    -0.126 OA
ATOM     11  O   UNL     1      -6.795  -0.002  -1.019  0.00  0.00    -0.126 OA
ENDBRANCH   8   9
BRANCH   6  12
ATOM     12  S   UNL     1      -8.665  -5.061  -0.444  0.00  0.00    +0.056 S 
ATOM     13  O   UNL     1      -9.631  -4.192  -1.018  0.00  0.00    -0.153 OA
ATOM     14  O   UNL     1      -8.370  -6.339  -0.989  0.00  0.00    -0.153 OA
BRANCH  12  15
ATOM     15  N   UNL     1      -9.128  -5.312   1.126  0.00  0.00    -0.204 NA
ATOM     16  H   UNL     1      -8.579  -4.979   1.853  0.00  0.00    +0.144 HD
ATOM     17  H   UNL     1      -9.949  -5.791   1.319  0.00  0.00    +0.144 HD
ENDBRANCH  12  15
ENDBRANCH   6  12
ENDBRANCH   1   3
BRANCH   1  18
ATOM     18  N   UNL     1      -2.338  -2.748  -0.360  0.00  0.00    -0.248 N 
ATOM     19  H   UNL     1      -2.330  -3.716  -0.419  0.00  0.00    +0.172 HD
BRANCH  18  20
ATOM     20  C   UNL     1      -1.177  -2.065  -0.329  0.00  0.00    +0.151 C 
ATOM     21  S   UNL     1       0.313  -2.907  -0.395  0.00  0.00    -0.017 S 
BRANCH  20  22
ATOM     22  N   UNL     1      -1.188  -0.720  -0.247  0.00  0.00    -0.296 N 
ATOM     23  H   UNL     1      -2.026  -0.248  -0.127  0.00  0.00    +0.154 HD
BRANCH  22  29
ATOM     24  C   UNL     1       0.980  -0.380  -1.257  0.00  0.00    +0.026 A 
ATOM     25  C   UNL     1       2.163   0.329  -1.344  0.00  0.00    +0.041 A 
ATOM     26  C   UNL     1       2.385   1.413  -0.512  0.00  0.00    +0.142 A 
ATOM     27  C   UNL     1       1.420   1.791   0.408  0.00  0.00    +0.078 A 
ATOM     28  C   UNL     1       0.235   1.085   0.497  0.00  0.00    +0.046 A 
ATOM     29  C   UNL     1       0.012  -0.003  -0.336  0.00  0.00    +0.034 A 
ATOM     30 CL   UNL     1       1.700   3.151   1.450  0.00  0.00    -0.081 Cl
ATOM     31  F   UNL     1       3.542   2.103  -0.598  0.00  0.00    -0.204 F 
ENDBRANCH  22  29
ENDBRANCH  20  22
ENDBRANCH  18  20
ENDBRANCH   1  18
TORSDOF 8
