REMARK  Name = ZINC38547455
REMARK  7 active torsions:
REMARK  status: ('A' for Active; 'I' for Inactive)
REMARK    1  A    between atoms: C_1  and  C_2
REMARK    2  A    between atoms: C_6  and  N_8
REMARK    3  A    between atoms: N_8  and  C_9
REMARK    4  A    between atoms: C_9  and  C_11
REMARK    5  A    between atoms: C_9  and  C_20
REMARK    6  A    between atoms: C_24  and  N_25
REMARK    7  A    between atoms: C_26  and  C_28
REMARK                            x       y       z     vdW  Elec       q    Type
REMARK                         _______ _______ _______ _____ _____    ______ ____
ROOT
ATOM      1  C   UNL     1       0.230  -4.189   2.529  0.00  0.00    +0.135 C 
ENDROOT
BRANCH   1   2
ATOM      2  C   UNL     1       1.431  -4.745   1.807  0.00  0.00    -0.019 A 
ATOM      3  C   UNL     1       1.903  -4.118   0.669  0.00  0.00    +0.009 A 
ATOM      4  C   UNL     1       3.004  -4.624   0.004  0.00  0.00    +0.050 A 
ATOM      5  C   UNL     1       3.638  -5.761   0.476  0.00  0.00    +0.166 A 
ATOM      6  C   UNL     1       3.162  -6.393   1.623  0.00  0.00    +0.167 A 
ATOM      7  C   UNL     1       2.062  -5.877   2.288  0.00  0.00    +0.055 A 
ATOM      8  O   UNL     1       3.948  -7.479   1.881  0.00  0.00    -0.453 OA
ATOM      9  C   UNL     1       4.657  -7.740   0.655  0.00  0.00    +0.466 C 
ATOM     10  O   UNL     1       4.721  -6.452   0.016  0.00  0.00    -0.453 OA
ENDBRANCH   1   2
BRANCH   1  11
ATOM     11  C   UNL     1      -1.025  -4.796   1.956  0.00  0.00    +0.009 A 
ATOM     12  C   UNL     1      -1.683  -5.817   2.642  0.00  0.00    -0.030 A 
ATOM     13  C   UNL     1      -2.809  -6.314   2.062  0.00  0.00    -0.005 A 
ATOM     14  S   UNL     1      -2.967  -5.374   0.567  0.00  0.00    -0.078 S 
ATOM     15  C   UNL     1      -1.522  -4.346   0.774  0.00  0.00    +0.078 A 
ATOM     16  C   UNL     1      -3.696  -7.401   2.577  0.00  0.00    +0.043 C 
ATOM     17  C   UNL     1      -2.950  -8.143   3.696  0.00  0.00    +0.005 C 
ATOM     18  C   UNL     1      -2.351  -7.110   4.656  0.00  0.00    +0.005 C 
ATOM     19  C   UNL     1      -1.196  -6.374   3.977  0.00  0.00    +0.036 C 
BRANCH  15  20
ATOM     20  N   UNL     1      -1.029  -3.342  -0.063  0.00  0.00    -0.273 N 
ATOM     21  C   UNL     1      -1.708  -2.998  -1.175  0.00  0.00    +0.284 C 
ATOM     22  O   UNL     1      -2.796  -3.493  -1.401  0.00  0.00    -0.266 OA
ATOM     23  H   UNL     1      -0.198  -2.892   0.157  0.00  0.00    +0.156 HD
BRANCH  21  24
ATOM     24  C   UNL     1      -1.135  -2.027  -2.113  0.00  0.00    +0.189 A 
ATOM     25  C   UNL     1      -1.752  -1.520  -3.220  0.00  0.00    +0.054 A 
ATOM     26  C   UNL     1      -0.845  -0.632  -3.818  0.00  0.00    +0.042 A 
ATOM     27  C   UNL     1       0.274  -0.636  -3.059  0.00  0.00    +0.196 A 
ATOM     28  O   UNL     1       0.093  -1.474  -2.030  0.00  0.00    -0.458 OA
ENDBRANCH  21  24
ENDBRANCH  15  20
ENDBRANCH   1  11
BRANCH   1  29
ATOM     29  N   UNL     1       0.190  -2.735   2.361  0.00  0.00    -0.320 N 
ATOM     30  H   UNL     1       0.632  -2.321   1.603  0.00  0.00    +0.148 HD
BRANCH  29  36
ATOM     31  C   UNL     1      -0.925   1.653   3.917  0.00  0.00    +0.063 C 
ATOM     32  C   UNL     1      -1.035   0.157   4.060  0.00  0.00    +0.014 A 
ATOM     33  C   UNL     1      -1.786  -0.375   5.089  0.00  0.00    +0.021 A 
ATOM     34  C   UNL     1      -1.884  -1.754   5.216  0.00  0.00    +0.005 A 
ATOM     35  C   UNL     1      -1.221  -2.551   4.300  0.00  0.00    +0.041 A 
ATOM     36  C   UNL     1      -0.482  -1.946   3.288  0.00  0.00    +0.097 A 
ATOM     37  N   UNL     1      -0.417  -0.627   3.197  0.00  0.00    -0.347 N 
ATOM     38  H   UNL     1       0.101  -0.227   2.481  0.00  0.00    +0.167 HD
ENDBRANCH  29  36
ENDBRANCH   1  29
TORSDOF 6
