REMARK  Name = ZINC45069052
REMARK  11 active torsions:
REMARK  status: ('A' for Active; 'I' for Inactive)
REMARK    1  A    between atoms: C_1  and  C_2
REMARK    2  A    between atoms: C_2  and  C_3
REMARK    3  A    between atoms: C_3  and  O_4
REMARK    4  A    between atoms: O_4  and  C_5
REMARK    5  A    between atoms: C_10  and  C_11
REMARK    6  A    between atoms: C_11  and  N_12
REMARK    7  A    between atoms: N_12  and  C_13
REMARK    8  A    between atoms: C_13  and  C_14
REMARK    9  A    between atoms: C_14  and  C_15
REMARK   10  A    between atoms: C_15  and  S_16
REMARK   11  A    between atoms: S_16  and  N_19
REMARK                            x       y       z     vdW  Elec       q    Type
REMARK                         _______ _______ _______ _____ _____    ______ ____
ROOT
ATOM      1  C   UNL     1      -1.397  -4.787  -0.011  0.00  0.00    -0.043 C 
ENDROOT
BRANCH   1   7
ATOM      2  C   UNL     1      -2.616  -2.596   0.013  0.00  0.00    +0.122 A 
ATOM      3  C   UNL     1      -3.791  -1.857   0.022  0.00  0.00    +0.047 A 
ATOM      4  C   UNL     1      -5.012  -2.503   0.031  0.00  0.00    +0.019 A 
ATOM      5  C   UNL     1      -5.064  -3.885   0.030  0.00  0.00    +0.018 A 
ATOM      6  C   UNL     1      -3.895  -4.624   0.021  0.00  0.00    +0.020 A 
ATOM      7  C   UNL     1      -2.671  -3.982   0.006  0.00  0.00    -0.022 A 
ATOM      8 BR   UNL     1      -6.737  -4.767   0.041  0.00  0.00    -0.050 Br
BRANCH   2   9
ATOM      9  O   UNL     1      -1.414  -1.962   0.005  0.00  0.00    -0.492 OA
BRANCH   9  10
ATOM     10  C   UNL     1      -1.433  -0.534   0.013  0.00  0.00    +0.229 C 
BRANCH  10  12
ATOM     11  C   UNL     1      -0.019   1.526   0.010  0.00  0.00    +0.007 C 
ATOM     12  C   UNL     1       0.002  -0.004   0.002  0.00  0.00    +0.038 C 
ENDBRANCH  10  12
ENDBRANCH   9  10
ENDBRANCH   2   9
ENDBRANCH   1   7
BRANCH   1  13
ATOM     13  N   UNL     1      -0.841  -4.853   1.347  0.00  0.00    +0.382 N 
ATOM     14  H   UNL     1      -0.645  -3.919   1.676  0.00  0.00    -0.085 HD
ATOM     15  H   UNL     1      -1.509  -5.292   1.963  0.00  0.00    -0.085 HD
BRANCH  13  16
ATOM     16  C   UNL     1       0.400  -5.637   1.331  0.00  0.00    -0.081 C 
BRANCH  16  17
ATOM     17  C   UNL     1       0.979  -5.706   2.745  0.00  0.00    +0.005 C 
BRANCH  17  18
ATOM     18  C   UNL     1       2.273  -6.523   2.728  0.00  0.00    +0.183 C 
BRANCH  18  19
ATOM     19  S   UNL     1       2.959  -6.604   4.405  0.00  0.00    +0.027 S 
ATOM     20  O   UNL     1       3.406  -5.318   4.813  0.00  0.00    -0.158 OA
ATOM     21  O   UNL     1       2.112  -7.376   5.244  0.00  0.00    -0.158 OA
BRANCH  19  22
ATOM     22  N   UNL     1       4.341  -7.504   4.256  0.00  0.00    -0.208 NA
ATOM     23  H   UNL     1       4.603  -7.851   3.389  0.00  0.00    +0.144 HD
ATOM     24  H   UNL     1       4.888  -7.685   5.036  0.00  0.00    +0.144 HD
ENDBRANCH  19  22
ENDBRANCH  18  19
ENDBRANCH  17  18
ENDBRANCH  16  17
ENDBRANCH  13  16
ENDBRANCH   1  13
TORSDOF 10
