REMARK  Name = ZINC02226890
REMARK  8 active torsions:
REMARK  status: ('A' for Active; 'I' for Inactive)
REMARK    1  A    between atoms: C_1  and  C_2
REMARK    2  A    between atoms: C_5  and  N_8
REMARK    3  A    between atoms: C_9  and  C_30
REMARK    4  A    between atoms: C_12  and  S_13
REMARK    5  A    between atoms: S_13  and  C_14
REMARK    6  A    between atoms: C_14  and  C_15
REMARK    7  A    between atoms: N_17  and  N_18
REMARK    8  A    between atoms: C_19  and  C_20
REMARK                            x       y       z     vdW  Elec       q    Type
REMARK                         _______ _______ _______ _____ _____    ______ ____
ROOT
ATOM      1  N   UNL     1       1.285   1.733  -0.033  0.00  0.00    -0.270 N 
ATOM      2  C   UNL     1       2.047   0.585  -0.041  0.00  0.00    +0.169 A 
ATOM      3  N   UNL     1       1.214  -0.430  -0.030  0.00  0.00    -0.128 NA
ATOM      4  N   UNL     1       0.002  -0.004  -0.015  0.00  0.00    -0.122 NA
ATOM      5  C   UNL     1      -0.016   1.310  -0.016  0.00  0.00    +0.197 A 
ENDROOT
BRANCH   1  10
ATOM      6  C   UNL     1       3.154   7.092  -0.063  0.00  0.00    +0.044 C 
ATOM      7  C   UNL     1       2.658   5.669  -0.055  0.00  0.00    -0.050 A 
ATOM      8  C   UNL     1       1.966   5.185   1.041  0.00  0.00    +0.005 A 
ATOM      9  C   UNL     1       1.510   3.881   1.051  0.00  0.00    +0.026 A 
ATOM     10  C   UNL     1       1.747   3.056  -0.040  0.00  0.00    +0.051 A 
ATOM     11  C   UNL     1       2.446   3.543  -1.136  0.00  0.00    +0.026 A 
ATOM     12  C   UNL     1       2.895   4.849  -1.143  0.00  0.00    +0.005 A 
ENDBRANCH   1  10
BRANCH   2  13
ATOM     13  C   UNL     1       3.523   0.510  -0.059  0.00  0.00    +0.020 A 
ATOM     14  C   UNL     1       4.286   1.640   0.237  0.00  0.00    +0.013 A 
ATOM     15  C   UNL     1       5.663   1.563   0.224  0.00  0.00    +0.021 A 
ATOM     16  C   UNL     1       6.289   0.369  -0.094  0.00  0.00    +0.041 A 
ATOM     17  C   UNL     1       5.538  -0.754  -0.395  0.00  0.00    +0.021 A 
ATOM     18  C   UNL     1       4.160  -0.691  -0.379  0.00  0.00    +0.013 A 
ATOM     19 CL   UNL     1       8.023   0.281  -0.117  0.00  0.00    -0.084 Cl
ENDBRANCH   2  13
BRANCH   5  20
ATOM     20  S   UNL     1      -1.448   2.336  -0.005  0.00  0.00    -0.076 S 
BRANCH  20  21
ATOM     21  C   UNL     1      -2.742   1.070   0.007  0.00  0.00    +0.174 C 
BRANCH  21  22
ATOM     22  C   UNL     1      -4.095   1.734   0.017  0.00  0.00    +0.242 C 
ATOM     23  O   UNL     1      -4.176   2.945   0.016  0.00  0.00    -0.273 OA
ATOM     24  N   UNL     1      -5.214   0.984   0.027  0.00  0.00    -0.206 N 
ATOM     25  H   UNL     1      -5.149   0.016   0.027  0.00  0.00    +0.177 HD
BRANCH  24  26
ATOM     26  N   UNL     1      -6.471   1.601   0.037  0.00  0.00    -0.188 NA
ATOM     27  C   UNL     1      -7.550   0.877   0.046  0.00  0.00    +0.139 C 
BRANCH  27  28
ATOM     28  C   UNL     1      -8.871   1.526   0.056  0.00  0.00    +0.002 A 
ATOM     29  C   UNL     1     -10.033   0.770  -0.045  0.00  0.00    +0.010 A 
ATOM     30  C   UNL     1     -11.277   1.385  -0.036  0.00  0.00    +0.001 A 
ATOM     31  C   UNL     1     -11.411   2.735   0.073  0.00  0.00    +0.008 A 
ATOM     32  C   UNL     1     -10.279   3.561   0.179  0.00  0.00    -0.017 A 
ATOM     33  C   UNL     1      -8.989   2.977   0.180  0.00  0.00    -0.009 A 
ATOM     34  C   UNL     1      -7.858   3.797   0.281  0.00  0.00    +0.009 A 
ATOM     35  C   UNL     1      -8.013   5.147   0.387  0.00  0.00    +0.001 A 
ATOM     36  C   UNL     1      -9.281   5.724   0.393  0.00  0.00    +0.001 A 
ATOM     37  C   UNL     1     -10.401   4.957   0.292  0.00  0.00    +0.008 A 
ENDBRANCH  27  28
ENDBRANCH  24  26
ENDBRANCH  21  22
ENDBRANCH  20  21
ENDBRANCH   5  20
TORSDOF 7
