REMARK  Name = ZINC04430049
REMARK  9 active torsions:
REMARK  status: ('A' for Active; 'I' for Inactive)
REMARK    1  A    between atoms: C_1  and  C_2
REMARK    2  A    between atoms: C_1  and  O_14
REMARK    3  A    between atoms: C_2  and  O_3
REMARK    4  A    between atoms: O_3  and  C_4
REMARK    5  A    between atoms: C_4  and  C_6
REMARK    6  A    between atoms: C_7  and  C_8
REMARK    7  A    between atoms: O_14  and  C_15
REMARK    8  A    between atoms: C_15  and  C_17
REMARK    9  A    between atoms: C_18  and  C_19
REMARK                            x       y       z     vdW  Elec       q    Type
REMARK                         _______ _______ _______ _____ _____    ______ ____
ROOT
ATOM      1  C   UNL     1      -4.332  -3.833  -1.201  0.00  0.00    +0.273 C 
ENDROOT
BRANCH   1   2
ATOM      2  C   UNL     1      -3.074  -3.074  -0.773  0.00  0.00    +0.273 C 
BRANCH   2   3
ATOM      3  O   UNL     1      -3.455  -1.875  -0.048  0.00  0.00    -0.458 OA
BRANCH   3   4
ATOM      4  C   UNL     1      -2.458  -1.089   0.403  0.00  0.00    +0.332 C 
ATOM      5  O   UNL     1      -1.301  -1.396   0.195  0.00  0.00    -0.246 OA
BRANCH   4   6
ATOM      6  C   UNL     1      -2.770   0.145   1.148  0.00  0.00    +0.096 C 
ATOM      7  C   UNL     1      -1.792   1.016   1.446  0.00  0.00    +0.074 C 
BRANCH   7   8
ATOM      8  C   UNL     1      -0.628   1.154   0.549  0.00  0.00    +0.244 C 
ATOM      9  O   UNL     1      -0.605   0.561  -0.512  0.00  0.00    -0.270 OA
ATOM     10  N   UNL     1       0.407   1.941   0.903  0.00  0.00    -0.237 N 
ATOM     11  C   UNL     1       1.467   2.071   0.082  0.00  0.00    +0.304 C 
ATOM     12  O   UNL     1       1.490   1.478  -0.979  0.00  0.00    -0.253 OA
ATOM     13  N   UNL     1       2.502   2.858   0.436  0.00  0.00    -0.313 N 
ATOM     14  H   UNL     1       0.388   2.414   1.750  0.00  0.00    +0.159 HD
ATOM     15  H   UNL     1       2.484   3.331   1.283  0.00  0.00    +0.146 HD
ATOM     16  H   UNL     1       3.265   2.952  -0.155  0.00  0.00    +0.146 HD
ENDBRANCH   7   8
ENDBRANCH   4   6
ENDBRANCH   3   4
ENDBRANCH   2   3
ENDBRANCH   1   2
BRANCH   1  17
ATOM     17  O   UNL     1      -5.081  -3.030  -2.152  0.00  0.00    -0.458 OA
BRANCH  17  18
ATOM     18  C   UNL     1      -6.224  -3.559  -2.631  0.00  0.00    +0.332 C 
ATOM     19  O   UNL     1      -6.585  -4.659  -2.264  0.00  0.00    -0.246 OA
BRANCH  18  20
ATOM     20  C   UNL     1      -7.037  -2.800  -3.600  0.00  0.00    +0.096 C 
ATOM     21  C   UNL     1      -8.235  -3.271  -3.986  0.00  0.00    +0.074 C 
BRANCH  21  22
ATOM     22  C   UNL     1      -9.041  -4.086  -3.057  0.00  0.00    +0.244 C 
ATOM     23  O   UNL     1      -8.701  -4.200  -1.897  0.00  0.00    -0.270 OA
ATOM     24  N   UNL     1     -10.156  -4.704  -3.496  0.00  0.00    -0.237 N 
ATOM     25  C   UNL     1     -10.893  -5.448  -2.647  0.00  0.00    +0.304 C 
ATOM     26  O   UNL     1     -10.552  -5.562  -1.486  0.00  0.00    -0.253 OA
ATOM     27  N   UNL     1     -12.008  -6.065  -3.087  0.00  0.00    -0.313 N 
ATOM     28  H   UNL     1     -10.428  -4.612  -4.423  0.00  0.00    +0.159 HD
ATOM     29  H   UNL     1     -12.280  -5.974  -4.013  0.00  0.00    +0.146 HD
ATOM     30  H   UNL     1     -12.538  -6.601  -2.476  0.00  0.00    +0.146 HD
ENDBRANCH  21  22
ENDBRANCH  18  20
ENDBRANCH  17  18
ENDBRANCH   1  17
TORSDOF 9
