REMARK  Name = ZINC32964248
REMARK  6 active torsions:
REMARK  status: ('A' for Active; 'I' for Inactive)
REMARK    1  A    between atoms: C_4  and  O_7
REMARK    2  A    between atoms: O_7  and  C_8
REMARK    3  A    between atoms: C_8  and  C_9
REMARK    4  A    between atoms: C_15  and  C_16
REMARK    5  A    between atoms: N_20  and  C_21
REMARK    6  A    between atoms: C_25  and  C_27
REMARK                            x       y       z     vdW  Elec       q    Type
REMARK                         _______ _______ _______ _____ _____    ______ ____
ROOT
ATOM      1  C   UNL     1       5.186  -2.677   2.120  0.00  0.00    +0.137 C 
ATOM      2  N   UNL     1       6.383  -2.262   1.817  0.00  0.00    -0.166 NA
ATOM      3  N   UNL     1       7.284  -3.085   1.177  0.00  0.00    -0.152 N 
ATOM      4  C   UNL     1       8.628  -2.768   0.884  0.00  0.00    +0.153 C 
ATOM      5  N   UNL     1       9.308  -1.855   1.529  0.00  0.00    -0.283 NA
ATOM      6  C   UNL     1       9.196  -3.574  -0.230  0.00  0.00    +0.082 C 
ATOM      7  C   UNL     1      10.139  -3.053  -1.100  0.00  0.00    +0.042 C 
ATOM      8  C   UNL     1       8.700  -4.963  -0.359  0.00  0.00    +0.273 C 
ATOM      9  O   UNL     1       9.377  -5.825  -0.897  0.00  0.00    -0.268 OA
ATOM     10  N   UNL     1       7.478  -5.250   0.135  0.00  0.00    -0.152 NA
ATOM     11  C   UNL     1       6.835  -4.338   0.818  0.00  0.00    +0.181 C 
ATOM     12  S   UNL     1       5.199  -4.355   1.503  0.00  0.00    -0.035 S 
ATOM     13  H   UNL     1       8.915  -1.409   2.296  0.00  0.00    +0.188 HD
ENDROOT
BRANCH   7  14
ATOM     14  C   UNL     1      10.491  -1.692  -1.024  0.00  0.00    +0.047 A 
ATOM     15  C   UNL     1      11.733  -1.183  -0.668  0.00  0.00    +0.027 A 
ATOM     16  C   UNL     1      11.637   0.208  -0.724  0.00  0.00    +0.020 A 
ATOM     17  C   UNL     1      10.373   0.527  -1.103  0.00  0.00    +0.092 A 
ATOM     18  N   UNL     1       9.667  -0.617  -1.294  0.00  0.00    -0.316 N 
BRANCH  18  19
ATOM     19  C   UNL     1       8.327  -0.695  -1.696  0.00  0.00    +0.047 A 
ATOM     20  C   UNL     1       7.972  -1.477  -2.787  0.00  0.00    +0.026 A 
ATOM     21  C   UNL     1       6.650  -1.551  -3.180  0.00  0.00    +0.003 A 
ATOM     22  C   UNL     1       5.681  -0.847  -2.489  0.00  0.00    +0.012 A 
ATOM     23  C   UNL     1       6.032  -0.067  -1.403  0.00  0.00    +0.057 A 
ATOM     24  C   UNL     1       7.351   0.007  -1.001  0.00  0.00    +0.038 A 
BRANCH  23  25
ATOM     25  C   UNL     1       4.973   0.699  -0.652  0.00  0.00    +0.417 C 
ATOM     26  F   UNL     1       3.733   0.074  -0.827  0.00  0.00    -0.166 F 
ATOM     27  F   UNL     1       5.293   0.726   0.709  0.00  0.00    -0.166 F 
ATOM     28  F   UNL     1       4.908   2.008  -1.142  0.00  0.00    -0.166 F 
ENDBRANCH  23  25
ENDBRANCH  18  19
ENDBRANCH   7  14
BRANCH   1  29
ATOM     29  C   UNL     1       4.075  -1.934   2.817  0.00  0.00    +0.293 C 
BRANCH  29  30
ATOM     30  O   UNL     1       4.543  -0.644   3.217  0.00  0.00    -0.485 OA
BRANCH  30  34
ATOM     31  C   UNL     1       1.806   1.865   5.015  0.00  0.00    +0.000 A 
ATOM     32  C   UNL     1       3.109   2.287   4.825  0.00  0.00    +0.004 A 
ATOM     33  C   UNL     1       4.027   1.449   4.223  0.00  0.00    +0.045 A 
ATOM     34  C   UNL     1       3.641   0.182   3.810  0.00  0.00    +0.121 A 
ATOM     35  C   UNL     1       2.334  -0.240   4.002  0.00  0.00    +0.045 A 
ATOM     36  C   UNL     1       1.419   0.603   4.604  0.00  0.00    +0.004 A 
ENDBRANCH  30  34
ENDBRANCH  29  30
ENDBRANCH   1  29
TORSDOF 6
