REMARK  Name = ZINC22935277
REMARK  7 active torsions:
REMARK  status: ('A' for Active; 'I' for Inactive)
REMARK    1  A    between atoms: C_5  and  C_6
REMARK    2  A    between atoms: C_6  and  N_7
REMARK    3  A    between atoms: N_10  and  C_13
REMARK    4  A    between atoms: C_13  and  C_14
REMARK    5  A    between atoms: N_16  and  C_17
REMARK    6  A    between atoms: C_19  and  C_26
REMARK    7  A    between atoms: C_21  and  C_23
REMARK                            x       y       z     vdW  Elec       q    Type
REMARK                         _______ _______ _______ _____ _____    ______ ____
ROOT
ATOM      1  C   UNL     1      -0.922   1.516  -3.622  0.00  0.00    +0.201 C 
ATOM      2  O   UNL     1      -1.886   2.241  -3.493  0.00  0.00    -0.278 OA
ATOM      3  N   UNL     1      -0.633   0.988  -4.828  0.00  0.00    -0.287 N 
ATOM      4  H   UNL     1       0.288   0.402  -4.966  0.00  0.00    +0.155 HD
ENDROOT
BRANCH   3   5
ATOM      5  C   UNL     1      -1.505   1.184  -5.905  0.00  0.00    +0.035 A 
ATOM      6  C   UNL     1      -2.872   1.261  -5.684  0.00  0.00    +0.036 A 
ATOM      7  C   UNL     1      -3.744   1.461  -6.755  0.00  0.00    +0.039 A 
ATOM      8  C   UNL     1      -3.240   1.574  -8.050  0.00  0.00    +0.026 A 
ATOM      9  C   UNL     1      -1.867   1.491  -8.269  0.00  0.00    +0.039 A 
ATOM     10  C   UNL     1      -1.000   1.296  -7.193  0.00  0.00    +0.036 A 
BRANCH   9  11
ATOM     11  C   UNL     1      -1.328   1.611  -9.641  0.00  0.00    +0.242 C 
ATOM     12  O   UNL     1      -0.130   1.539  -9.832  0.00  0.00    -0.270 OA
ATOM     13  N   UNL     1      -2.166   1.799 -10.680  0.00  0.00    -0.325 N 
ATOM     14  H   UNL     1      -1.765   1.888 -11.700  0.00  0.00    +0.145 HD
ATOM     15  H   UNL     1      -3.250   1.864 -10.507  0.00  0.00    +0.145 HD
ENDBRANCH   9  11
BRANCH   7  16
ATOM     16  C   UNL     1      -5.201   1.549  -6.518  0.00  0.00    +0.242 C 
ATOM     17  O   UNL     1      -5.639   1.450  -5.388  0.00  0.00    -0.270 OA
ATOM     18  N   UNL     1      -6.043   1.737  -7.553  0.00  0.00    -0.325 N 
ATOM     19  H   UNL     1      -7.126   1.802  -7.377  0.00  0.00    +0.145 HD
ATOM     20  H   UNL     1      -5.646   1.826  -8.575  0.00  0.00    +0.145 HD
ENDBRANCH   7  16
ENDBRANCH   3   5
BRANCH   1  21
ATOM     21  C   UNL     1      -0.047   1.207  -2.435  0.00  0.00    +0.019 C 
BRANCH  21  25
ATOM     22  N   UNL     1      -0.400   3.579   1.043  0.00  0.00    -0.301 NA
ATOM     23  C   UNL     1      -0.516   2.121   1.189  0.00  0.00    +0.066 C 
ATOM     24  C   UNL     1       0.110   1.438  -0.029  0.00  0.00    -0.063 C 
ATOM     25  N   UNL     1      -0.569   1.898  -1.248  0.00  0.00    +0.387 N 
ATOM     26  C   UNL     1      -0.453   3.356  -1.394  0.00  0.00    -0.063 C 
ATOM     27  C   UNL     1      -1.079   4.039  -0.176  0.00  0.00    +0.066 C 
ATOM     28  H   UNL     1      -1.637   1.650  -1.157  0.00  0.00    -0.081 HD
BRANCH  22  29
ATOM     29  C   UNL     1      -0.923   4.269   2.230  0.00  0.00    +0.126 C 
BRANCH  29  34
ATOM     30  C   UNL     1       1.046   4.622   3.866  0.00  0.00    +0.013 A 
ATOM     31  C   UNL     1       1.700   4.152   4.990  0.00  0.00    +0.023 A 
ATOM     32  C   UNL     1       1.227   3.042   5.609  0.00  0.00    +0.055 A 
ATOM     33  S   UNL     1      -0.189   2.632   4.602  0.00  0.00    -0.085 S 
ATOM     34  C   UNL     1      -0.048   3.960   3.417  0.00  0.00    +0.005 A 
ATOM     35 BR   UNL     1       1.889   2.162   7.147  0.00  0.00    -0.043 Br
ENDBRANCH  29  34
ENDBRANCH  22  29
ENDBRANCH  21  25
ENDBRANCH   1  21
TORSDOF 7
