REMARK  Name = ZINC20532190
REMARK  12 active torsions:
REMARK  status: ('A' for Active; 'I' for Inactive)
REMARK    1  A    between atoms: C_1  and  C_2
REMARK    2  A    between atoms: C_2  and  N_3
REMARK    3  A    between atoms: C_9  and  N_30
REMARK    4  A    between atoms: C_10  and  C_11
REMARK    5  A    between atoms: C_11  and  C_13
REMARK    6  A    between atoms: C_11  and  N_18
REMARK    7  A    between atoms: C_13  and  C_14
REMARK    8  A    between atoms: C_14  and  C_15
REMARK    9  A    between atoms: C_15  and  C_16
REMARK   10  A    between atoms: C_15  and  C_17
REMARK   11  A    between atoms: N_21  and  C_22
REMARK   12  A    between atoms: C_25  and  C_29
REMARK                            x       y       z     vdW  Elec       q    Type
REMARK                         _______ _______ _______ _____ _____    ______ ____
ROOT
ATOM      1  C   UNL     1      -0.887   1.863   1.559  0.00  0.00    +0.108 C 
ENDROOT
BRANCH   1   9
ATOM      2  N   UNL     1      -1.885  -1.891   4.966  0.00  0.00    +0.383 N 
ATOM      3  C   UNL     1      -2.523  -1.715   3.654  0.00  0.00    -0.074 C 
ATOM      4  C   UNL     1      -2.251  -0.307   3.119  0.00  0.00    +0.018 C 
ATOM      5  C   UNL     1      -0.746  -0.055   3.177  0.00  0.00    -0.034 A 
ATOM      6  C   UNL     1       0.035  -0.849   3.961  0.00  0.00    -0.021 A 
ATOM      7  S   UNL     1       1.670  -0.216   3.710  0.00  0.00    -0.077 S 
ATOM      8  C   UNL     1       1.251   1.086   2.560  0.00  0.00    +0.090 A 
ATOM      9  C   UNL     1      -0.097   0.942   2.453  0.00  0.00    +0.007 A 
ATOM     10  C   UNL     1      -0.419  -1.980   4.824  0.00  0.00    -0.035 C 
ATOM     11  H   UNL     1      -2.122  -1.010   5.581  0.00  0.00    -0.081 HD
BRANCH   8  12
ATOM     12  N   UNL     1       2.091   2.013   1.933  0.00  0.00    -0.317 N 
ATOM     13  C   UNL     1       1.719   2.894   0.959  0.00  0.00    +0.092 A 
ATOM     14  C   UNL     1       2.801   3.618   0.609  0.00  0.00    +0.019 A 
ATOM     15  C   UNL     1       3.884   3.164   1.388  0.00  0.00    +0.019 A 
ATOM     16  C   UNL     1       3.422   2.181   2.189  0.00  0.00    +0.092 A 
ENDBRANCH   8  12
BRANCH   2  18
ATOM     17  C   UNL     1      -2.213  -4.311   4.782  0.00  0.00    -0.017 C 
ATOM     18  C   UNL     1      -2.420  -3.073   5.657  0.00  0.00    -0.082 C 
ENDBRANCH   2  18
ENDBRANCH   1   9
BRANCH   1  19
ATOM     19  N   UNL     1      -0.491   3.250   1.815  0.00  0.00    -0.292 N 
ATOM     20  C   UNL     1      -1.333   4.258   1.512  0.00  0.00    +0.304 C 
ATOM     21  O   UNL     1      -2.421   4.016   1.025  0.00  0.00    -0.252 OA
ATOM     22  N   UNL     1      -0.969   5.534   1.747  0.00  0.00    -0.269 N 
ATOM     23  H   UNL     1       0.493   3.469   2.256  0.00  0.00    +0.151 HD
ATOM     24  H   UNL     1      -0.016   5.750   2.252  0.00  0.00    +0.156 HD
BRANCH  22  25
ATOM     25  C   UNL     1      -1.804   6.585   1.349  0.00  0.00    +0.036 A 
ATOM     26  C   UNL     1      -1.254   7.778   0.898  0.00  0.00    +0.024 A 
ATOM     27  C   UNL     1      -2.079   8.811   0.502  0.00  0.00    +0.006 A 
ATOM     28  C   UNL     1      -3.453   8.664   0.564  0.00  0.00    -0.032 A 
ATOM     29  C   UNL     1      -4.004   7.479   1.018  0.00  0.00    +0.046 A 
ATOM     30  C   UNL     1      -3.183   6.439   1.411  0.00  0.00    +0.043 A 
ATOM     31 CL   UNL     1      -5.729   7.298   1.093  0.00  0.00    -0.083 Cl
ATOM     32  C   UNL     1      -4.351   9.796   0.135  0.00  0.00    +0.045 C 
ENDBRANCH  22  25
ENDBRANCH   1  19
BRANCH   1  33
ATOM     33  C   UNL     1      -0.609   1.516   0.095  0.00  0.00    +0.027 C 
BRANCH  33  34
ATOM     34  C   UNL     1      -1.503   2.365  -0.809  0.00  0.00    +0.005 C 
BRANCH  34  35
ATOM     35  C   UNL     1      -1.225   2.018  -2.273  0.00  0.00    -0.017 C 
ATOM     36  C   UNL     1      -2.204   2.775  -3.172  0.00  0.00    +0.007 C 
ATOM     37  C   UNL     1       0.208   2.418  -2.629  0.00  0.00    +0.007 C 
ENDBRANCH  34  35
ENDBRANCH  33  34
ENDBRANCH   1  33
TORSDOF 8
