REMARK  Name = ZINC66334946
REMARK  11 active torsions:
REMARK  status: ('A' for Active; 'I' for Inactive)
REMARK    1  A    between atoms: C_1  and  C_2
REMARK    2  A    between atoms: C_6  and  O_8
REMARK    3  A    between atoms: O_8  and  C_9
REMARK    4  A    between atoms: C_9  and  C_10
REMARK    5  A    between atoms: C_10  and  C_12
REMARK    6  A    between atoms: C_10  and  O_31
REMARK    7  A    between atoms: C_12  and  N_13
REMARK    8  A    between atoms: N_16  and  C_17
REMARK    9  A    between atoms: C_17  and  C_18
REMARK   10  A    between atoms: C_18  and  C_20
REMARK   11  A    between atoms: C_18  and  N_21
REMARK                            x       y       z     vdW  Elec       q    Type
REMARK                         _______ _______ _______ _____ _____    ______ ____
ROOT
ATOM      1  N   UNL     1      -0.182  -6.939   4.963  0.00  0.00    -0.297 N 
ATOM      2  C   UNL     1       0.109  -8.245   5.125  0.00  0.00    +0.300 C 
ATOM      3  O   UNL     1       0.319  -8.946   4.153  0.00  0.00    -0.253 OA
ATOM      4  N   UNL     1       0.169  -8.774   6.363  0.00  0.00    -0.301 N 
ATOM      5  H   UNL     1      -0.349  -6.380   5.738  0.00  0.00    +0.150 HD
ATOM      6  H   UNL     1       0.002  -8.215   7.138  0.00  0.00    +0.150 HD
ENDROOT
BRANCH   1   7
ATOM      7  C   UNL     1      -0.247  -6.364   3.617  0.00  0.00    +0.140 C 
BRANCH   7   8
ATOM      8  C   UNL     1      -0.594  -4.877   3.714  0.00  0.00    +0.169 C 
BRANCH   8   9
ATOM      9  O   UNL     1      -1.859  -4.724   4.359  0.00  0.00    -0.387 OA
ATOM     10  H   UNL     1      -2.591  -5.158   3.899  0.00  0.00    +0.210 HD
ENDBRANCH   8   9
BRANCH   8  11
ATOM     11  C   UNL     1      -0.661  -4.277   2.309  0.00  0.00    +0.261 C 
BRANCH  11  12
ATOM     12  O   UNL     1      -0.870  -2.866   2.403  0.00  0.00    -0.489 OA
BRANCH  12  18
ATOM     13  C   UNL     1      -1.460   1.388   0.084  0.00  0.00    +0.044 C 
ATOM     14  C   UNL     1      -1.241  -0.103   0.065  0.00  0.00    -0.047 A 
ATOM     15  C   UNL     1      -1.126  -0.770  -1.141  0.00  0.00    +0.003 A 
ATOM     16  C   UNL     1      -0.925  -2.137  -1.161  0.00  0.00    +0.004 A 
ATOM     17  C   UNL     1      -0.839  -2.842   0.024  0.00  0.00    +0.045 A 
ATOM     18  C   UNL     1      -0.954  -2.175   1.236  0.00  0.00    +0.121 A 
ATOM     19  C   UNL     1      -1.150  -0.802   1.253  0.00  0.00    +0.049 A 
ENDBRANCH  12  18
ENDBRANCH  11  12
ENDBRANCH   8  11
ENDBRANCH   7   8
ENDBRANCH   1   7
BRANCH   4  20
ATOM     20  C   UNL     1       0.486 -10.194   6.538  0.00  0.00    +0.090 C 
BRANCH  20  21
ATOM     21  C   UNL     1       0.618 -10.506   8.030  0.00  0.00    -0.054 C 
ATOM     22  C   UNL     1       1.044 -11.965   8.210  0.00  0.00    -0.012 C 
BRANCH  21  23
ATOM     23  N   UNL     1       1.628  -9.624   8.628  0.00  0.00    +0.385 N 
ATOM     24  C   UNL     1       2.953  -9.946   8.075  0.00  0.00    -0.073 C 
ATOM     25  C   UNL     1       3.928  -8.835   8.466  0.00  0.00    +0.017 C 
ATOM     26  C   UNL     1       3.848  -8.586   9.951  0.00  0.00    -0.048 A 
ATOM     27  C   UNL     1       4.872  -7.879  10.562  0.00  0.00    +0.004 A 
ATOM     28  C   UNL     1       4.832  -7.629  11.919  0.00  0.00    +0.000 A 
ATOM     29  C   UNL     1       3.765  -8.085  12.672  0.00  0.00    +0.000 A 
ATOM     30  C   UNL     1       2.746  -8.790  12.063  0.00  0.00    +0.002 A 
ATOM     31  C   UNL     1       2.785  -9.043  10.700  0.00  0.00    -0.061 A 
ATOM     32  C   UNL     1       1.656  -9.823  10.080  0.00  0.00    -0.042 C 
ATOM     33  H   UNL     1       1.400  -8.662   8.424  0.00  0.00    -0.081 HD
ENDBRANCH  21  23
ENDBRANCH  20  21
ENDBRANCH   4  20
TORSDOF 9
