REMARK  Name = ZINC39982615
REMARK  10 active torsions:
REMARK  status: ('A' for Active; 'I' for Inactive)
REMARK    1  A    between atoms: C_1  and  C_2
REMARK    2  A    between atoms: C_4  and  C_12
REMARK    3  A    between atoms: C_12  and  C_14
REMARK    4  A    between atoms: C_14  and  C_16
REMARK    5  A    between atoms: C_14  and  S_17
REMARK    6  A    between atoms: S_17  and  C_18
REMARK    7  A    between atoms: C_22  and  C_32
REMARK    8  A    between atoms: N_23  and  C_24
REMARK    9  A    between atoms: C_24  and  C_25
REMARK   10  A    between atoms: C_25  and  N_26
REMARK                            x       y       z     vdW  Elec       q    Type
REMARK                         _______ _______ _______ _____ _____    ______ ____
ROOT
ATOM      1  C   UNL     1       2.411  -0.554  -6.297  0.00  0.00    +0.237 C 
ATOM      2  N   UNL     1       2.520  -1.939  -6.786  0.00  0.00    -0.237 N 
ATOM      3  N   UNL     1       3.710  -2.451  -6.256  0.00  0.00    -0.169 NA
ATOM      4  C   UNL     1       4.319  -1.575  -5.527  0.00  0.00    +0.148 C 
ATOM      5  N   UNL     1       3.620  -0.367  -5.477  0.00  0.00    -0.284 N 
ATOM      6  H   UNL     1       1.892  -2.403  -7.361  0.00  0.00    +0.171 HD
ENDROOT
BRANCH   4   7
ATOM      7  C   UNL     1       5.602  -1.820  -4.833  0.00  0.00    +0.017 A 
ATOM      8  C   UNL     1       5.965  -1.038  -3.736  0.00  0.00    +0.014 A 
ATOM      9  C   UNL     1       7.162  -1.271  -3.092  0.00  0.00    +0.039 A 
ATOM     10  C   UNL     1       8.004  -2.280  -3.533  0.00  0.00    +0.123 A 
ATOM     11  C   UNL     1       7.648  -3.059  -4.622  0.00  0.00    +0.039 A 
ATOM     12  C   UNL     1       6.451  -2.838  -5.270  0.00  0.00    +0.014 A 
ATOM     13  F   UNL     1       9.176  -2.504  -2.899  0.00  0.00    -0.205 F 
ENDBRANCH   4   7
BRANCH   1  14
ATOM     14  S   UNL     1       0.919  -0.351  -5.286  0.00  0.00    -0.107 S 
BRANCH  14  15
ATOM     15  C   UNL     1       1.101  -1.598  -3.980  0.00  0.00    +0.117 C 
ATOM     16  C   UNL     1       1.060  -2.996  -4.601  0.00  0.00    +0.027 C 
BRANCH  15  17
ATOM     17  C   UNL     1      -0.025  -1.455  -2.989  0.00  0.00    +0.174 C 
ATOM     18  O   UNL     1      -1.065  -0.925  -3.324  0.00  0.00    -0.291 OA
BRANCH  17  21
ATOM     19  C   UNL     1      -1.076  -0.312  -0.211  0.00  0.00    +0.035 C 
ATOM     20  C   UNL     1      -0.846  -1.792  -0.524  0.00  0.00    +0.111 C 
ATOM     21  C   UNL     1       0.130  -1.936  -1.671  0.00  0.00    +0.027 C 
ATOM     22  C   UNL     1       1.205  -2.640  -1.159  0.00  0.00    +0.006 A 
ATOM     23  C   UNL     1       2.422  -3.085  -1.726  0.00  0.00    +0.010 A 
ATOM     24  C   UNL     1       3.314  -3.770  -0.975  0.00  0.00    +0.001 A 
ATOM     25  C   UNL     1       3.087  -4.069   0.378  0.00  0.00    +0.002 A 
ATOM     26  C   UNL     1       1.958  -3.689   1.015  0.00  0.00    +0.026 A 
ATOM     27  C   UNL     1       0.934  -2.939   0.269  0.00  0.00    +0.043 A 
ATOM     28  N   UNL     1      -0.226  -2.460   0.625  0.00  0.00    -0.377 N 
ATOM     29  H   UNL     1      -0.616  -2.533   1.509  0.00  0.00    +0.160 HD
ENDBRANCH  17  21
ENDBRANCH  15  17
ENDBRANCH  14  15
ENDBRANCH   1  14
BRANCH   5  30
ATOM     30  C   UNL     1       4.009   0.846  -4.753  0.00  0.00    +0.124 C 
BRANCH  30  31
ATOM     31  C   UNL     1       3.314   0.871  -3.390  0.00  0.00    +0.103 C 
BRANCH  31  32
ATOM     32  N   UNL     1       3.692   2.095  -2.670  0.00  0.00    -0.297 NA
ATOM     33  C   UNL     1       5.121   2.082  -2.326  0.00  0.00    +0.112 C 
ATOM     34  C   UNL     1       5.484   3.398  -1.632  0.00  0.00    +0.175 C 
ATOM     35  O   UNL     1       4.652   3.570  -0.482  0.00  0.00    -0.377 OA
ATOM     36  C   UNL     1       3.253   3.587  -0.781  0.00  0.00    +0.175 C 
ATOM     37  C   UNL     1       2.867   2.274  -1.466  0.00  0.00    +0.112 C 
ENDBRANCH  31  32
ENDBRANCH  30  31
ENDBRANCH   5  30
TORSDOF 8
