REMARK  Name = ZINC12559528
REMARK  8 active torsions:
REMARK  status: ('A' for Active; 'I' for Inactive)
REMARK    1  A    between atoms: C_1  and  C_2
REMARK    2  A    between atoms: C_4  and  C_34
REMARK    3  A    between atoms: N_8  and  S_9
REMARK    4  A    between atoms: S_9  and  C_12
REMARK    5  A    between atoms: C_15  and  N_18
REMARK    6  A    between atoms: N_20  and  C_31
REMARK    7  A    between atoms: C_21  and  C_24
REMARK    8  A    between atoms: C_31  and  C_32
REMARK                            x       y       z     vdW  Elec       q    Type
REMARK                         _______ _______ _______ _____ _____    ______ ____
ROOT
ATOM      1  C   UNL     1       0.431   0.559  -2.632  0.00  0.00    +0.109 A 
ATOM      2  C   UNL     1      -0.914   0.781  -2.872  0.00  0.00    +0.031 A 
ATOM      3  C   UNL     1      -1.777   1.005  -1.820  0.00  0.00    +0.027 A 
ATOM      4  C   UNL     1      -1.291   1.007  -0.510  0.00  0.00    +0.041 A 
ATOM      5  C   UNL     1       0.069   0.787  -0.276  0.00  0.00    +0.027 A 
ATOM      6  C   UNL     1       0.920   0.560  -1.337  0.00  0.00    +0.031 A 
ENDROOT
BRANCH   4   7
ATOM      7  N   UNL     1      -2.141   1.229   0.538  0.00  0.00    -0.336 N 
ATOM      8  C   UNL     1      -2.621   0.209   1.225  0.00  0.00    +0.152 A 
ATOM      9  N   UNL     1      -2.475  -1.138   0.997  0.00  0.00    -0.317 N 
ATOM     10  C   UNL     1      -3.078  -2.018   1.853  0.00  0.00    +0.058 A 
ATOM     11  C   UNL     1      -3.787  -1.550   2.901  0.00  0.00    +0.075 A 
ATOM     12  S   UNL     1      -3.633   0.217   2.697  0.00  0.00    -0.059 S 
ATOM     13  H   UNL     1      -2.425   2.257   0.808  0.00  0.00    +0.168 HD
BRANCH  10  14
ATOM     14  C   UNL     1      -2.948  -3.475   1.635  0.00  0.00    -0.001 A 
ATOM     15  C   UNL     1      -4.074  -4.297   1.704  0.00  0.00    +0.011 A 
ATOM     16  C   UNL     1      -3.947  -5.655   1.495  0.00  0.00    +0.020 A 
ATOM     17  C   UNL     1      -2.704  -6.204   1.228  0.00  0.00    +0.041 A 
ATOM     18  C   UNL     1      -1.583  -5.394   1.164  0.00  0.00    +0.020 A 
ATOM     19  C   UNL     1      -1.698  -4.035   1.366  0.00  0.00    +0.011 A 
ATOM     20 CL   UNL     1      -2.551  -7.914   0.973  0.00  0.00    -0.084 Cl
ENDBRANCH  10  14
BRANCH   9  21
ATOM     21  C   UNL     1      -1.694  -1.622  -0.145  0.00  0.00    +0.151 C 
BRANCH  21  22
ATOM     22  C   UNL     1      -2.486  -2.666  -0.889  0.00  0.00    -0.013 C 
ATOM     23  C   UNL     1      -2.762  -2.497  -2.158  0.00  0.00    +0.005 C 
ENDBRANCH  21  22
ENDBRANCH   9  21
ENDBRANCH   4   7
BRANCH   1  24
ATOM     24  S   UNL     1       1.527   0.275  -3.982  0.00  0.00    +0.075 S 
ATOM     25  O   UNL     1       2.656  -0.405  -3.453  0.00  0.00    -0.150 OA
ATOM     26  O   UNL     1       0.740  -0.262  -5.037  0.00  0.00    -0.150 OA
BRANCH  24  34
ATOM     27  C   UNL     1       3.903   2.525  -0.141  0.00  0.00    +0.066 C 
ATOM     28  C   UNL     1       3.772   2.901  -1.594  0.00  0.00    +0.044 A 
ATOM     29  C   UNL     1       4.459   3.993  -2.101  0.00  0.00    +0.046 A 
ATOM     30  C   UNL     1       4.310   4.304  -3.443  0.00  0.00    +0.044 A 
ATOM     31  N   UNL     1       3.522   3.555  -4.196  0.00  0.00    -0.219 NA
ATOM     32  C   UNL     1       2.880   2.517  -3.681  0.00  0.00    +0.235 A 
ATOM     33  N   UNL     1       2.996   2.196  -2.401  0.00  0.00    -0.219 NA
ATOM     34  N   UNL     1       2.063   1.754  -4.498  0.00  0.00    -0.184 N 
ATOM     35  C   UNL     1       5.038   5.483  -4.038  0.00  0.00    +0.066 C 
ATOM     36  H   UNL     1       1.771   2.131  -5.489  0.00  0.00    +0.177 HD
ENDBRANCH  24  34
ENDBRANCH   1  24
TORSDOF 6
