REMARK  Name = ZINC16957800
REMARK  9 active torsions:
REMARK  status: ('A' for Active; 'I' for Inactive)
REMARK    1  A    between atoms: C_1  and  C_2
REMARK    2  A    between atoms: C_3  and  C_19
REMARK    3  A    between atoms: C_5  and  C_7
REMARK    4  A    between atoms: C_9  and  C_18
REMARK    5  A    between atoms: C_10  and  C_12
REMARK    6  A    between atoms: C_12  and  C_17
REMARK    7  A    between atoms: N_13  and  N_14
REMARK    8  A    between atoms: C_19  and  C_24
REMARK    9  A    between atoms: N_20  and  N_21
REMARK                            x       y       z     vdW  Elec       q    Type
REMARK                         _______ _______ _______ _____ _____    ______ ____
ROOT
ATOM      1  C   UNL     1       9.223   5.122  -0.058  0.00  0.00    +0.067 C 
ATOM      2  C   UNL     1       7.720   5.219  -0.043  0.00  0.00    +0.055 A 
ATOM      3  C   UNL     1       7.095   6.461  -0.033  0.00  0.00    +0.058 A 
ATOM      4  S   UNL     1       5.377   5.963  -0.025  0.00  0.00    -0.064 S 
ATOM      5  C   UNL     1       5.659   4.197  -0.028  0.00  0.00    +0.134 A 
ATOM      6  N   UNL     1       6.988   4.139  -0.041  0.00  0.00    -0.241 NA
ENDROOT
BRANCH   5   7
ATOM      7  C   UNL     1       4.682   3.101  -0.024  0.00  0.00    +0.134 A 
ATOM      8  N   UNL     1       3.353   3.160  -0.011  0.00  0.00    -0.241 NA
ATOM      9  C   UNL     1       2.621   2.080  -0.014  0.00  0.00    +0.055 A 
ATOM     10  C   UNL     1       3.246   0.838  -0.019  0.00  0.00    +0.058 A 
ATOM     11  S   UNL     1       4.964   1.336  -0.034  0.00  0.00    -0.064 S 
ATOM     12  C   UNL     1       1.117   2.177  -0.008  0.00  0.00    +0.067 C 
BRANCH  10  13
ATOM     13  C   UNL     1       2.660  -0.506  -0.019  0.00  0.00    +0.074 C 
ATOM     14  N   UNL     1       1.368  -0.652  -0.013  0.00  0.00    -0.175 NA
ATOM     15  C   UNL     1       3.555  -1.718  -0.032  0.00  0.00    +0.068 C 
BRANCH  14  16
ATOM     16  N   UNL     1       0.808  -1.936  -0.018  0.00  0.00    -0.248 N 
ATOM     17  C   UNL     1      -0.559  -2.090  -0.012  0.00  0.00    +0.187 C 
ATOM     18  N   UNL     1      -1.109  -3.351  -0.018  0.00  0.00    -0.370 N 
ATOM     19  H   UNL     1       1.384  -2.716  -0.027  0.00  0.00    +0.192 HD
ATOM     20  H   UNL     1      -2.309  -1.047   0.004  0.00  0.00    +0.159 HD
ATOM     21  H   UNL     1      -0.533  -4.132  -0.026  0.00  0.00    +0.159 HD
ATOM     22  H   UNL     1      -2.073  -3.460  -0.013  0.00  0.00    +0.159 HD
ATOM     23  N   UNL     1      -1.291  -0.985  -0.001  0.00  0.00    -0.370 N 
ATOM     24  H   UNL     1      -0.833  -0.066   0.003  0.00  0.00    +0.159 HD
ENDBRANCH  14  16
ENDBRANCH  10  13
ENDBRANCH   5   7
BRANCH   3  25
ATOM     25  C   UNL     1       7.681   7.804  -0.033  0.00  0.00    +0.074 C 
ATOM     26  N   UNL     1       8.973   7.950  -0.045  0.00  0.00    -0.175 NA
ATOM     27  C   UNL     1       6.785   9.017  -0.020  0.00  0.00    +0.068 C 
BRANCH  26  28
ATOM     28  N   UNL     1       9.533   9.235  -0.045  0.00  0.00    -0.248 N 
ATOM     29  C   UNL     1      10.900   9.389  -0.057  0.00  0.00    +0.187 C 
ATOM     30  N   UNL     1      11.450  10.650  -0.058  0.00  0.00    -0.370 N 
ATOM     31  H   UNL     1       8.957  10.015  -0.037  0.00  0.00    +0.192 HD
ATOM     32  H   UNL     1      12.650   8.346  -0.078  0.00  0.00    +0.159 HD
ATOM     33  H   UNL     1      10.874  11.430  -0.049  0.00  0.00    +0.159 HD
ATOM     34  H   UNL     1      12.414  10.759  -0.066  0.00  0.00    +0.159 HD
ATOM     35  N   UNL     1      11.632   8.284  -0.069  0.00  0.00    -0.370 N 
ATOM     36  H   UNL     1      11.174   7.365  -0.068  0.00  0.00    +0.159 HD
ENDBRANCH  26  28
ENDBRANCH   3  25
TORSDOF 5
