REMARK  Name = ZINC61668872
REMARK  6 active torsions:
REMARK  status: ('A' for Active; 'I' for Inactive)
REMARK    1  A    between atoms: C_1  and  C_2
REMARK    2  A    between atoms: C_7  and  C_12
REMARK    3  A    between atoms: C_12  and  C_14
REMARK    4  A    between atoms: C_12  and  N_23
REMARK    5  A    between atoms: C_17  and  O_21
REMARK    6  A    between atoms: O_21  and  C_22
REMARK                            x       y       z     vdW  Elec       q    Type
REMARK                         _______ _______ _______ _____ _____    ______ ____
ROOT
ATOM      1  C   UNL     1       5.883  -1.186  -1.171  0.00  0.00    -0.013 C 
ENDROOT
BRANCH   1   7
ATOM      2  C   UNL     1      -0.019   1.526   0.010  0.00  0.00    +0.052 C 
ATOM      3  C   UNL     1       0.002  -0.004   0.002  0.00  0.00    +0.175 C 
ATOM      4  C   UNL     1       0.775  -0.535  -1.228  0.00  0.00    +0.083 C 
ATOM      5  C   UNL     1       2.175  -0.704  -0.670  0.00  0.00    -0.002 A 
ATOM      6  C   UNL     1       3.399  -0.875  -1.278  0.00  0.00    +0.009 A 
ATOM      7  C   UNL     1       4.542  -0.999  -0.508  0.00  0.00    -0.057 A 
ATOM      8  C   UNL     1       4.450  -0.950   0.871  0.00  0.00    +0.006 A 
ATOM      9  C   UNL     1       3.225  -0.783   1.482  0.00  0.00    +0.046 A 
ATOM     10  C   UNL     1       2.069  -0.661   0.714  0.00  0.00    +0.124 A 
ATOM     11  O   UNL     1       0.770  -0.509   1.108  0.00  0.00    -0.488 OA
ENDBRANCH   1   7
BRANCH   1  12
ATOM     12  C   UNL     1       6.262  -2.644  -1.132  0.00  0.00    -0.055 A 
ATOM     13  C   UNL     1       6.789  -3.190   0.024  0.00  0.00    +0.006 A 
ATOM     14  C   UNL     1       7.138  -4.526   0.062  0.00  0.00    +0.049 A 
ATOM     15  C   UNL     1       6.960  -5.322  -1.060  0.00  0.00    +0.155 A 
ATOM     16  C   UNL     1       6.431  -4.772  -2.220  0.00  0.00    +0.165 A 
ATOM     17  C   UNL     1       6.078  -3.435  -2.251  0.00  0.00    +0.044 A 
ATOM     18  F   UNL     1       6.256  -5.543  -3.315  0.00  0.00    -0.202 F 
BRANCH  15  19
ATOM     19  O   UNL     1       7.304  -6.636  -1.024  0.00  0.00    -0.492 OA
ATOM     20  C   UNL     1       7.843  -7.133   0.203  0.00  0.00    +0.277 C 
ENDBRANCH  15  19
ENDBRANCH   1  12
BRANCH   1  21
ATOM     21  N   UNL     1       6.896  -0.398  -0.457  0.00  0.00    +0.385 N 
ATOM     22  H   UNL     1       7.794  -0.523  -0.900  0.00  0.00    -0.089 HD
ATOM     23  H   UNL     1       6.642   0.579  -0.482  0.00  0.00    -0.089 HD
ATOM     24  H   UNL     1       6.948  -0.707   0.502  0.00  0.00    -0.089 HD
ENDBRANCH   1  21
TORSDOF 4
