REMARK  Name = ZINC20467288
REMARK  10 active torsions:
REMARK  status: ('A' for Active; 'I' for Inactive)
REMARK    1  A    between atoms: C_1  and  C_2
REMARK    2  A    between atoms: C_2  and  N_3
REMARK    3  A    between atoms: N_6  and  C_7
REMARK    4  A    between atoms: C_11  and  C_36
REMARK    5  A    between atoms: C_14  and  C_24
REMARK    6  A    between atoms: C_16  and  O_23
REMARK    7  A    between atoms: C_20  and  C_22
REMARK    8  A    between atoms: C_24  and  C_26
REMARK    9  A    between atoms: C_24  and  C_27
REMARK   10  A    between atoms: N_29  and  C_30
REMARK                            x       y       z     vdW  Elec       q    Type
REMARK                         _______ _______ _______ _____ _____    ______ ____
ROOT
ATOM      1  C   UNL     1      -2.245  -2.754   0.458  0.00  0.00    +0.078 C 
ATOM      2  C   UNL     1      -2.513  -2.852  -1.046  0.00  0.00    +0.023 C 
ATOM      3  C   UNL     1      -3.706  -3.777  -1.292  0.00  0.00    +0.009 C 
ATOM      4  C   UNL     1      -3.395  -5.169  -0.738  0.00  0.00    -0.027 C 
ATOM      5  C   UNL     1      -4.588  -6.095  -0.984  0.00  0.00    +0.007 C 
ATOM      6  C   UNL     1      -4.277  -7.486  -0.430  0.00  0.00    +0.007 C 
ATOM      7  C   UNL     1      -4.010  -7.388   1.074  0.00  0.00    +0.029 C 
ATOM      8  C   UNL     1      -2.816  -6.463   1.320  0.00  0.00    +0.122 C 
ATOM      9  C   UNL     1      -3.127  -5.072   0.766  0.00  0.00    +0.028 C 
ATOM     10  C   UNL     1      -1.934  -4.146   1.012  0.00  0.00    +0.012 C 
ATOM     11  C   UNL     1      -1.666  -4.048   2.515  0.00  0.00    +0.010 C 
ATOM     12  C   UNL     1      -2.159  -5.734  -1.440  0.00  0.00    +0.011 C 
ENDROOT
BRANCH   1  16
ATOM     13  N   UNL     1      -0.236   0.279   0.988  0.00  0.00    -0.300 N 
ATOM     14  C   UNL     1      -1.287  -0.536   0.771  0.00  0.00    +0.300 C 
ATOM     15  O   UNL     1      -2.403  -0.069   0.645  0.00  0.00    -0.253 OA
ATOM     16  N   UNL     1      -1.102  -1.868   0.694  0.00  0.00    -0.296 N 
ATOM     17  H   UNL     1       0.773  -0.143   1.102  0.00  0.00    +0.150 HD
ATOM     18  H   UNL     1      -0.093  -2.291   0.808  0.00  0.00    +0.151 HD
BRANCH  13  20
ATOM     19  C   UNL     1       0.906   2.416   1.322  0.00  0.00    +0.024 C 
ATOM     20  C   UNL     1      -0.438   1.728   1.072  0.00  0.00    +0.102 C 
ENDBRANCH  13  20
ENDBRANCH   1  16
BRANCH   8  21
ATOM     21  O   UNL     1      -2.566  -6.372   2.724  0.00  0.00    -0.391 OA
ATOM     22  H   UNL     1      -1.741  -5.747   3.096  0.00  0.00    +0.210 HD
ENDBRANCH   8  21
BRANCH   7  23
ATOM     23  C   UNL     1      -3.699  -8.780   1.628  0.00  0.00    +0.077 C 
ATOM     24  C   UNL     1      -2.568  -9.412   0.814  0.00  0.00    +0.017 C 
BRANCH  23  25
ATOM     25  C   UNL     1      -4.929  -9.645   1.534  0.00  0.00    +0.216 C 
ATOM     26  O   UNL     1      -5.930  -9.219   0.997  0.00  0.00    -0.276 OA
ATOM     27  N   UNL     1      -4.918 -10.891   2.046  0.00  0.00    -0.312 N 
ATOM     28  H   UNL     1      -4.011 -11.278   2.533  0.00  0.00    +0.149 HD
BRANCH  27  29
ATOM     29  C   UNL     1      -6.115 -11.732   1.955  0.00  0.00    +0.073 C 
ATOM     30  C   UNL     1      -7.050 -11.417   3.124  0.00  0.00    +0.022 C 
ATOM     31  C   UNL     1      -8.299 -12.295   3.029  0.00  0.00    +0.002 C 
ATOM     32  C   UNL     1      -7.892 -13.769   3.083  0.00  0.00    +0.000 C 
ATOM     33  C   UNL     1      -6.957 -14.084   1.913  0.00  0.00    +0.002 C 
ATOM     34  C   UNL     1      -5.708 -13.206   2.009  0.00  0.00    +0.022 C 
ENDBRANCH  27  29
ENDBRANCH  23  25
ENDBRANCH   7  23
TORSDOF 6
