REMARK  Name = ZINC24875447
REMARK  7 active torsions:
REMARK  status: ('A' for Active; 'I' for Inactive)
REMARK    1  A    between atoms: C_1  and  C_2
REMARK    2  A    between atoms: C_2  and  C_4
REMARK    3  A    between atoms: C_2  and  N_31
REMARK    4  A    between atoms: C_7  and  S_16
REMARK    5  A    between atoms: N_8  and  C_9
REMARK    6  A    between atoms: S_16  and  C_17
REMARK    7  A    between atoms: C_17  and  C_18
REMARK                            x       y       z     vdW  Elec       q    Type
REMARK                         _______ _______ _______ _____ _____    ______ ____
ROOT
ATOM      1  C   UNL     1      -7.664   7.872   0.311  0.00  0.00    +0.125 A 
ATOM      2  N   UNL     1      -7.936   6.598   0.361  0.00  0.00    -0.135 NA
ATOM      3  N   UNL     1      -6.855   5.921   0.520  0.00  0.00    -0.122 NA
ATOM      4  C   UNL     1      -5.824   6.732   0.580  0.00  0.00    +0.196 A 
ATOM      5  N   UNL     1      -6.308   8.005   0.454  0.00  0.00    -0.275 N 
ENDROOT
BRANCH   5   6
ATOM      6  C   UNL     1      -5.570   9.198   0.466  0.00  0.00    +0.050 A 
ATOM      7  C   UNL     1      -5.754  10.119   1.487  0.00  0.00    +0.029 A 
ATOM      8  C   UNL     1      -5.021  11.290   1.500  0.00  0.00    +0.040 A 
ATOM      9  C   UNL     1      -4.113  11.551   0.488  0.00  0.00    +0.124 A 
ATOM     10  C   UNL     1      -3.933  10.636  -0.535  0.00  0.00    +0.040 A 
ATOM     11  C   UNL     1      -4.659   9.461  -0.548  0.00  0.00    +0.029 A 
ATOM     12  F   UNL     1      -3.402  12.700   0.499  0.00  0.00    -0.205 F 
ENDBRANCH   5   6
BRANCH   1  14
ATOM     13  C   UNL     1      -9.148   9.014  -1.314  0.00  0.00    -0.005 C 
ATOM     14  C   UNL     1      -8.658   8.991   0.135  0.00  0.00    -0.002 C 
BRANCH  14  15
ATOM     15  N   UNL     1      -9.799   8.779   1.035  0.00  0.00    +0.386 N 
ATOM     16  C   UNL     1     -10.776   9.868   0.912  0.00  0.00    -0.078 C 
ATOM     17  C   UNL     1     -12.013   9.543   1.751  0.00  0.00    -0.019 C 
ATOM     18  C   UNL     1     -11.600   9.367   3.215  0.00  0.00    -0.004 C 
ATOM     19  C   UNL     1     -10.546   8.260   3.309  0.00  0.00    -0.019 C 
ATOM     20  C   UNL     1      -9.351   8.622   2.425  0.00  0.00    -0.078 C 
ATOM     21  H   UNL     1     -10.299   7.846   0.737  0.00  0.00    -0.081 HD
ENDBRANCH  14  15
ENDBRANCH   1  14
BRANCH   4  22
ATOM     22  S   UNL     1      -4.137   6.268   0.791  0.00  0.00    -0.078 S 
BRANCH  22  23
ATOM     23  C   UNL     1      -4.315   4.469   0.884  0.00  0.00    +0.151 C 
BRANCH  23  24
ATOM     24  C   UNL     1      -2.959   3.839   1.070  0.00  0.00    +0.121 A 
ATOM     25  N   UNL     1      -2.884   2.486   1.163  0.00  0.00    -0.310 N 
ATOM     26  H   UNL     1      -3.799   1.879   1.102  0.00  0.00    +0.170 HD
ATOM     27  C   UNL     1      -1.690   1.872   1.330  0.00  0.00    +0.259 A 
ATOM     28  O   UNL     1      -1.608   0.660   1.415  0.00  0.00    -0.267 OA
ATOM     29  C   UNL     1      -0.493   2.725   1.399  0.00  0.00    +0.066 A 
ATOM     30  C   UNL     1       0.782   2.192   1.576  0.00  0.00    +0.035 A 
ATOM     31  C   UNL     1       1.868   3.039   1.641  0.00  0.00    +0.042 A 
ATOM     32  C   UNL     1       1.698   4.415   1.537  0.00  0.00    +0.022 A 
ATOM     33  C   UNL     1       0.446   4.960   1.368  0.00  0.00    +0.030 A 
ATOM     34  C   UNL     1      -0.670   4.122   1.299  0.00  0.00    +0.078 A 
ATOM     35  N   UNL     1      -1.922   4.618   1.133  0.00  0.00    -0.233 NA
ATOM     36 CL   UNL     1       3.461   2.382   1.854  0.00  0.00    -0.084 Cl
ENDBRANCH  23  24
ENDBRANCH  22  23
ENDBRANCH   4  22
TORSDOF 6
