REMARK  Name = ZINC63582073
REMARK  7 active torsions:
REMARK  status: ('A' for Active; 'I' for Inactive)
REMARK    1  A    between atoms: C_4  and  C_7
REMARK    2  A    between atoms: C_15  and  C_17
REMARK    3  A    between atoms: N_19  and  N_20
REMARK    4  A    between atoms: N_20  and  C_21
REMARK    5  A    between atoms: C_21  and  N_23
REMARK    6  A    between atoms: N_23  and  C_24
REMARK    7  A    between atoms: C_28  and  C_30
REMARK                            x       y       z     vdW  Elec       q    Type
REMARK                         _______ _______ _______ _____ _____    ______ ____
ROOT
ATOM      1  C   UNL     1       3.225  -2.798  -1.037  0.00  0.00    +0.256 C 
ATOM      2  O   UNL     1       3.883  -2.972  -2.040  0.00  0.00    -0.272 OA
ATOM      3  N   UNL     1       1.888  -2.967  -1.071  0.00  0.00    -0.233 N 
ATOM      4  H   UNL     1       1.353  -2.757  -0.289  0.00  0.00    +0.173 HD
ENDROOT
BRANCH   1  13
ATOM      5  C   UNL     1       3.791  -0.897   0.445  0.00  0.00    -0.000 C 
ATOM      6  C   UNL     1       5.093  -0.427   0.483  0.00  0.00    +0.004 A 
ATOM      7  C   UNL     1       5.638   0.870   0.646  0.00  0.00    +0.010 A 
ATOM      8  C   UNL     1       6.982   1.038   0.642  0.00  0.00    +0.001 A 
ATOM      9  C   UNL     1       7.857  -0.041   0.480  0.00  0.00    +0.002 A 
ATOM     10  C   UNL     1       7.410  -1.308   0.318  0.00  0.00    +0.026 A 
ATOM     11  C   UNL     1       6.012  -1.568   0.311  0.00  0.00    +0.044 A 
ATOM     12  N   UNL     1       5.335  -2.687   0.174  0.00  0.00    -0.370 N 
ATOM     13  C   UNL     1       3.901  -2.393   0.247  0.00  0.00    +0.199 C 
ATOM     14  H   UNL     1       5.723  -3.567   0.048  0.00  0.00    +0.161 HD
BRANCH   5  18
ATOM     15  C   UNL     1       0.238   1.379   0.819  0.00  0.00    +0.000 A 
ATOM     16  C   UNL     1       1.378   1.964   0.294  0.00  0.00    +0.001 A 
ATOM     17  C   UNL     1       2.538   1.232   0.169  0.00  0.00    +0.008 A 
ATOM     18  C   UNL     1       2.563  -0.110   0.574  0.00  0.00    -0.019 A 
ATOM     19  C   UNL     1       1.403  -0.694   1.105  0.00  0.00    +0.008 A 
ATOM     20  C   UNL     1       0.253   0.054   1.223  0.00  0.00    +0.001 A 
ENDBRANCH   5  18
ENDBRANCH   1  13
BRANCH   3  21
ATOM     21  N   UNL     1       1.272  -3.446  -2.234  0.00  0.00    -0.246 N 
ATOM     22  H   UNL     1       1.807  -3.656  -3.015  0.00  0.00    +0.172 HD
BRANCH  21  23
ATOM     23  C   UNL     1      -0.065  -3.615  -2.268  0.00  0.00    +0.151 C 
ATOM     24  S   UNL     1      -0.819  -4.201  -3.689  0.00  0.00    -0.017 S 
BRANCH  23  25
ATOM     25  N   UNL     1      -0.809  -3.323  -1.182  0.00  0.00    -0.296 N 
ATOM     26  H   UNL     1      -0.376  -3.071  -0.351  0.00  0.00    +0.154 HD
BRANCH  25  27
ATOM     27  C   UNL     1      -2.205  -3.383  -1.254  0.00  0.00    +0.033 A 
ATOM     28  C   UNL     1      -2.935  -3.902  -0.192  0.00  0.00    +0.023 A 
ATOM     29  C   UNL     1      -4.312  -3.960  -0.266  0.00  0.00    +0.002 A 
ATOM     30  C   UNL     1      -4.965  -3.502  -1.396  0.00  0.00    +0.012 A 
ATOM     31  C   UNL     1      -4.242  -2.985  -2.455  0.00  0.00    +0.057 A 
ATOM     32  C   UNL     1      -2.864  -2.918  -2.384  0.00  0.00    +0.035 A 
BRANCH  31  33
ATOM     33  C   UNL     1      -4.958  -2.487  -3.684  0.00  0.00    +0.417 C 
ATOM     34  F   UNL     1      -6.337  -2.651  -3.519  0.00  0.00    -0.166 F 
ATOM     35  F   UNL     1      -4.669  -1.131  -3.875  0.00  0.00    -0.166 F 
ATOM     36  F   UNL     1      -4.531  -3.216  -4.799  0.00  0.00    -0.166 F 
ENDBRANCH  31  33
ENDBRANCH  25  27
ENDBRANCH  23  25
ENDBRANCH  21  23
ENDBRANCH   3  21
TORSDOF 7
