REMARK  Name = ZINC39421126
REMARK  9 active torsions:
REMARK  status: ('A' for Active; 'I' for Inactive)
REMARK    1  A    between atoms: C_1  and  O_2
REMARK    2  A    between atoms: O_2  and  C_3
REMARK    3  A    between atoms: C_5  and  N_33
REMARK    4  A    between atoms: N_16  and  C_19
REMARK    5  A    between atoms: C_19  and  C_20
REMARK    6  A    between atoms: C_25  and  C_26
REMARK    7  A    between atoms: C_34  and  C_36
REMARK    8  A    between atoms: C_36  and  S_37
REMARK    9  A    between atoms: S_37  and  C_38
REMARK                            x       y       z     vdW  Elec       q    Type
REMARK                         _______ _______ _______ _____ _____    ______ ____
ROOT
ATOM      1  C   UNL     1       0.652  -0.570  -1.138  0.00  0.00    +0.153 C 
ATOM      2  C   UNL     1       2.135  -0.871  -0.832  0.00  0.00    +0.133 C 
ATOM      3  C   UNL     1       2.158  -2.306  -0.350  0.00  0.00    -0.021 A 
ATOM      4  C   UNL     1       3.131  -3.004   0.345  0.00  0.00    +0.006 A 
ATOM      5  C   UNL     1       2.931  -4.328   0.682  0.00  0.00    +0.000 A 
ATOM      6  C   UNL     1       1.755  -4.960   0.324  0.00  0.00    +0.000 A 
ATOM      7  C   UNL     1       0.783  -4.267  -0.369  0.00  0.00    +0.004 A 
ATOM      8  C   UNL     1       0.981  -2.938  -0.708  0.00  0.00    -0.034 A 
ATOM      9  C   UNL     1       0.087  -1.967  -1.452  0.00  0.00    +0.021 C 
ATOM     10  C   UNL     1      -1.352  -2.074  -0.955  0.00  0.00    -0.005 C 
ATOM     11  C   UNL     1      -2.237  -1.117  -1.756  0.00  0.00    -0.078 C 
ATOM     12  N   UNL     1      -2.167  -1.460  -3.182  0.00  0.00    +0.380 N 
ATOM     13  C   UNL     1      -0.798  -1.266  -3.675  0.00  0.00    -0.078 C 
ATOM     14  C   UNL     1       0.148  -2.230  -2.955  0.00  0.00    -0.005 C 
ATOM     15  H   UNL     1      -2.435  -2.424  -3.308  0.00  0.00    -0.082 HD
ENDROOT
BRANCH   2  16
ATOM     16  N   UNL     1       2.944  -0.727  -2.045  0.00  0.00    -0.305 N 
ATOM     17  C   UNL     1       4.258  -0.443  -1.949  0.00  0.00    +0.223 C 
ATOM     18  O   UNL     1       4.771  -0.306  -0.859  0.00  0.00    -0.275 OA
ATOM     19  H   UNL     1       2.534  -0.836  -2.917  0.00  0.00    +0.149 HD
BRANCH  17  20
ATOM     20  C   UNL     1       5.090  -0.294  -3.197  0.00  0.00    +0.164 C 
BRANCH  20  21
ATOM     21  S   UNL     1       6.804   0.084  -2.740  0.00  0.00    -0.155 S 
ATOM     22  C   UNL     1       7.661   0.230  -4.332  0.00  0.00    +0.085 C 
ENDBRANCH  20  21
ENDBRANCH  17  20
ENDBRANCH   2  16
BRANCH   1  24
ATOM     23  C   UNL     1      -0.017   1.425   0.010  0.00  0.00    +0.194 C 
ATOM     24  O   UNL     1       0.002  -0.004   0.002  0.00  0.00    -0.377 OA
ENDBRANCH   1  24
BRANCH  12  25
ATOM     25  C   UNL     1      -3.085  -0.597  -3.938  0.00  0.00    -0.063 C 
BRANCH  25  26
ATOM     26  C   UNL     1      -3.106  -1.035  -5.403  0.00  0.00    +0.066 C 
ATOM     27  C   UNL     1      -3.768  -2.391  -5.546  0.00  0.00    +0.115 C 
ATOM     28  N   UNL     1      -4.805  -2.207  -6.297  0.00  0.00    -0.161 NA
ATOM     29  N   UNL     1      -4.946  -0.881  -6.696  0.00  0.00    -0.153 NA
ATOM     30  C   UNL     1      -3.994  -0.118  -6.222  0.00  0.00    +0.077 C 
BRANCH  30  31
ATOM     31  C   UNL     1      -3.821   1.327  -6.435  0.00  0.00    -0.001 A 
ATOM     32  C   UNL     1      -2.739   1.998  -5.856  0.00  0.00    +0.012 A 
ATOM     33  C   UNL     1      -2.582   3.351  -6.060  0.00  0.00    +0.039 A 
ATOM     34  C   UNL     1      -3.494   4.048  -6.838  0.00  0.00    +0.123 A 
ATOM     35  C   UNL     1      -4.569   3.389  -7.415  0.00  0.00    +0.039 A 
ATOM     36  C   UNL     1      -4.734   2.035  -7.223  0.00  0.00    +0.012 A 
ATOM     37  F   UNL     1      -3.336   5.376  -7.034  0.00  0.00    -0.205 F 
ENDBRANCH  30  31
ENDBRANCH  25  26
ENDBRANCH  12  25
TORSDOF 7
