REMARK  Name = ZINC05307586
REMARK  8 active torsions:
REMARK  status: ('A' for Active; 'I' for Inactive)
REMARK    1  A    between atoms: C_1  and  O_2
REMARK    2  A    between atoms: O_2  and  C_3
REMARK    3  A    between atoms: C_5  and  C_15
REMARK    4  A    between atoms: C_8  and  O_9
REMARK    5  A    between atoms: O_9  and  C_10
REMARK    6  A    between atoms: C_10  and  C_11
REMARK    7  A    between atoms: C_15  and  N_52
REMARK    8  A    between atoms: C_16  and  N_52
REMARK                            x       y       z     vdW  Elec       q    Type
REMARK                         _______ _______ _______ _____ _____    ______ ____
ROOT
ATOM      1  C   UNL     1       1.178   1.785   0.000  0.00  0.00    +0.163 A 
ATOM      2  C   UNL     1      -0.013   1.076   0.008  0.00  0.00    +0.051 A 
ATOM      3  C   UNL     1      -1.219   1.750   0.017  0.00  0.00    -0.059 A 
ATOM      4  C   UNL     1      -1.242   3.133   0.030  0.00  0.00    +0.025 A 
ATOM      5  C   UNL     1      -0.057   3.847   0.022  0.00  0.00    +0.086 A 
ATOM      6  C   UNL     1       1.156   3.176   0.008  0.00  0.00    +0.181 A 
ATOM      7 CL   UNL     1      -0.089   5.582   0.031  0.00  0.00    -0.080 Cl
ENDROOT
BRANCH   1   9
ATOM      8  C   UNL     1       2.312  -0.306  -0.022  0.00  0.00    +0.277 C 
ATOM      9  O   UNL     1       2.366   1.122  -0.015  0.00  0.00    -0.491 OA
ENDBRANCH   1   9
BRANCH   6  10
ATOM     10  O   UNL     1       2.323   3.876   0.001  0.00  0.00    -0.478 OA
BRANCH  10  11
ATOM     11  C   UNL     1       2.867   4.216  -1.276  0.00  0.00    +0.324 C 
BRANCH  11  12
ATOM     12  C   UNL     1       4.150   4.984  -1.086  0.00  0.00    +0.248 C 
ATOM     13  O   UNL     1       4.558   5.217   0.032  0.00  0.00    -0.272 OA
ATOM     14  N   UNL     1       4.844   5.412  -2.159  0.00  0.00    -0.327 N 
ATOM     15  H   UNL     1       4.518   5.226  -3.053  0.00  0.00    +0.145 HD
ATOM     16  H   UNL     1       5.670   5.907  -2.037  0.00  0.00    +0.145 HD
ENDBRANCH  11  12
ENDBRANCH  10  11
ENDBRANCH   6  10
BRANCH   3  17
ATOM     17  C   UNL     1      -2.513   0.977   0.019  0.00  0.00    -0.046 C 
BRANCH  17  18
ATOM     18  N   UNL     1      -2.921   0.722   1.413  0.00  0.00    +0.384 N 
ATOM     19  H   UNL     1      -3.050   1.618   1.898  0.00  0.00    -0.085 HD
ATOM     20  H   UNL     1      -2.189   0.178   1.887  0.00  0.00    -0.085 HD
BRANCH  18  21
ATOM     21  C   UNL     1      -4.187  -0.035   1.446  0.00  0.00    -0.065 C 
ATOM     22  C   UNL     1      -5.365   0.936   1.345  0.00  0.00    -0.024 C 
ATOM     23  C   UNL     1      -6.678   0.151   1.387  0.00  0.00    +0.005 C 
ATOM     24  C   UNL     1      -6.766  -0.623   2.704  0.00  0.00    -0.010 C 
ATOM     25  C   UNL     1      -6.721   0.358   3.877  0.00  0.00    +0.007 C 
ATOM     26  C   UNL     1      -5.408   1.143   3.834  0.00  0.00    -0.010 C 
ATOM     27  C   UNL     1      -5.319   1.917   2.517  0.00  0.00    +0.005 C 
ATOM     28  C   UNL     1      -4.230   0.172   3.935  0.00  0.00    +0.005 C 
ATOM     29  C   UNL     1      -4.275  -0.809   2.763  0.00  0.00    -0.024 C 
ATOM     30  C   UNL     1      -5.588  -1.594   2.805  0.00  0.00    +0.005 C 
ENDBRANCH  18  21
ENDBRANCH  17  18
ENDBRANCH   3  17
TORSDOF 7
