REMARK  Name = ZINC36408730
REMARK  7 active torsions:
REMARK  status: ('A' for Active; 'I' for Inactive)
REMARK    1  A    between atoms: C_5  and  C_7
REMARK    2  A    between atoms: C_7  and  C_8
REMARK    3  A    between atoms: C_12  and  C_15
REMARK    4  A    between atoms: N_17  and  C_18
REMARK    5  A    between atoms: C_18  and  C_19
REMARK    6  A    between atoms: C_19  and  C_20
REMARK    7  A    between atoms: C_19  and  N_27
REMARK                            x       y       z     vdW  Elec       q    Type
REMARK                         _______ _______ _______ _____ _____    ______ ____
ROOT
ATOM      1  C   UNL     1       2.674  -5.445   4.924  0.00  0.00    +0.234 C 
ATOM      2  O   UNL     1       1.708  -5.982   5.423  0.00  0.00    -0.274 OA
ATOM      3  N   UNL     1       3.917  -5.824   5.282  0.00  0.00    -0.315 N 
ATOM      4  H   UNL     1       4.689  -5.394   4.883  0.00  0.00    +0.149 HD
ENDROOT
BRANCH   1   9
ATOM      5  C   UNL     1       0.515  -2.030   3.118  0.00  0.00    +0.136 C 
ATOM      6  C   UNL     1       0.322  -3.511   2.955  0.00  0.00    +0.227 C 
ATOM      7  O   UNL     1      -0.695  -3.873   2.404  0.00  0.00    -0.275 OA
ATOM      8  N   UNL     1       1.152  -4.454   3.352  0.00  0.00    -0.302 N 
ATOM      9  C   UNL     1       2.484  -4.353   3.902  0.00  0.00    +0.169 C 
ATOM     10  C   UNL     1       2.742  -3.002   4.569  0.00  0.00    +0.101 C 
ATOM     11  S   UNL     1       2.281  -1.692   3.390  0.00  0.00    -0.145 S 
ATOM     12  H   UNL     1       0.815  -5.359   3.261  0.00  0.00    +0.150 HD
BRANCH   5  13
ATOM     13  C   UNL     1       0.044  -1.310   1.853  0.00  0.00    +0.061 C 
BRANCH  13  18
ATOM     14  C   UNL     1      -0.888   2.257   2.667  0.00  0.00    +0.000 A 
ATOM     15  C   UNL     1       0.306   2.915   2.437  0.00  0.00    +0.003 A 
ATOM     16  C   UNL     1       1.416   2.207   2.018  0.00  0.00    +0.038 A 
ATOM     17  C   UNL     1       1.332   0.838   1.829  0.00  0.00    +0.127 A 
ATOM     18  C   UNL     1       0.136   0.180   2.059  0.00  0.00    -0.011 A 
ATOM     19  C   UNL     1      -0.973   0.890   2.478  0.00  0.00    +0.006 A 
ATOM     20  F   UNL     1       2.417   0.145   1.419  0.00  0.00    -0.205 F 
ENDBRANCH  13  18
ENDBRANCH   5  13
ENDBRANCH   1   9
BRANCH   3  21
ATOM     21  C   UNL     1       4.101  -6.885   6.275  0.00  0.00    +0.093 C 
BRANCH  21  22
ATOM     22  C   UNL     1       5.590  -7.031   6.595  0.00  0.00    -0.019 C 
BRANCH  22  23
ATOM     23  C   UNL     1       6.324  -7.502   5.365  0.00  0.00    -0.041 A 
ATOM     24  C   UNL     1       7.023  -6.598   4.588  0.00  0.00    +0.003 A 
ATOM     25  C   UNL     1       7.695  -7.029   3.461  0.00  0.00    +0.000 A 
ATOM     26  C   UNL     1       7.669  -8.366   3.109  0.00  0.00    +0.001 A 
ATOM     27  C   UNL     1       6.971  -9.272   3.885  0.00  0.00    +0.020 A 
ATOM     28  C   UNL     1       6.302  -8.841   5.017  0.00  0.00    +0.043 A 
ATOM     29 CL   UNL     1       5.429  -9.979   5.996  0.00  0.00    -0.083 Cl
ENDBRANCH  22  23
BRANCH  22  30
ATOM     30  N   UNL     1       6.130  -5.733   7.019  0.00  0.00    +0.385 N 
ATOM     31  C   UNL     1       5.395  -5.238   8.212  0.00  0.00    -0.078 C 
ATOM     32  C   UNL     1       6.388  -4.232   8.848  0.00  0.00    -0.020 C 
ATOM     33  C   UNL     1       7.759  -4.910   8.621  0.00  0.00    -0.020 C 
ATOM     34  C   UNL     1       7.538  -5.881   7.447  0.00  0.00    -0.078 C 
ATOM     35  H   UNL     1       6.063  -5.065   6.266  0.00  0.00    -0.081 HD
ENDBRANCH  22  30
ENDBRANCH  21  22
ENDBRANCH   3  21
TORSDOF 7
