REMARK  Name = ZINC39683898
REMARK  9 active torsions:
REMARK  status: ('A' for Active; 'I' for Inactive)
REMARK    1  A    between atoms: C_1  and  C_2
REMARK    2  A    between atoms: C_2  and  O_3
REMARK    3  A    between atoms: O_3  and  C_4
REMARK    4  A    between atoms: C_9  and  C_10
REMARK    5  A    between atoms: C_14  and  C_23
REMARK    6  A    between atoms: N_25  and  C_26
REMARK    7  A    between atoms: C_26  and  C_28
REMARK    8  A    between atoms: C_26  and  C_29
REMARK    9  A    between atoms: N_31  and  C_32
REMARK                            x       y       z     vdW  Elec       q    Type
REMARK                         _______ _______ _______ _____ _____    ______ ____
ROOT
ATOM      1  C   UNL     1      -4.125  -1.297   0.126  0.00  0.00    +0.250 C 
ATOM      2  O   UNL     1      -4.086  -0.087   0.245  0.00  0.00    -0.270 OA
ATOM      3  N   UNL     1      -5.311  -1.924  -0.001  0.00  0.00    -0.296 N 
ATOM      4  C   UNL     1      -5.567  -3.382  -0.048  0.00  0.00    +0.121 C 
ATOM      5  C   UNL     1      -6.862  -3.579   0.772  0.00  0.00    +0.100 C 
ATOM      6  C   UNL     1      -7.572  -2.216   0.717  0.00  0.00    -0.004 C 
ATOM      7  C   UNL     1      -6.656  -1.310  -0.118  0.00  0.00    +0.115 C 
ATOM      8  C   UNL     1      -7.729  -1.645   2.123  0.00  0.00    -0.010 C 
ATOM      9  C   UNL     1      -8.489  -0.317   2.047  0.00  0.00    -0.082 C 
ATOM     10  N   UNL     1      -9.805  -0.538   1.437  0.00  0.00    +0.379 N 
ATOM     11  C   UNL     1      -9.644  -0.999   0.052  0.00  0.00    -0.082 C 
ATOM     12  C   UNL     1      -8.934  -2.356   0.044  0.00  0.00    -0.010 C 
ATOM     13  H   UNL     1     -10.307  -1.235   1.966  0.00  0.00    -0.086 HD
ATOM     14  H   UNL     1     -10.327   0.326   1.443  0.00  0.00    -0.086 HD
ENDROOT
BRANCH   1  20
ATOM     15  C   UNL     1      -1.784  -1.668   0.900  0.00  0.00    +0.133 A 
ATOM     16  C   UNL     1      -0.614  -2.413   0.892  0.00  0.00    +0.046 A 
ATOM     17  C   UNL     1      -0.523  -3.551   0.115  0.00  0.00    +0.004 A 
ATOM     18  C   UNL     1      -1.597  -3.956  -0.661  0.00  0.00    +0.001 A 
ATOM     19  C   UNL     1      -2.767  -3.228  -0.665  0.00  0.00    +0.017 A 
ATOM     20  C   UNL     1      -2.874  -2.078   0.121  0.00  0.00    +0.078 A 
BRANCH  15  21
ATOM     21  O   UNL     1      -1.873  -0.550   1.663  0.00  0.00    -0.491 OA
BRANCH  21  23
ATOM     22  C   UNL     1      -1.011   1.085   3.220  0.00  0.00    +0.048 C 
ATOM     23  C   UNL     1      -0.722  -0.194   2.430  0.00  0.00    +0.226 C 
ENDBRANCH  21  23
ENDBRANCH  15  21
ENDBRANCH   1  20
BRANCH   5  24
ATOM     24  C   UNL     1      -6.530  -3.943   2.196  0.00  0.00    +0.219 C 
ATOM     25  O   UNL     1      -5.508  -3.534   2.704  0.00  0.00    -0.275 OA
ATOM     26  N   UNL     1      -7.370  -4.723   2.905  0.00  0.00    -0.304 N 
ATOM     27  H   UNL     1      -8.188  -5.050   2.499  0.00  0.00    +0.149 HD
BRANCH  26  28
ATOM     28  C   UNL     1      -7.048  -5.077   4.290  0.00  0.00    +0.156 C 
ATOM     29  C   UNL     1      -7.526  -3.964   5.225  0.00  0.00    +0.038 C 
BRANCH  28  30
ATOM     30  C   UNL     1      -7.736  -6.368   4.652  0.00  0.00    +0.233 C 
ATOM     31  O   UNL     1      -8.428  -6.936   3.834  0.00  0.00    -0.274 OA
ATOM     32  N   UNL     1      -7.583  -6.891   5.885  0.00  0.00    -0.317 N 
ATOM     33  C   UNL     1      -8.252  -8.145   6.236  0.00  0.00    +0.128 C 
ATOM     34  H   UNL     1      -7.030  -6.436   6.539  0.00  0.00    +0.148 HD
ENDBRANCH  28  30
ENDBRANCH  26  28
ENDBRANCH   5  24
TORSDOF 6
