REMARK  Name = ZINC10818186
REMARK  11 active torsions:
REMARK  status: ('A' for Active; 'I' for Inactive)
REMARK    1  A    between atoms: C_1  and  C_2
REMARK    2  A    between atoms: C_3  and  C_13
REMARK    3  A    between atoms: C_4  and  C_12
REMARK    4  A    between atoms: C_9  and  C_10
REMARK    5  A    between atoms: C_13  and  C_14
REMARK    6  A    between atoms: C_14  and  C_15
REMARK    7  A    between atoms: N_17  and  C_18
REMARK    8  A    between atoms: C_20  and  C_25
REMARK    9  A    between atoms: C_20  and  C_26
REMARK   10  A    between atoms: C_21  and  C_23
REMARK   11  A    between atoms: C_21  and  C_24
REMARK                            x       y       z     vdW  Elec       q    Type
REMARK                         _______ _______ _______ _____ _____    ______ ____
ROOT
ATOM      1  C   UNL     1       4.172   5.318   1.426  0.00  0.00    +0.214 C 
ATOM      2  O   UNL     1       4.626   5.725   0.378  0.00  0.00    -0.276 OA
ATOM      3  N   UNL     1       4.808   5.587   2.584  0.00  0.00    -0.313 N 
ATOM      4  H   UNL     1       4.445   5.261   3.423  0.00  0.00    +0.149 HD
ENDROOT
BRANCH   3   5
ATOM      5  C   UNL     1       6.048   6.372   2.576  0.00  0.00    +0.070 C 
ATOM      6  C   UNL     1       7.235   5.436   2.345  0.00  0.00    +0.009 C 
ATOM      7  C   UNL     1       8.543   6.223   2.354  0.00  0.00    -0.072 C 
ATOM      8  C   UNL     1       7.518   7.859   3.961  0.00  0.00    -0.072 C 
ATOM      9  C   UNL     1       6.223   7.051   3.934  0.00  0.00    +0.009 C 
ATOM     10  C   UNL     1       7.336   9.147   3.149  0.00  0.00    -0.010 C 
ATOM     11  C   UNL     1       7.776   8.275   5.426  0.00  0.00    -0.010 C 
ATOM     12  C   UNL     1       8.684   6.998   1.039  0.00  0.00    -0.010 C 
ATOM     13  C   UNL     1       9.700   5.201   2.410  0.00  0.00    -0.010 C 
ATOM     14  N   UNL     1       8.731   7.112   3.532  0.00  0.00    +0.386 N 
ATOM     15  H   UNL     1       9.460   7.797   3.301  0.00  0.00    -0.084 HD
ATOM     16  H   UNL     1       9.043   6.533   4.321  0.00  0.00    -0.084 HD
ENDBRANCH   3   5
BRANCH   1  17
ATOM     17  C   UNL     1       2.899   4.512   1.435  0.00  0.00    +0.100 C 
BRANCH  17  18
ATOM     18  C   UNL     1       2.387   4.353   0.002  0.00  0.00    +0.046 C 
BRANCH  18  21
ATOM     19  C   UNL     1       2.501   1.442  -0.013  0.00  0.00    +0.045 C 
ATOM     20  C   UNL     1       1.172   2.153   0.002  0.00  0.00    -0.023 A 
ATOM     21  C   UNL     1       1.113   3.547   0.010  0.00  0.00    -0.024 A 
ATOM     22  C   UNL     1      -0.087   4.178   0.024  0.00  0.00    +0.019 A 
ATOM     23  N   UNL     1      -1.248   3.480   0.032  0.00  0.00    -0.325 N 
ATOM     24  H   UNL     1      -2.093   3.957   0.042  0.00  0.00    +0.169 HD
ATOM     25  C   UNL     1      -1.249   2.133   0.019  0.00  0.00    +0.267 A 
ATOM     26  O   UNL     1      -2.304   1.522   0.021  0.00  0.00    -0.266 OA
ATOM     27  C   UNL     1      -0.017   1.428   0.010  0.00  0.00    +0.119 A 
ATOM     28  C   UNL     1      -0.131   5.685   0.033  0.00  0.00    +0.063 C 
BRANCH  27  29
ATOM     29  C   UNL     1       0.002  -0.004   0.002  0.00  0.00    +0.105 C 
ATOM     30  N   UNL     1       0.018  -1.140  -0.004  0.00  0.00    -0.191 NA
ENDBRANCH  27  29
ENDBRANCH  18  21
ENDBRANCH  17  18
ENDBRANCH   1  17
TORSDOF 5
