REMARK  Name = ZINC39665690
REMARK  12 active torsions:
REMARK  status: ('A' for Active; 'I' for Inactive)
REMARK    1  A    between atoms: C_1  and  C_2
REMARK    2  A    between atoms: C_2  and  O_3
REMARK    3  A    between atoms: O_3  and  C_4
REMARK    4  A    between atoms: C_9  and  C_10
REMARK    5  A    between atoms: C_14  and  C_23
REMARK    6  A    between atoms: N_25  and  C_26
REMARK    7  A    between atoms: C_26  and  C_27
REMARK    8  A    between atoms: C_27  and  C_29
REMARK    9  A    between atoms: C_27  and  O_30
REMARK   10  A    between atoms: O_30  and  C_31
REMARK   11  A    between atoms: C_34  and  O_37
REMARK   12  A    between atoms: O_37  and  C_38
REMARK                            x       y       z     vdW  Elec       q    Type
REMARK                         _______ _______ _______ _____ _____    ______ ____
ROOT
ATOM      1  C   UNL     1      -4.196  -1.231  -0.175  0.00  0.00    +0.250 C 
ATOM      2  O   UNL     1      -4.117  -0.018  -0.135  0.00  0.00    -0.270 OA
ATOM      3  N   UNL     1      -5.404  -1.825  -0.246  0.00  0.00    -0.296 N 
ATOM      4  C   UNL     1      -5.706  -3.275  -0.199  0.00  0.00    +0.121 C 
ATOM      5  C   UNL     1      -6.993  -3.377   0.651  0.00  0.00    +0.100 C 
ATOM      6  C   UNL     1      -7.660  -1.998   0.519  0.00  0.00    -0.004 C 
ATOM      7  C   UNL     1      -6.729  -1.176  -0.384  0.00  0.00    +0.115 C 
ATOM      8  C   UNL     1      -9.037  -2.136  -0.125  0.00  0.00    -0.010 C 
ATOM      9  C   UNL     1      -9.704  -0.760  -0.191  0.00  0.00    -0.082 C 
ATOM     10  N   UNL     1      -9.829  -0.208   1.163  0.00  0.00    +0.379 N 
ATOM     11  C   UNL     1      -8.497   0.008   1.740  0.00  0.00    -0.082 C 
ATOM     12  C   UNL     1      -7.778  -1.336   1.889  0.00  0.00    -0.010 C 
ATOM     13  H   UNL     1     -10.323   0.671   1.123  0.00  0.00    -0.086 HD
ATOM     14  H   UNL     1     -10.344  -0.854   1.742  0.00  0.00    -0.086 HD
ENDROOT
BRANCH   1  20
ATOM     15  C   UNL     1      -1.863  -1.637   0.605  0.00  0.00    +0.133 A 
ATOM     16  C   UNL     1      -0.717  -2.420   0.629  0.00  0.00    +0.046 A 
ATOM     17  C   UNL     1      -0.668  -3.597  -0.090  0.00  0.00    +0.004 A 
ATOM     18  C   UNL     1      -1.759  -4.007  -0.839  0.00  0.00    +0.001 A 
ATOM     19  C   UNL     1      -2.905  -3.242  -0.874  0.00  0.00    +0.017 A 
ATOM     20  C   UNL     1      -2.970  -2.051  -0.147  0.00  0.00    +0.078 A 
BRANCH  15  21
ATOM     21  O   UNL     1      -1.912  -0.480   1.311  0.00  0.00    -0.491 OA
BRANCH  21  23
ATOM     22  C   UNL     1      -0.987   1.203   2.778  0.00  0.00    +0.048 C 
ATOM     23  C   UNL     1      -0.745  -0.122   2.053  0.00  0.00    +0.226 C 
ENDBRANCH  21  23
ENDBRANCH  15  21
ENDBRANCH   1  20
BRANCH   5  24
ATOM     24  C   UNL     1      -7.896  -4.454   0.107  0.00  0.00    +0.218 C 
ATOM     25  O   UNL     1      -7.839  -4.758  -1.066  0.00  0.00    -0.275 OA
ATOM     26  N   UNL     1      -8.768  -5.079   0.923  0.00  0.00    -0.312 N 
ATOM     27  H   UNL     1      -8.814  -4.835   1.861  0.00  0.00    +0.149 HD
BRANCH  26  28
ATOM     28  C   UNL     1      -9.646  -6.125   0.395  0.00  0.00    +0.148 C 
BRANCH  28  29
ATOM     29  C   UNL     1     -10.530  -6.666   1.520  0.00  0.00    +0.187 C 
ATOM     30  C   UNL     1     -11.357  -7.843   0.999  0.00  0.00    +0.053 C 
BRANCH  29  31
ATOM     31  O   UNL     1     -11.405  -5.633   1.977  0.00  0.00    -0.488 OA
BRANCH  31  32
ATOM     32  C   UNL     1     -11.889  -5.750   3.243  0.00  0.00    +0.121 A 
ATOM     33  C   UNL     1     -12.783  -4.809   3.732  0.00  0.00    +0.049 A 
ATOM     34  C   UNL     1     -13.275  -4.927   5.018  0.00  0.00    +0.049 A 
ATOM     35  C   UNL     1     -12.875  -5.986   5.819  0.00  0.00    +0.120 A 
ATOM     36  C   UNL     1     -11.981  -6.927   5.329  0.00  0.00    +0.049 A 
ATOM     37  C   UNL     1     -11.493  -6.811   4.042  0.00  0.00    +0.049 A 
BRANCH  35  38
ATOM     38  O   UNL     1     -13.358  -6.101   7.085  0.00  0.00    -0.495 OA
ATOM     39  C   UNL     1     -12.903  -7.217   7.854  0.00  0.00    +0.277 C 
ENDBRANCH  35  38
ENDBRANCH  31  32
ENDBRANCH  29  31
ENDBRANCH  28  29
ENDBRANCH  26  28
ENDBRANCH   5  24
TORSDOF 9
