REMARK  Name = ZINC19753485
REMARK  7 active torsions:
REMARK  status: ('A' for Active; 'I' for Inactive)
REMARK    1  A    between atoms: C_3  and  C_9
REMARK    2  A    between atoms: C_6  and  C_7
REMARK    3  A    between atoms: C_7  and  N_8
REMARK    4  A    between atoms: N_17  and  C_18
REMARK    5  A    between atoms: C_18  and  C_19
REMARK    6  A    between atoms: C_19  and  C_20
REMARK    7  A    between atoms: C_20  and  O_21
REMARK                            x       y       z     vdW  Elec       q    Type
REMARK                         _______ _______ _______ _____ _____    ______ ____
ROOT
ATOM      1  C   UNL     1       0.060   1.479  -0.008  0.00  0.00    +0.142 A 
ATOM      2  N   UNL     1      -1.069   2.144  -0.015  0.00  0.00    -0.227 NA
ATOM      3  C   UNL     1      -0.814   3.475   0.022  0.00  0.00    +0.093 A 
ATOM      4  C   UNL     1      -1.634   4.608   0.034  0.00  0.00    +0.079 A 
ATOM      5  C   UNL     1      -1.069   5.867   0.071  0.00  0.00    +0.164 A 
ATOM      6  C   UNL     1       0.318   6.016   0.098  0.00  0.00    +0.164 A 
ATOM      7  C   UNL     1       1.138   4.901   0.086  0.00  0.00    +0.077 A 
ATOM      8  C   UNL     1       0.582   3.630   0.048  0.00  0.00    +0.073 A 
ATOM      9  N   UNL     1       1.113   2.354   0.027  0.00  0.00    -0.323 N 
ATOM     10  O   UNL     1       0.884   7.254   0.143  0.00  0.00    -0.485 OA
ATOM     11  C   UNL     1       0.048   8.357  -0.222  0.00  0.00    +0.270 C 
ATOM     12  C   UNL     1      -1.300   8.197   0.494  0.00  0.00    +0.270 C 
ATOM     13  O   UNL     1      -1.885   6.959   0.076  0.00  0.00    -0.485 OA
ENDROOT
BRANCH   1  16
ATOM     14  C   UNL     1       1.468  -1.969  -0.500  0.00  0.00    +0.002 A 
ATOM     15  C   UNL     1       1.363  -0.593  -0.474  0.00  0.00    +0.012 A 
ATOM     16  C   UNL     1       0.179   0.005  -0.039  0.00  0.00    +0.017 A 
ATOM     17  C   UNL     1      -0.889  -0.793   0.372  0.00  0.00    +0.012 A 
ATOM     18  C   UNL     1      -0.773  -2.168   0.336  0.00  0.00    +0.002 A 
ATOM     19  C   UNL     1       0.403  -2.755  -0.096  0.00  0.00    -0.065 A 
BRANCH  19  20
ATOM     20  C   UNL     1       0.525  -4.256  -0.127  0.00  0.00    -0.051 C 
BRANCH  20  21
ATOM     21  N   UNL     1       1.048  -4.732   1.161  0.00  0.00    +0.381 N 
ATOM     22  H   UNL     1       1.137  -5.828   1.139  0.00  0.00    -0.090 HD
ATOM     23  H   UNL     1       0.360  -4.436   1.967  0.00  0.00    -0.090 HD
ATOM     24  H   UNL     1       2.038  -4.287   1.342  0.00  0.00    -0.090 HD
ENDBRANCH  20  21
ENDBRANCH  19  20
ENDBRANCH   1  16
BRANCH   9  25
ATOM     25  C   UNL     1       2.535   2.003   0.040  0.00  0.00    +0.126 C 
BRANCH  25  26
ATOM     26  C   UNL     1       3.078   2.021  -1.390  0.00  0.00    +0.049 C 
BRANCH  26  27
ATOM     27  C   UNL     1       4.564   1.654  -1.376  0.00  0.00    +0.157 C 
BRANCH  27  28
ATOM     28  O   UNL     1       5.071   1.671  -2.712  0.00  0.00    -0.395 OA
ATOM     29  H   UNL     1       6.128   1.432  -2.902  0.00  0.00    +0.209 HD
ENDBRANCH  27  28
ENDBRANCH  26  27
ENDBRANCH  25  26
ENDBRANCH   9  25
TORSDOF 7
