REMARK  Name = ZINC35465754
REMARK  13 active torsions:
REMARK  status: ('A' for Active; 'I' for Inactive)
REMARK    1  A    between atoms: C_1  and  C_2
REMARK    2  A    between atoms: C_2  and  C_4
REMARK    3  A    between atoms: C_7  and  C_32
REMARK    4  A    between atoms: C_7  and  O_33
REMARK    5  A    between atoms: C_9  and  O_15
REMARK    6  A    between atoms: C_12  and  C_13
REMARK    7  A    between atoms: C_12  and  C_14
REMARK    8  A    between atoms: O_15  and  C_16
REMARK    9  A    between atoms: C_18  and  O_31
REMARK   10  A    between atoms: C_20  and  O_30
REMARK   11  A    between atoms: C_22  and  O_29
REMARK   12  A    between atoms: C_24  and  C_27
REMARK   13  A    between atoms: C_27  and  O_28
REMARK                            x       y       z     vdW  Elec       q    Type
REMARK                         _______ _______ _______ _____ _____    ______ ____
ROOT
ATOM      1  C   UNL     1      -1.368  -1.238   1.212  0.00  0.00    +0.097 C 
ATOM      2  C   UNL     1      -1.335  -2.440   0.698  0.00  0.00    -0.114 C 
ATOM      3  C   UNL     1      -1.301  -3.641   0.183  0.00  0.00    +0.009 C 
ATOM      4  C   UNL     1      -1.540  -4.861   1.045  0.00  0.00    +0.094 C 
ATOM      5  C   UNL     1      -2.616  -5.724   0.380  0.00  0.00    +0.071 C 
ATOM      6  C   UNL     1      -2.198  -6.040  -1.057  0.00  0.00    +0.125 C 
ATOM      7  C   UNL     1      -2.119  -4.747  -1.870  0.00  0.00    +0.043 C 
ATOM      8  C   UNL     1      -1.030  -3.846  -1.291  0.00  0.00    -0.001 C 
ATOM      9  C   UNL     1      -1.046  -2.495  -2.009  0.00  0.00    +0.016 C 
ATOM     10  C   UNL     1       0.335  -4.513  -1.474  0.00  0.00    +0.016 C 
ATOM     11  C   UNL     1      -0.243  -5.662   1.171  0.00  0.00    +0.047 C 
ENDROOT
BRANCH   1  13
ATOM     12  C   UNL     1      -0.243   0.721   2.306  0.00  0.00    +0.091 C 
ATOM     13  C   UNL     1      -0.204  -0.664   1.712  0.00  0.00    +0.161 C 
ATOM     14  O   UNL     1       0.844  -1.279   1.671  0.00  0.00    -0.292 OA
ENDBRANCH   1  13
BRANCH   4  15
ATOM     15  O   UNL     1      -1.984  -4.453   2.341  0.00  0.00    -0.384 OA
ATOM     16  H   UNL     1      -2.157  -5.187   2.946  0.00  0.00    +0.211 HD
ENDBRANCH   4  15
BRANCH   6  17
ATOM     17  O   UNL     1      -3.159  -6.915  -1.651  0.00  0.00    -0.345 OA
BRANCH  17  18
ATOM     18  C   UNL     1      -2.873  -8.303  -1.468  0.00  0.00    +0.282 C 
ATOM     19  C   UNL     1      -4.024  -9.140  -2.032  0.00  0.00    +0.201 C 
ATOM     20  C   UNL     1      -3.683 -10.626  -1.887  0.00  0.00    +0.179 C 
ATOM     21  C   UNL     1      -2.357 -10.906  -2.600  0.00  0.00    +0.177 C 
ATOM     22  C   UNL     1      -1.270 -10.001  -2.014  0.00  0.00    +0.178 C 
ATOM     23  O   UNL     1      -1.664  -8.634  -2.154  0.00  0.00    -0.341 OA
BRANCH  21  24
ATOM     24  O   UNL     1      -1.993 -12.275  -2.411  0.00  0.00    -0.386 OA
ATOM     25  H   UNL     1      -2.640 -12.906  -2.756  0.00  0.00    +0.210 HD
ENDBRANCH  21  24
BRANCH  20  26
ATOM     26  O   UNL     1      -4.720 -11.414  -2.475  0.00  0.00    -0.386 OA
ATOM     27  H   UNL     1      -5.590 -11.282  -2.075  0.00  0.00    +0.210 HD
ENDBRANCH  20  26
BRANCH  19  28
ATOM     28  O   UNL     1      -5.223  -8.851  -1.310  0.00  0.00    -0.384 OA
ATOM     29  H   UNL     1      -5.496  -7.925  -1.355  0.00  0.00    +0.210 HD
ENDBRANCH  19  28
BRANCH  22  30
ATOM     30  C   UNL     1       0.044 -10.232  -2.763  0.00  0.00    +0.190 C 
BRANCH  30  31
ATOM     31  O   UNL     1       1.085  -9.475  -2.142  0.00  0.00    -0.392 OA
ATOM     32  H   UNL     1       1.949  -9.573  -2.565  0.00  0.00    +0.210 HD
ENDBRANCH  30  31
ENDBRANCH  22  30
ENDBRANCH  17  18
ENDBRANCH   6  17
TORSDOF 9
