REMARK  Name = ZINC37243857
REMARK  4 active torsions:
REMARK  status: ('A' for Active; 'I' for Inactive)
REMARK    1  A    between atoms: C_9  and  C_11
REMARK    2  A    between atoms: N_13  and  C_14
REMARK    3  A    between atoms: C_14  and  C_15
REMARK    4  A    between atoms: C_15  and  N_16
REMARK                            x       y       z     vdW  Elec       q    Type
REMARK                         _______ _______ _______ _____ _____    ______ ____
ROOT
ATOM      1  C   UNL     1      -0.617   1.612   0.014  0.00  0.00    +0.000 C 
ATOM      2  C   UNL     1       0.742   2.257  -0.232  0.00  0.00    +0.002 C 
ATOM      3  C   UNL     1       1.207   2.973   1.048  0.00  0.00    +0.019 C 
ATOM      4  C   UNL     1       1.741   1.940   2.032  0.00  0.00    +0.108 C 
ATOM      5  N   UNL     1       0.614   1.177   2.588  0.00  0.00    -0.294 N 
ATOM      6  C   UNL     1       0.465  -0.226   2.240  0.00  0.00    +0.108 C 
ATOM      7  C   UNL     1       0.724  -0.382   0.736  0.00  0.00    +0.019 C 
ATOM      8  C   UNL     1      -0.509   0.077  -0.042  0.00  0.00    +0.002 C 
ATOM      9  C   UNL     1      -0.271   1.773   3.412  0.00  0.00    +0.301 C 
ATOM     10  O   UNL     1      -1.252   1.167   3.789  0.00  0.00    -0.265 OA
ENDROOT
BRANCH   9  11
ATOM     11  C   UNL     1      -0.044   3.180   3.862  0.00  0.00    +0.299 C 
ATOM     12  O   UNL     1       0.987   3.751   3.570  0.00  0.00    -0.265 OA
ATOM     13  N   UNL     1      -0.983   3.814   4.591  0.00  0.00    -0.309 N 
ATOM     14  H   UNL     1      -1.806   3.358   4.824  0.00  0.00    +0.149 HD
BRANCH  13  15
ATOM     15  C   UNL     1      -0.760   5.194   5.032  0.00  0.00    +0.085 C 
BRANCH  15  16
ATOM     16  C   UNL     1      -1.970   5.674   5.836  0.00  0.00    -0.067 C 
BRANCH  16  17
ATOM     17  N   UNL     1      -1.746   7.057   6.278  0.00  0.00    +0.379 N 
ATOM     18  H   UNL     1      -2.544   7.374   6.808  0.00  0.00    -0.090 HD
ATOM     19  H   UNL     1      -0.921   7.096   6.856  0.00  0.00    -0.090 HD
ATOM     20  H   UNL     1      -1.621   7.651   5.472  0.00  0.00    -0.090 HD
ENDBRANCH  16  17
ENDBRANCH  15  16
ENDBRANCH  13  15
ENDBRANCH   9  11
TORSDOF 4
