REMARK  Name = ZINC59170577
REMARK  7 active torsions:
REMARK  status: ('A' for Active; 'I' for Inactive)
REMARK    1  A    between atoms: C_1  and  C_2
REMARK    2  A    between atoms: C_5  and  S_8
REMARK    3  A    between atoms: S_8  and  N_11
REMARK    4  A    between atoms: N_11  and  N_12
REMARK    5  A    between atoms: C_14  and  C_24
REMARK    6  A    between atoms: C_19  and  O_23
REMARK    7  A    between atoms: N_26  and  C_27
REMARK                            x       y       z     vdW  Elec       q    Type
REMARK                         _______ _______ _______ _____ _____    ______ ____
ROOT
ATOM      1  N   UNL     1       3.835  -6.428   1.651  0.00  0.00    -0.260 N 
ATOM      2  C   UNL     1       4.797  -5.878   0.966  0.00  0.00    +0.225 A 
ATOM      3  C   UNL     1       4.677  -5.680  -0.498  0.00  0.00    +0.099 A 
ATOM      4  C   UNL     1       5.400  -4.652  -1.056  0.00  0.00    +0.030 A 
ATOM      5  C   UNL     1       6.227  -3.838  -0.159  0.00  0.00    +0.018 A 
ATOM      6  C   UNL     1       6.772  -2.626  -0.597  0.00  0.00    +0.015 A 
ATOM      7  C   UNL     1       7.538  -1.879   0.254  0.00  0.00    +0.046 A 
ATOM      8  C   UNL     1       7.780  -2.316   1.553  0.00  0.00    +0.120 A 
ATOM      9  C   UNL     1       7.247  -3.517   2.002  0.00  0.00    +0.092 A 
ATOM     10  C   UNL     1       6.471  -4.284   1.153  0.00  0.00    +0.141 A 
ATOM     11  O   UNL     1       5.944  -5.459   1.574  0.00  0.00    -0.437 OA
ATOM     12  H   UNL     1       3.979  -6.674   2.578  0.00  0.00    +0.189 HD
ENDROOT
BRANCH   3  13
ATOM     13  C   UNL     1       3.819  -6.548  -1.320  0.00  0.00    +0.253 C 
ATOM     14  O   UNL     1       3.827  -7.752  -1.146  0.00  0.00    -0.270 OA
ATOM     15  N   UNL     1       3.025  -6.009  -2.266  0.00  0.00    -0.280 N 
ATOM     16  H   UNL     1       3.058  -5.056  -2.441  0.00  0.00    +0.155 HD
BRANCH  15  17
ATOM     17  C   UNL     1       2.153  -6.825  -2.995  0.00  0.00    +0.052 A 
ATOM     18  C   UNL     1       1.719  -8.031  -2.461  0.00  0.00    +0.025 A 
ATOM     19  C   UNL     1       0.859  -8.835  -3.183  0.00  0.00    +0.002 A 
ATOM     20  C   UNL     1       0.428  -8.438  -4.437  0.00  0.00    +0.002 A 
ATOM     21  C   UNL     1       0.857  -7.238  -4.971  0.00  0.00    +0.022 A 
ATOM     22  C   UNL     1       1.714  -6.426  -4.252  0.00  0.00    +0.062 A 
ATOM     23 CL   UNL     1       2.247  -4.915  -4.920  0.00  0.00    -0.082 Cl
ENDBRANCH  15  17
ENDBRANCH   3  13
BRANCH   1  24
ATOM     24  N   UNL     1       2.592  -6.665   1.048  0.00  0.00    -0.157 N 
ATOM     25  H   UNL     1       2.425  -6.356   0.144  0.00  0.00    +0.194 HD
BRANCH  24  26
ATOM     26  S   UNL     1       1.410  -7.473   1.880  0.00  0.00    +0.085 S 
ATOM     27  O   UNL     1       1.957  -8.733   2.243  0.00  0.00    -0.149 OA
ATOM     28  O   UNL     1       0.219  -7.352   1.113  0.00  0.00    -0.149 OA
BRANCH  26  33
ATOM     29  C   UNL     1       0.463  -4.459   7.021  0.00  0.00    +0.044 C 
ATOM     30  C   UNL     1       0.699  -5.212   5.737  0.00  0.00    -0.050 A 
ATOM     31  C   UNL     1      -0.027  -4.893   4.604  0.00  0.00    +0.005 A 
ATOM     32  C   UNL     1       0.191  -5.583   3.426  0.00  0.00    +0.029 A 
ATOM     33  C   UNL     1       1.134  -6.592   3.381  0.00  0.00    +0.110 A 
ATOM     34  C   UNL     1       1.861  -6.911   4.513  0.00  0.00    +0.029 A 
ATOM     35  C   UNL     1       1.647  -6.218   5.689  0.00  0.00    +0.005 A 
ENDBRANCH  26  33
ENDBRANCH  24  26
ENDBRANCH   1  24
BRANCH   8  36
ATOM     36  O   UNL     1       8.542  -1.563   2.387  0.00  0.00    -0.507 OA
ATOM     37  H   UNL     1       8.040  -0.920   2.905  0.00  0.00    +0.292 HD
ENDBRANCH   8  36
TORSDOF 6
