REMARK  Name = ZINC38546999
REMARK  8 active torsions:
REMARK  status: ('A' for Active; 'I' for Inactive)
REMARK    1  A    between atoms: C_1  and  C_2
REMARK    2  A    between atoms: N_8  and  C_9
REMARK    3  A    between atoms: C_9  and  C_11
REMARK    4  A    between atoms: C_9  and  C_21
REMARK    5  A    between atoms: C_14  and  C_17
REMARK    6  A    between atoms: C_23  and  C_34
REMARK    7  A    between atoms: C_25  and  N_26
REMARK    8  A    between atoms: C_27  and  C_29
REMARK                            x       y       z     vdW  Elec       q    Type
REMARK                         _______ _______ _______ _____ _____    ______ ____
ROOT
ATOM      1  C   UNL     1      -0.043  -2.200   3.637  0.00  0.00    +0.135 C 
ENDROOT
BRANCH   1   9
ATOM      2  C   UNL     1       3.401  -5.774   4.919  0.00  0.00    +0.044 C 
ATOM      3  C   UNL     1       2.500  -5.536   3.734  0.00  0.00    -0.046 A 
ATOM      4  C   UNL     1       2.476  -6.429   2.671  0.00  0.00    +0.021 A 
ATOM      5  C   UNL     1       1.639  -6.183   1.601  0.00  0.00    +0.084 A 
ATOM      6  N   UNL     1       0.866  -5.114   1.577  0.00  0.00    -0.350 N 
ATOM      7  C   UNL     1       0.861  -4.240   2.571  0.00  0.00    +0.097 A 
ATOM      8  C   UNL     1       1.675  -4.428   3.684  0.00  0.00    +0.045 A 
ATOM      9  N   UNL     1       0.030  -3.127   2.506  0.00  0.00    -0.320 N 
ATOM     10  H   UNL     1      -0.500  -2.964   1.710  0.00  0.00    +0.148 HD
ATOM     11  H   UNL     1       0.287  -4.965   0.813  0.00  0.00    +0.166 HD
ENDBRANCH   1   9
BRANCH   1  12
ATOM     12  C   UNL     1      -1.377  -1.497   3.626  0.00  0.00    -0.023 A 
ATOM     13  C   UNL     1      -1.875  -0.982   2.444  0.00  0.00    +0.006 A 
ATOM     14  C   UNL     1      -3.098  -0.337   2.433  0.00  0.00    +0.013 A 
ATOM     15  C   UNL     1      -3.823  -0.209   3.603  0.00  0.00    +0.055 A 
ATOM     16  C   UNL     1      -3.324  -0.726   4.785  0.00  0.00    +0.013 A 
ATOM     17  C   UNL     1      -2.103  -1.374   4.795  0.00  0.00    +0.006 A 
BRANCH  15  18
ATOM     18  C   UNL     1      -5.155   0.494   3.592  0.00  0.00    +0.417 C 
ATOM     19  F   UNL     1      -6.171  -0.435   3.341  0.00  0.00    -0.166 F 
ATOM     20  F   UNL     1      -5.374   1.100   4.834  0.00  0.00    -0.166 F 
ATOM     21  F   UNL     1      -5.159   1.471   2.590  0.00  0.00    -0.166 F 
ENDBRANCH  15  18
ENDBRANCH   1  12
BRANCH   1  22
ATOM     22  C   UNL     1       1.062  -1.182   3.525  0.00  0.00    +0.006 A 
ATOM     23  C   UNL     1       1.598  -0.857   2.292  0.00  0.00    +0.018 A 
ATOM     24  C   UNL     1       2.590   0.063   2.227  0.00  0.00    -0.011 A 
ATOM     25  S   UNL     1       2.801   0.507   3.943  0.00  0.00    -0.078 S 
ATOM     26  C   UNL     1       1.548  -0.560   4.636  0.00  0.00    +0.078 A 
ATOM     27  C   UNL     1       3.327   0.578   1.018  0.00  0.00    +0.051 C 
BRANCH  26  28
ATOM     28  N   UNL     1       1.166  -0.717   5.970  0.00  0.00    -0.273 N 
ATOM     29  C   UNL     1       1.776  -0.001   6.935  0.00  0.00    +0.284 C 
ATOM     30  O   UNL     1       2.660   0.784   6.643  0.00  0.00    -0.266 OA
ATOM     31  H   UNL     1       0.462  -1.343   6.202  0.00  0.00    +0.156 HD
BRANCH  29  32
ATOM     32  C   UNL     1       1.376  -0.166   8.335  0.00  0.00    +0.189 A 
ATOM     33  C   UNL     1       1.905   0.497   9.405  0.00  0.00    +0.054 A 
ATOM     34  C   UNL     1       1.228   0.032  10.544  0.00  0.00    +0.042 A 
ATOM     35  C   UNL     1       0.327  -0.883  10.124  0.00  0.00    +0.196 A 
ATOM     36  O   UNL     1       0.416  -0.997   8.793  0.00  0.00    -0.458 OA
ENDBRANCH  29  32
ENDBRANCH  26  28
ENDBRANCH   1  22
TORSDOF 6
