REMARK  Name = ZINC20383824
REMARK  3 active torsions:
REMARK  status: ('A' for Active; 'I' for Inactive)
REMARK    1  A    between atoms: C_3  and  N_8
REMARK    2  A    between atoms: C_6  and  N_7
REMARK    3  A    between atoms: N_8  and  C_9
REMARK                            x       y       z     vdW  Elec       q    Type
REMARK                         _______ _______ _______ _____ _____    ______ ____
ROOT
ATOM      1  N   UNL     1       2.393   1.117  -0.014  0.00  0.00    -0.328 N 
ATOM      2  H   UNL     1       3.338   1.680  -0.020  0.00  0.00    +0.148 HD
ENDROOT
BRANCH   1   3
ATOM      3  C   UNL     1       2.414  -0.348  -0.022  0.00  0.00    +0.058 C 
ATOM      4  C   UNL     1       2.325  -0.870   1.415  0.00  0.00    -0.056 C 
ATOM      5  N   UNL     1       3.522  -1.667   1.718  0.00  0.00    +0.381 N 
ATOM      6  C   UNL     1       3.612  -2.840   0.837  0.00  0.00    -0.078 C 
ATOM      7  C   UNL     1       3.737  -2.374  -0.616  0.00  0.00    -0.014 C 
ATOM      8  C   UNL     1       3.725  -0.840  -0.647  0.00  0.00    +0.004 C 
ATOM      9  C   UNL     1       4.896  -0.308   0.189  0.00  0.00    -0.014 C 
ATOM     10  C   UNL     1       4.738  -0.848   1.630  0.00  0.00    -0.078 C 
ATOM     11  H   UNL     1       3.431  -2.028   2.754  0.00  0.00    -0.082 HD
ENDBRANCH   1   3
BRANCH   1  14
ATOM     12  C   UNL     1      -1.215   1.760   0.017  0.00  0.00    +0.027 A 
ATOM     13  C   UNL     1      -0.013   1.076   0.008  0.00  0.00    +0.045 A 
ATOM     14  C   UNL     1       1.177   1.796   0.001  0.00  0.00    +0.119 A 
ATOM     15  N   UNL     1       1.167   3.119   0.008  0.00  0.00    -0.239 NA
ATOM     16  C   UNL     1       0.039   3.804   0.022  0.00  0.00    +0.135 A 
ATOM     17  C   UNL     1      -1.186   3.153   0.030  0.00  0.00    +0.043 A 
BRANCH  17  18
ATOM     18  N   UNL     1      -2.379   3.887   0.045  0.00  0.00    -0.357 N 
ATOM     19  H   UNL     1      -2.348   4.986   0.055  0.00  0.00    +0.142 HD
ATOM     20  H   UNL     1      -3.346   3.364   0.047  0.00  0.00    +0.142 HD
ENDBRANCH  17  18
ENDBRANCH   1  14
TORSDOF 3
