REMARK  Name = ZINC27549777
REMARK  12 active torsions:
REMARK  status: ('A' for Active; 'I' for Inactive)
REMARK    1  A    between atoms: C_1  and  C_2
REMARK    2  A    between atoms: C_2  and  C_3
REMARK    3  A    between atoms: C_9  and  C_10
REMARK    4  A    between atoms: C_12  and  O_29
REMARK    5  A    between atoms: C_13  and  O_17
REMARK    6  A    between atoms: O_17  and  C_18
REMARK    7  A    between atoms: C_18  and  C_19
REMARK    8  A    between atoms: C_19  and  O_20
REMARK    9  A    between atoms: O_20  and  C_21
REMARK   10  A    between atoms: C_23  and  C_28
REMARK   11  A    between atoms: C_25  and  C_27
REMARK   12  A    between atoms: O_29  and  C_30
REMARK                            x       y       z     vdW  Elec       q    Type
REMARK                         _______ _______ _______ _____ _____    ______ ____
ROOT
ATOM      1  C   UNL     1      -8.203  -1.070   1.687  0.00  0.00    -0.019 A 
ATOM      2  C   UNL     1      -9.344  -0.557   2.322  0.00  0.00    +0.057 A 
ATOM      3  C   UNL     1     -10.273  -1.421   2.865  0.00  0.00    +0.164 A 
ATOM      4  C   UNL     1     -10.079  -2.800   2.781  0.00  0.00    +0.180 A 
ATOM      5  C   UNL     1      -8.949  -3.310   2.152  0.00  0.00    +0.087 A 
ATOM      6  C   UNL     1      -8.017  -2.457   1.603  0.00  0.00    +0.032 A 
ATOM      7 CL   UNL     1      -8.714  -5.027   2.054  0.00  0.00    -0.080 Cl
ENDROOT
BRANCH   1  14
ATOM      8  C   UNL     1      -6.443   5.705   1.172  0.00  0.00    +0.100 C 
ATOM      9  N   UNL     1      -6.139   4.521   0.724  0.00  0.00    -0.169 NA
ATOM     10  N   UNL     1      -6.427   3.385   1.450  0.00  0.00    -0.152 N 
ATOM     11  C   UNL     1      -6.062   2.067   1.100  0.00  0.00    +0.152 C 
ATOM     12  N   UNL     1      -5.073   1.786   0.294  0.00  0.00    -0.283 NA
ATOM     13  C   UNL     1      -6.917   1.028   1.741  0.00  0.00    +0.081 C 
ATOM     14  C   UNL     1      -7.213  -0.159   1.109  0.00  0.00    +0.024 C 
ATOM     15  C   UNL     1      -7.431   1.341   3.097  0.00  0.00    +0.273 C 
ATOM     16  O   UNL     1      -7.732   0.450   3.876  0.00  0.00    -0.268 OA
ATOM     17  N   UNL     1      -7.557   2.636   3.444  0.00  0.00    -0.152 NA
ATOM     18  C   UNL     1      -7.107   3.563   2.636  0.00  0.00    +0.181 C 
ATOM     19  S   UNL     1      -7.207   5.330   2.744  0.00  0.00    -0.038 S 
ATOM     20  H   UNL     1      -4.547   2.502  -0.097  0.00  0.00    +0.188 HD
BRANCH   8  22
ATOM     21  C   UNL     1      -5.515   6.855  -0.819  0.00  0.00    +0.011 C 
ATOM     22  C   UNL     1      -6.205   7.049   0.533  0.00  0.00    +0.061 C 
ENDBRANCH   8  22
ENDBRANCH   1  14
BRANCH   3  23
ATOM     23  O   UNL     1     -11.380  -0.927   3.482  0.00  0.00    -0.491 OA
ATOM     24  C   UNL     1     -11.515   0.495   3.531  0.00  0.00    +0.277 C 
ENDBRANCH   3  23
BRANCH   4  25
ATOM     25  O   UNL     1     -10.996  -3.646   3.316  0.00  0.00    -0.483 OA
BRANCH  25  26
ATOM     26  C   UNL     1     -12.061  -4.072   2.464  0.00  0.00    +0.270 C 
BRANCH  26  27
ATOM     27  C   UNL     1     -12.986  -5.014   3.236  0.00  0.00    +0.270 C 
BRANCH  27  28
ATOM     28  O   UNL     1     -13.617  -4.297   4.299  0.00  0.00    -0.489 OA
BRANCH  28  29
ATOM     29  C   UNL     1     -14.477  -4.993   5.087  0.00  0.00    +0.121 A 
ATOM     30  C   UNL     1     -14.706  -6.340   4.847  0.00  0.00    +0.049 A 
ATOM     31  C   UNL     1     -15.581  -7.045   5.650  0.00  0.00    -0.047 A 
ATOM     32  C   UNL     1     -16.229  -6.410   6.693  0.00  0.00    +0.007 A 
ATOM     33  C   UNL     1     -16.003  -5.067   6.935  0.00  0.00    -0.047 A 
ATOM     34  C   UNL     1     -15.125  -4.359   6.138  0.00  0.00    +0.049 A 
ATOM     35  C   UNL     1     -16.712  -4.378   8.072  0.00  0.00    +0.044 C 
ATOM     36  C   UNL     1     -15.829  -8.509   5.389  0.00  0.00    +0.044 C 
ENDBRANCH  28  29
ENDBRANCH  27  28
ENDBRANCH  26  27
ENDBRANCH  25  26
ENDBRANCH   4  25
TORSDOF 8
