REMARK  Name = ZINC44253734
REMARK  10 active torsions:
REMARK  status: ('A' for Active; 'I' for Inactive)
REMARK    1  A    between atoms: C_1  and  C_2
REMARK    2  A    between atoms: C_2  and  O_3
REMARK    3  A    between atoms: O_3  and  C_4
REMARK    4  A    between atoms: C_4  and  C_6
REMARK    5  A    between atoms: C_6  and  O_7
REMARK    6  A    between atoms: O_7  and  C_8
REMARK    7  A    between atoms: C_11  and  C_15
REMARK    8  A    between atoms: C_15  and  C_17
REMARK    9  A    between atoms: C_15  and  N_21
REMARK   10  A    between atoms: C_17  and  C_18
REMARK                            x       y       z     vdW  Elec       q    Type
REMARK                         _______ _______ _______ _____ _____    ______ ____
ROOT
ATOM      1  C   UNL     1       2.105  -4.485   3.438  0.00  0.00    +0.149 A 
ATOM      2  C   UNL     1       3.451  -4.809   3.347  0.00  0.00    +0.061 A 
ATOM      3  C   UNL     1       4.067  -5.497   4.376  0.00  0.00    +0.021 A 
ATOM      4  C   UNL     1       3.342  -5.863   5.495  0.00  0.00    -0.059 A 
ATOM      5  C   UNL     1       2.000  -5.542   5.588  0.00  0.00    +0.021 A 
ATOM      6  C   UNL     1       1.381  -4.848   4.565  0.00  0.00    +0.061 A 
ATOM      7 BR   UNL     1      -0.452  -4.403   4.697  0.00  0.00    -0.046 Br
ATOM      8 BR   UNL     1       4.443  -4.309   1.816  0.00  0.00    -0.046 Br
ENDROOT
BRANCH   1   9
ATOM      9  O   UNL     1       1.498  -3.808   2.428  0.00  0.00    -0.479 OA
BRANCH   9  10
ATOM     10  C   UNL     1       1.516  -2.381   2.500  0.00  0.00    +0.349 C 
BRANCH  10  11
ATOM     11  C   UNL     1       0.801  -1.808   1.304  0.00  0.00    +0.345 C 
ATOM     12  O   UNL     1       0.324  -2.546   0.475  0.00  0.00    -0.247 OA
BRANCH  11  13
ATOM     13  O   UNL     1       0.693  -0.477   1.160  0.00  0.00    -0.463 OA
BRANCH  13  15
ATOM     14  C   UNL     1      -0.019   1.526   0.010  0.00  0.00    +0.048 C 
ATOM     15  C   UNL     1       0.002  -0.004   0.002  0.00  0.00    +0.229 C 
ENDBRANCH  13  15
ENDBRANCH  11  13
ENDBRANCH  10  11
ENDBRANCH   9  10
ENDBRANCH   1   9
BRANCH   4  16
ATOM     16  C   UNL     1       4.015  -6.613   6.615  0.00  0.00    -0.035 C 
BRANCH  16  17
ATOM     17  N   UNL     1       3.107  -7.649   7.126  0.00  0.00    +0.383 N 
ATOM     18  H   UNL     1       2.264  -7.216   7.471  0.00  0.00    -0.089 HD
ATOM     19  H   UNL     1       2.876  -8.290   6.382  0.00  0.00    -0.089 HD
ATOM     20  H   UNL     1       3.558  -8.151   7.875  0.00  0.00    -0.089 HD
ENDBRANCH  16  17
BRANCH  16  21
ATOM     21  C   UNL     1       4.366  -5.640   7.742  0.00  0.00    +0.084 C 
BRANCH  21  22
ATOM     22  C   UNL     1       5.147  -6.366   8.807  0.00  0.00    +0.209 C 
ATOM     23  O   UNL     1       5.399  -7.545   8.677  0.00  0.00    -0.276 OA
ATOM     24  N   UNL     1       5.566  -5.705   9.904  0.00  0.00    -0.329 N 
ATOM     25  H   UNL     1       5.365  -4.761  10.008  0.00  0.00    +0.145 HD
ATOM     26  H   UNL     1       6.069  -6.172  10.589  0.00  0.00    +0.145 HD
ENDBRANCH  21  22
ENDBRANCH  16  21
ENDBRANCH   4  16
TORSDOF 9
