REMARK  Name = ZINC05158570
REMARK  11 active torsions:
REMARK  status: ('A' for Active; 'I' for Inactive)
REMARK    1  A    between atoms: C_1  and  O_2
REMARK    2  A    between atoms: O_2  and  C_3
REMARK    3  A    between atoms: C_3  and  C_5
REMARK    4  A    between atoms: C_8  and  O_11
REMARK    5  A    between atoms: O_11  and  C_12
REMARK    6  A    between atoms: C_17  and  C_18
REMARK    7  A    between atoms: C_21  and  O_25
REMARK    8  A    between atoms: C_23  and  O_24
REMARK    9  A    between atoms: O_25  and  C_26
REMARK   10  A    between atoms: C_26  and  C_27
REMARK   11  A    between atoms: N_29  and  N_30
REMARK                            x       y       z     vdW  Elec       q    Type
REMARK                         _______ _______ _______ _____ _____    ______ ____
ROOT
ATOM      1  C   UNL     1       1.562  -6.777   2.261  0.00  0.00    +0.173 A 
ATOM      2  C   UNL     1       2.176  -6.105   3.322  0.00  0.00    +0.181 A 
ATOM      3  N   UNL     1       2.772  -6.984   4.087  0.00  0.00    -0.178 NA
ATOM      4  N   UNL     1       2.566  -8.262   3.552  0.00  0.00    -0.273 N 
ATOM      5  H   UNL     1       2.898  -9.095   3.921  0.00  0.00    +0.189 HD
ATOM      6  C   UNL     1       1.810  -8.125   2.422  0.00  0.00    +0.111 A 
ENDROOT
BRANCH   6   7
ATOM      7  C   UNL     1       1.347  -9.215   1.538  0.00  0.00    +0.045 A 
ATOM      8  C   UNL     1       0.444 -10.166   2.013  0.00  0.00    +0.017 A 
ATOM      9  C   UNL     1       0.014 -11.182   1.185  0.00  0.00    +0.046 A 
ATOM     10  C   UNL     1       0.478 -11.262  -0.122  0.00  0.00    +0.125 A 
ATOM     11  C   UNL     1       1.377 -10.321  -0.602  0.00  0.00    +0.091 A 
ATOM     12  C   UNL     1       1.810  -9.294   0.218  0.00  0.00    +0.130 A 
BRANCH  12  13
ATOM     13  O   UNL     1       2.686  -8.368  -0.253  0.00  0.00    -0.506 OA
ATOM     14  H   UNL     1       3.615  -8.603  -0.122  0.00  0.00    +0.292 HD
ENDBRANCH  12  13
BRANCH  10  15
ATOM     15  O   UNL     1       0.051 -12.266  -0.932  0.00  0.00    -0.483 OA
BRANCH  15  16
ATOM     16  C   UNL     1      -0.873 -13.201  -0.374  0.00  0.00    +0.325 C 
BRANCH  16  17
ATOM     17  C   UNL     1      -1.231 -14.234  -1.411  0.00  0.00    +0.264 C 
ATOM     18  O   UNL     1      -0.742 -14.175  -2.519  0.00  0.00    -0.271 OA
ATOM     19  N   UNL     1      -2.094 -15.224  -1.107  0.00  0.00    -0.251 N 
ATOM     20  H   UNL     1      -2.485 -15.271  -0.221  0.00  0.00    +0.169 HD
BRANCH  19  21
ATOM     21  N   UNL     1      -2.418 -16.160  -2.047  0.00  0.00    -0.254 NA
ATOM     22  H   UNL     1      -3.072 -16.834  -1.677  0.00  0.00    +0.140 HD
ATOM     23  H   UNL     1      -2.783 -15.724  -2.881  0.00  0.00    +0.140 HD
ENDBRANCH  19  21
ENDBRANCH  16  17
ENDBRANCH  15  16
ENDBRANCH  10  15
ENDBRANCH   6   7
BRANCH   1  24
ATOM     24  O   UNL     1       0.844  -6.206   1.255  0.00  0.00    -0.452 OA
BRANCH  24  28
ATOM     25  C   UNL     1       0.718  -2.085   1.060  0.00  0.00    +0.059 A 
ATOM     26  C   UNL     1       1.906  -2.765   0.772  0.00  0.00    +0.018 A 
ATOM     27  C   UNL     1       1.944  -4.139   0.839  0.00  0.00    +0.047 A 
ATOM     28  C   UNL     1       0.803  -4.852   1.192  0.00  0.00    +0.129 A 
ATOM     29  C   UNL     1      -0.380  -4.180   1.479  0.00  0.00    +0.047 A 
ATOM     30  C   UNL     1      -0.425  -2.805   1.421  0.00  0.00    +0.018 A 
BRANCH  25  31
ATOM     31  C   UNL     1       0.673  -0.613   0.990  0.00  0.00    +0.339 C 
ATOM     32  O   UNL     1      -0.359  -0.024   1.246  0.00  0.00    -0.245 OA
BRANCH  31  34
ATOM     33  C   UNL     1       1.660   1.502   0.595  0.00  0.00    +0.280 C 
ATOM     34  O   UNL     1       1.776   0.079   0.643  0.00  0.00    -0.464 OA
ENDBRANCH  31  34
ENDBRANCH  25  31
ENDBRANCH  24  28
ENDBRANCH   1  24
TORSDOF 10
