REMARK  Name = ZINC36532632
REMARK  7 active torsions:
REMARK  status: ('A' for Active; 'I' for Inactive)
REMARK    1  A    between atoms: C_12  and  O_13
REMARK    2  A    between atoms: O_13  and  C_14
REMARK    3  A    between atoms: C_16  and  O_29
REMARK    4  A    between atoms: C_18  and  O_28
REMARK    5  A    between atoms: C_20  and  O_27
REMARK    6  A    between atoms: C_22  and  C_25
REMARK    7  A    between atoms: C_25  and  O_26
REMARK                            x       y       z     vdW  Elec       q    Type
REMARK                         _______ _______ _______ _____ _____    ______ ____
ROOT
ATOM      1  C   UNL     1       1.201   5.858   0.022  0.00  0.00    +0.339 C 
ATOM      2  C   UNL     1       0.091   6.879   0.288  0.00  0.00    +0.214 C 
ATOM      3  C   UNL     1      -0.938   6.810  -0.844  0.00  0.00    +0.180 C 
ATOM      4  C   UNL     1      -0.229   7.056  -2.179  0.00  0.00    +0.177 C 
ATOM      5  C   UNL     1       0.892   6.028  -2.350  0.00  0.00    +0.179 C 
ATOM      6  O   UNL     1       1.798   6.125  -1.248  0.00  0.00    -0.331 OA
ENDROOT
BRANCH   4   7
ATOM      7  O   UNL     1      -1.167   6.924  -3.249  0.00  0.00    -0.386 OA
ATOM      8  H   UNL     1      -1.908   7.543  -3.202  0.00  0.00    +0.210 HD
ENDBRANCH   4   7
BRANCH   3   9
ATOM      9  O   UNL     1      -1.549   5.518  -0.857  0.00  0.00    -0.386 OA
ATOM     10  H   UNL     1      -2.011   5.293  -0.037  0.00  0.00    +0.210 HD
ENDBRANCH   3   9
BRANCH   2  11
ATOM     11  O   UNL     1       0.654   8.191   0.344  0.00  0.00    -0.383 OA
ATOM     12  H   UNL     1       1.318   8.305   1.038  0.00  0.00    +0.210 HD
ENDBRANCH   2  11
BRANCH   1  13
ATOM     13  O   UNL     1       0.646   4.541   0.020  0.00  0.00    -0.459 OA
BRANCH  13  25
ATOM     14  C   UNL     1      -0.017   1.363   0.009  0.00  0.00    +0.030 A 
ATOM     15  C   UNL     1       1.186   2.073   0.002  0.00  0.00    +0.043 A 
ATOM     16  C   UNL     1       2.410   1.380  -0.013  0.00  0.00    +0.052 A 
ATOM     17  C   UNL     1       2.407  -0.011  -0.021  0.00  0.00    +0.047 A 
ATOM     18  C   UNL     1       1.209  -0.693  -0.013  0.00  0.00    +0.057 A 
ATOM     19  C   UNL     1       0.002  -0.004   0.002  0.00  0.00    +0.037 A 
ATOM     20 BR   UNL     1      -1.627  -0.965   0.013  0.00  0.00    -0.049 Br
ATOM     21 CL   UNL     1       1.208  -2.429  -0.022  0.00  0.00    -0.082 Cl
ATOM     22  N   UNL     1       3.413   2.324  -0.018  0.00  0.00    -0.358 N 
ATOM     23  H   UNL     1       4.363   2.128  -0.029  0.00  0.00    +0.165 HD
ATOM     24  C   UNL     1       2.866   3.586  -0.006  0.00  0.00    +0.130 A 
ATOM     25  C   UNL     1       1.524   3.500   0.006  0.00  0.00    +0.149 A 
ENDBRANCH  13  25
ENDBRANCH   1  13
BRANCH   5  26
ATOM     26  C   UNL     1       1.644   6.305  -3.654  0.00  0.00    +0.190 C 
BRANCH  26  27
ATOM     27  O   UNL     1       2.614   5.279  -3.872  0.00  0.00    -0.392 OA
ATOM     28  H   UNL     1       3.129   5.390  -4.683  0.00  0.00    +0.210 HD
ENDBRANCH  26  27
ENDBRANCH   5  26
TORSDOF 7
