REMARK  Name = ZINC00845086
REMARK  9 active torsions:
REMARK  status: ('A' for Active; 'I' for Inactive)
REMARK    1  A    between atoms: C_1  and  C_2
REMARK    2  A    between atoms: C_2  and  C_3
REMARK    3  A    between atoms: C_2  and  C_4
REMARK    4  A    between atoms: C_2  and  C_5
REMARK    5  A    between atoms: C_12  and  N_17
REMARK    6  A    between atoms: C_13  and  C_14
REMARK    7  A    between atoms: C_18  and  C_20
REMARK    8  A    between atoms: C_24  and  C_33
REMARK    9  A    between atoms: C_26  and  C_29
REMARK                            x       y       z     vdW  Elec       q    Type
REMARK                         _______ _______ _______ _____ _____    ______ ____
ROOT
ATOM      1  N   UNL     1       2.465   1.734  -0.011  0.00  0.00    -0.274 N 
ATOM      2  C   UNL     1       3.490   2.608  -0.016  0.00  0.00    +0.269 C 
ATOM      3  O   UNL     1       3.270   3.803  -0.009  0.00  0.00    -0.268 OA
ATOM      4  H   UNL     1       2.640   0.780  -0.017  0.00  0.00    +0.156 HD
ENDROOT
BRANCH   1  11
ATOM      5  C   UNL     1      -3.562   3.839  -0.325  0.00  0.00    -0.000 C 
ATOM      6  C   UNL     1      -3.678   2.559   0.508  0.00  0.00    +0.009 C 
ATOM      7  C   UNL     1      -2.643   1.537   0.036  0.00  0.00    +0.037 C 
ATOM      8  C   UNL     1      -1.270   2.198   0.020  0.00  0.00    -0.023 A 
ATOM      9  C   UNL     1      -1.147   3.543   0.031  0.00  0.00    -0.004 A 
ATOM     10  S   UNL     1       0.599   3.837   0.016  0.00  0.00    -0.077 S 
ATOM     11  C   UNL     1       1.159   2.198   0.003  0.00  0.00    +0.085 A 
ATOM     12  C   UNL     1      -0.018   1.462   0.010  0.00  0.00    +0.068 A 
ATOM     13  C   UNL     1      -2.253   4.552   0.045  0.00  0.00    +0.046 C 
BRANCH  12  14
ATOM     14  C   UNL     1       0.002  -0.004   0.002  0.00  0.00    +0.244 C 
ATOM     15  O   UNL     1       0.020  -0.618   1.053  0.00  0.00    -0.270 OA
ATOM     16  N   UNL     1       0.001  -0.672  -1.169  0.00  0.00    -0.325 N 
ATOM     17  H   UNL     1      -0.014  -0.182  -2.006  0.00  0.00    +0.145 HD
ATOM     18  H   UNL     1       0.014  -1.641  -1.174  0.00  0.00    +0.145 HD
ENDBRANCH  12  14
BRANCH   5  20
ATOM     19  C   UNL     1      -4.621   6.042  -0.842  0.00  0.00    +0.011 C 
ATOM     20  C   UNL     1      -4.749   4.757  -0.022  0.00  0.00    -0.035 C 
ATOM     21  C   UNL     1      -6.051   4.044  -0.391  0.00  0.00    +0.011 C 
ATOM     22  C   UNL     1      -4.760   5.101   1.468  0.00  0.00    +0.011 C 
ENDBRANCH   5  20
ENDBRANCH   1  11
BRANCH   2  23
ATOM     23  C   UNL     1       4.883   2.113  -0.031  0.00  0.00    +0.150 A 
ATOM     24  C   UNL     1       6.033   2.911  -0.044  0.00  0.00    +0.083 A 
ATOM     25  C   UNL     1       7.131   2.063  -0.052  0.00  0.00    +0.158 A 
ATOM     26  N   UNL     1       8.449   2.298  -0.063  0.00  0.00    -0.225 NA
ATOM     27  C   UNL     1       9.314   1.297  -0.076  0.00  0.00    +0.110 A 
ATOM     28  C   UNL     1       8.849  -0.042  -0.078  0.00  0.00    +0.064 A 
ATOM     29  C   UNL     1       7.520  -0.280  -0.067  0.00  0.00    +0.149 A 
ATOM     30  N   UNL     1       6.649   0.777  -0.054  0.00  0.00    -0.209 N 
ATOM     31  N   UNL     1       5.251   0.842  -0.041  0.00  0.00    -0.160 NA
BRANCH  27  32
ATOM     32  C   UNL     1      10.761   1.574  -0.087  0.00  0.00    +0.153 A 
ATOM     33  C   UNL     1      11.339   2.807  -0.092  0.00  0.00    +0.051 A 
ATOM     34  C   UNL     1      12.731   2.602  -0.099  0.00  0.00    +0.042 A 
ATOM     35  C   UNL     1      12.935   1.268  -0.108  0.00  0.00    +0.196 A 
ATOM     36  O   UNL     1      11.743   0.651  -0.101  0.00  0.00    -0.461 OA
ENDBRANCH  27  32
BRANCH  29  37
ATOM     37  C   UNL     1       7.001  -1.695  -0.069  0.00  0.00    +0.434 C 
ATOM     38  F   UNL     1       6.827  -2.126  -1.389  0.00  0.00    -0.164 F 
ATOM     39  F   UNL     1       7.918  -2.529   0.578  0.00  0.00    -0.164 F 
ATOM     40  F   UNL     1       5.774  -1.742   0.602  0.00  0.00    -0.164 F 
ENDBRANCH  29  37
ENDBRANCH   2  23
TORSDOF 6
