REMARK  Name = ZINC02429032
REMARK  12 active torsions:
REMARK  status: ('A' for Active; 'I' for Inactive)
REMARK    1  A    between atoms: C_1  and  C_2
REMARK    2  A    between atoms: C_2  and  C_3
REMARK    3  A    between atoms: C_3  and  C_31
REMARK    4  A    between atoms: C_10  and  N_16
REMARK    5  A    between atoms: C_12  and  S_14
REMARK    6  A    between atoms: S_14  and  C_15
REMARK    7  A    between atoms: N_16  and  N_17
REMARK    8  A    between atoms: N_17  and  C_18
REMARK    9  A    between atoms: C_18  and  N_20
REMARK   10  A    between atoms: N_20  and  C_21
REMARK   11  A    between atoms: C_24  and  O_27
REMARK   12  A    between atoms: O_27  and  C_28
REMARK                            x       y       z     vdW  Elec       q    Type
REMARK                         _______ _______ _______ _____ _____    ______ ____
ROOT
ATOM      1  C   UNL     1      -3.243   9.264  -0.076  0.00  0.00    +0.071 C 
ATOM      2  C   UNL     1      -2.424   8.385   0.874  0.00  0.00    +0.071 C 
ATOM      3  C   UNL     1      -1.717   7.319   0.041  0.00  0.00    -0.020 A 
ATOM      4  C   UNL     1      -1.589   7.491  -1.292  0.00  0.00    +0.021 A 
ATOM      5  S   UNL     1      -0.731   6.052  -1.863  0.00  0.00    -0.071 S 
ATOM      6  C   UNL     1      -0.542   5.219  -0.308  0.00  0.00    +0.115 A 
ATOM      7  C   UNL     1      -1.158   6.094   0.611  0.00  0.00    +0.052 A 
ATOM      8  C   UNL     1      -1.151   5.663   1.967  0.00  0.00    +0.148 A 
ATOM      9  N   UNL     1      -0.588   4.507   2.275  0.00  0.00    -0.205 NA
ATOM     10  C   UNL     1      -0.025   3.730   1.358  0.00  0.00    +0.191 A 
ATOM     11  N   UNL     1       0.003   4.083   0.080  0.00  0.00    -0.215 NA
ATOM     12  C   UNL     1      -2.081   8.662  -2.085  0.00  0.00    +0.203 C 
ATOM     13  O   UNL     1      -2.425   9.708  -1.163  0.00  0.00    -0.368 OA
ATOM     14  C   UNL     1      -4.419   8.457  -0.628  0.00  0.00    +0.042 C 
ENDROOT
BRANCH   1  16
ATOM     15  C   UNL     1      -4.694  11.293  -0.225  0.00  0.00    +0.007 C 
ATOM     16  C   UNL     1      -3.774  10.479   0.687  0.00  0.00    +0.032 C 
ENDBRANCH   1  16
BRANCH  10  17
ATOM     17  S   UNL     1       0.705   2.203   1.850  0.00  0.00    -0.089 S 
ATOM     18  C   UNL     1       1.288   1.602   0.245  0.00  0.00    +0.093 C 
ENDBRANCH  10  17
BRANCH   8  19
ATOM     19  N   UNL     1      -1.728   6.445   2.951  0.00  0.00    -0.249 N 
ATOM     20  H   UNL     1      -1.944   7.373   2.769  0.00  0.00    +0.172 HD
BRANCH  19  21
ATOM     21  N   UNL     1      -1.999   5.897   4.212  0.00  0.00    -0.247 N 
ATOM     22  H   UNL     1      -1.782   4.969   4.394  0.00  0.00    +0.172 HD
BRANCH  21  23
ATOM     23  C   UNL     1      -2.560   6.659   5.171  0.00  0.00    +0.151 C 
ATOM     24  S   UNL     1      -2.891   5.989   6.712  0.00  0.00    -0.017 S 
BRANCH  23  25
ATOM     25  N   UNL     1      -2.860   7.948   4.918  0.00  0.00    -0.296 N 
ATOM     26  H   UNL     1      -2.752   8.305   4.023  0.00  0.00    +0.154 HD
BRANCH  25  27
ATOM     27  C   UNL     1      -3.329   8.773   5.949  0.00  0.00    +0.033 A 
ATOM     28  C   UNL     1      -4.359   9.672   5.705  0.00  0.00    +0.027 A 
ATOM     29  C   UNL     1      -4.824  10.482   6.723  0.00  0.00    +0.047 A 
ATOM     30  C   UNL     1      -4.255  10.404   7.986  0.00  0.00    +0.120 A 
ATOM     31  C   UNL     1      -3.224   9.510   8.229  0.00  0.00    +0.047 A 
ATOM     32  C   UNL     1      -2.761   8.696   7.213  0.00  0.00    +0.027 A 
BRANCH  30  33
ATOM     33  O   UNL     1      -4.710  11.205   8.986  0.00  0.00    -0.495 OA
ATOM     34  C   UNL     1      -5.775  12.102   8.665  0.00  0.00    +0.277 C 
ENDBRANCH  30  33
ENDBRANCH  25  27
ENDBRANCH  23  25
ENDBRANCH  21  23
ENDBRANCH  19  21
ENDBRANCH   8  19
TORSDOF 8
