REMARK  Name = ZINC40476925
REMARK  6 active torsions:
REMARK  status: ('A' for Active; 'I' for Inactive)
REMARK    1  A    between atoms: C_1  and  C_2
REMARK    2  A    between atoms: C_9  and  N_15
REMARK    3  A    between atoms: C_10  and  C_11
REMARK    4  A    between atoms: C_11  and  O_13
REMARK    5  A    between atoms: O_13  and  C_14
REMARK    6  A    between atoms: N_15  and  C_16
REMARK                            x       y       z     vdW  Elec       q    Type
REMARK                         _______ _______ _______ _____ _____    ______ ____
ROOT
ATOM      1  C   UNL     1       0.709   1.171  -0.943  0.00  0.00    +0.008 C 
ATOM      2  C   UNL     1       0.526  -0.333  -0.728  0.00  0.00    -0.009 C 
ATOM      3  C   UNL     1      -0.960  -0.646  -0.531  0.00  0.00    +0.008 C 
ATOM      4  C   UNL     1      -1.181  -2.160  -0.562  0.00  0.00    +0.037 C 
ATOM      5  C   UNL     1      -0.223  -2.813   0.424  0.00  0.00    -0.021 A 
ATOM      6  C   UNL     1       0.866  -2.160   0.883  0.00  0.00    -0.004 A 
ATOM      7  S   UNL     1       1.649  -3.305   1.979  0.00  0.00    -0.077 S 
ATOM      8  C   UNL     1       0.589  -4.601   1.845  0.00  0.00    +0.084 A 
ATOM      9  C   UNL     1      -0.376  -4.157   0.953  0.00  0.00    +0.091 A 
ATOM     10  C   UNL     1       1.300  -0.771   0.524  0.00  0.00    +0.046 C 
ENDROOT
BRANCH   9  11
ATOM     11  C   UNL     1      -1.502  -5.008   0.561  0.00  0.00    +0.342 C 
ATOM     12  O   UNL     1      -1.403  -5.742  -0.404  0.00  0.00    -0.245 OA
BRANCH  11  13
ATOM     13  O   UNL     1      -2.649  -4.979   1.270  0.00  0.00    -0.464 OA
ATOM     14  C   UNL     1      -3.706  -5.835   0.832  0.00  0.00    +0.280 C 
ENDBRANCH  11  13
ENDBRANCH   9  11
BRANCH   8  15
ATOM     15  N   UNL     1       0.662  -5.830   2.479  0.00  0.00    -0.314 N 
ATOM     16  H   UNL     1      -0.019  -6.501   2.315  0.00  0.00    +0.152 HD
BRANCH  15  17
ATOM     17  C   UNL     1       1.682  -6.094   3.325  0.00  0.00    +0.090 C 
ATOM     18  C   UNL     1       1.820  -7.357   3.868  0.00  0.00    +0.113 C 
ATOM     19  C   UNL     1       0.986  -8.485   3.413  0.00  0.00    +0.256 C 
ATOM     20  O   UNL     1       0.150  -8.333   2.542  0.00  0.00    -0.270 OA
ATOM     21  N   UNL     1       1.176  -9.690   3.989  0.00  0.00    -0.263 N 
ATOM     22  C   UNL     1       2.094  -9.871   4.949  0.00  0.00    +0.143 C 
ATOM     23  S   UNL     1       2.265 -11.437   5.621  0.00  0.00    -0.018 S 
ATOM     24  N   UNL     1       2.886  -8.893   5.409  0.00  0.00    -0.263 N 
ATOM     25  C   UNL     1       2.811  -7.637   4.922  0.00  0.00    +0.256 C 
ATOM     26  O   UNL     1       3.538  -6.759   5.346  0.00  0.00    -0.270 OA
ATOM     27  H   UNL     1       0.636 -10.443   3.701  0.00  0.00    +0.157 HD
ATOM     28  H   UNL     1       3.530  -9.093   6.106  0.00  0.00    +0.157 HD
ENDBRANCH  15  17
ENDBRANCH   8  15
TORSDOF 4
