REMARK  Name = ZINC44761919
REMARK  8 active torsions:
REMARK  status: ('A' for Active; 'I' for Inactive)
REMARK    1  A    between atoms: C_1  and  C_2
REMARK    2  A    between atoms: C_2  and  C_3
REMARK    3  A    between atoms: C_3  and  C_4
REMARK    4  A    between atoms: C_3  and  C_6
REMARK    5  A    between atoms: C_3  and  C_8
REMARK    6  A    between atoms: C_4  and  C_5
REMARK    7  A    between atoms: C_6  and  N_7
REMARK    8  A    between atoms: N_10  and  C_11
REMARK                            x       y       z     vdW  Elec       q    Type
REMARK                         _______ _______ _______ _____ _____    ______ ____
ROOT
ATOM      1  C   UNL     1       0.037  -0.025   2.481  0.00  0.00    +0.218 C 
ATOM      2  O   UNL     1       0.624   0.676   3.278  0.00  0.00    -0.275 OA
ATOM      3  N   UNL     1      -1.247  -0.369   2.705  0.00  0.00    -0.309 N 
ATOM      4  H   UNL     1      -1.717  -0.930   2.068  0.00  0.00    +0.149 HD
ENDROOT
BRANCH   3   5
ATOM      5  C   UNL     1      -1.933   0.103   3.910  0.00  0.00    +0.035 C 
ATOM      6  C   UNL     1      -1.193  -0.404   5.150  0.00  0.00    +0.029 C 
ATOM      7  C   UNL     1      -1.909   0.090   6.409  0.00  0.00    -0.008 C 
ATOM      8  C   UNL     1      -3.344  -0.440   6.420  0.00  0.00    +0.007 C 
ATOM      9  C   UNL     1      -4.084   0.067   5.180  0.00  0.00    -0.008 C 
ATOM     10  C   UNL     1      -3.368  -0.426   3.921  0.00  0.00    +0.029 C 
ATOM     11  C   UNL     1      -4.105   1.597   5.189  0.00  0.00    +0.007 C 
ATOM     12  C   UNL     1      -2.670   2.127   5.178  0.00  0.00    -0.008 C 
ATOM     13  C   UNL     1      -1.930   1.620   6.417  0.00  0.00    +0.007 C 
ATOM     14  C   UNL     1      -1.954   1.633   3.919  0.00  0.00    +0.029 C 
ENDBRANCH   3   5
BRANCH   1  15
ATOM     15  C   UNL     1       0.742  -0.511   1.242  0.00  0.00    +0.031 C 
BRANCH  15  17
ATOM     16  C   UNL     1      -0.019   1.526   0.010  0.00  0.00    +0.005 C 
ATOM     17  C   UNL     1       0.002  -0.004   0.002  0.00  0.00    +0.011 C 
ENDBRANCH  15  17
BRANCH  15  18
ATOM     18  C   UNL     1       0.763  -2.041   1.233  0.00  0.00    +0.011 C 
ATOM     19  C   UNL     1       1.503  -2.548   2.473  0.00  0.00    +0.005 C 
ENDBRANCH  15  18
BRANCH  15  20
ATOM     20  C   UNL     1       2.178   0.019   1.231  0.00  0.00    -0.070 C 
BRANCH  20  21
ATOM     21  N   UNL     1       2.865  -0.455   0.022  0.00  0.00    +0.379 N 
ATOM     22  H   UNL     1       2.879  -1.464   0.017  0.00  0.00    -0.090 HD
ATOM     23  H   UNL     1       2.377  -0.121  -0.795  0.00  0.00    -0.090 HD
ATOM     24  H   UNL     1       3.812  -0.106   0.015  0.00  0.00    -0.090 HD
ENDBRANCH  20  21
ENDBRANCH  15  20
ENDBRANCH   1  15
TORSDOF 6
