REMARK  Name = ZINC33910432
REMARK  10 active torsions:
REMARK  status: ('A' for Active; 'I' for Inactive)
REMARK    1  A    between atoms: C_1  and  C_2
REMARK    2  A    between atoms: C_2  and  C_3
REMARK    3  A    between atoms: C_3  and  C_4
REMARK    4  A    between atoms: C_4  and  N_5
REMARK    5  A    between atoms: C_10  and  C_28
REMARK    6  A    between atoms: C_13  and  C_18
REMARK    7  A    between atoms: C_13  and  C_25
REMARK    8  A    between atoms: C_18  and  C_19
REMARK    9  A    between atoms: C_19  and  C_20
REMARK   10  A    between atoms: C_20  and  N_21
REMARK                            x       y       z     vdW  Elec       q    Type
REMARK                         _______ _______ _______ _____ _____    ______ ____
ROOT
ATOM      1  N   UNL     1       1.471  -2.526   2.420  0.00  0.00    -0.242 N 
ATOM      2  C   UNL     1       2.825  -2.756   2.457  0.00  0.00    +0.224 C 
ATOM      3  O   UNL     1       3.657  -2.406   1.648  0.00  0.00    -0.275 OA
ATOM      4  C   UNL     1       3.037  -3.506   3.670  0.00  0.00    +0.080 C 
ATOM      5  C   UNL     1       4.107  -3.846   4.624  0.00  0.00    +0.010 C 
ATOM      6  N   UNL     1       3.337  -4.488   5.745  0.00  0.00    +0.397 N 
ATOM      7  C   UNL     1       1.929  -3.996   5.672  0.00  0.00    +0.048 C 
ATOM      8  C   UNL     1       1.959  -2.865   4.632  0.00  0.00    +0.086 C 
ATOM      9  C   UNL     1       0.858  -2.793   3.611  0.00  0.00    +0.225 C 
ATOM     10  O   UNL     1      -0.329  -2.943   3.805  0.00  0.00    -0.275 OA
ATOM     11  H   UNL     1       3.354  -5.491   5.641  0.00  0.00    -0.083 HD
ATOM     12  H   UNL     1       3.745  -4.229   6.631  0.00  0.00    -0.083 HD
ENDROOT
BRANCH   5  13
ATOM     13  C   UNL     1       5.082  -4.820   4.013  0.00  0.00    +0.093 A 
ATOM     14  C   UNL     1       6.274  -4.491   3.498  0.00  0.00    +0.051 A 
ATOM     15  C   UNL     1       6.875  -5.744   3.024  0.00  0.00    +0.020 A 
ATOM     16  C   UNL     1       8.079  -6.074   2.403  0.00  0.00    +0.011 A 
ATOM     17  C   UNL     1       8.340  -7.377   2.080  0.00  0.00    +0.001 A 
ATOM     18  C   UNL     1       7.415  -8.370   2.367  0.00  0.00    +0.004 A 
ATOM     19  C   UNL     1       6.219  -8.063   2.980  0.00  0.00    +0.047 A 
ATOM     20  C   UNL     1       5.934  -6.745   3.317  0.00  0.00    +0.135 A 
ATOM     21  O   UNL     1       4.883  -6.146   3.912  0.00  0.00    -0.461 OA
ENDBRANCH   5  13
BRANCH   7  22
ATOM     22  C   UNL     1       1.498  -3.448   7.008  0.00  0.00    +0.346 C 
ATOM     23  O   UNL     1       2.265  -3.479   7.956  0.00  0.00    -0.248 OA
ATOM     24  O   UNL     1       0.384  -2.973   7.142  0.00  0.00    -0.248 OA
ENDBRANCH   7  22
BRANCH   1  25
ATOM     25  C   UNL     1       0.763  -2.041   1.233  0.00  0.00    +0.116 C 
BRANCH  25  26
ATOM     26  C   UNL     1       0.742  -0.511   1.242  0.00  0.00    +0.019 C 
BRANCH  26  28
ATOM     27  C   UNL     1      -0.019   1.526   0.010  0.00  0.00    +0.004 C 
ATOM     28  C   UNL     1       0.002  -0.004   0.002  0.00  0.00    -0.002 C 
ENDBRANCH  26  28
ENDBRANCH  25  26
ENDBRANCH   1  25
BRANCH   7  29
ATOM     29  C   UNL     1       0.995  -5.126   5.236  0.00  0.00    +0.001 C 
BRANCH  29  30
ATOM     30  C   UNL     1       1.046  -6.256   6.266  0.00  0.00    +0.018 C 
BRANCH  30  31
ATOM     31  C   UNL     1       0.111  -7.386   5.830  0.00  0.00    +0.105 C 
BRANCH  31  32
ATOM     32  N   UNL     1       0.160  -8.468   6.817  0.00  0.00    -0.300 N 
ATOM     33  C   UNL     1      -0.588  -9.575   6.640  0.00  0.00    +0.297 C 
ATOM     34  O   UNL     1      -1.302  -9.677   5.661  0.00  0.00    -0.253 OA
ATOM     35  N   UNL     1      -0.543 -10.571   7.548  0.00  0.00    -0.313 N 
ATOM     36  H   UNL     1       0.730  -8.387   7.598  0.00  0.00    +0.150 HD
ATOM     37  H   UNL     1       0.027 -10.490   8.328  0.00  0.00    +0.146 HD
ATOM     38  H   UNL     1      -1.081 -11.368   7.420  0.00  0.00    +0.146 HD
ENDBRANCH  31  32
ENDBRANCH  30  31
ENDBRANCH  29  30
ENDBRANCH   7  29
TORSDOF 9
