REMARK  Name = ZINC35131733
REMARK  15 active torsions:
REMARK  status: ('A' for Active; 'I' for Inactive)
REMARK    1  A    between atoms: C_1  and  C_2
REMARK    2  A    between atoms: C_2  and  C_3
REMARK    3  A    between atoms: C_2  and  C_4
REMARK    4  A    between atoms: C_2  and  C_5
REMARK    5  A    between atoms: C_5  and  C_6
REMARK    6  A    between atoms: C_6  and  C_7
REMARK    7  A    between atoms: C_6  and  C_8
REMARK    8  A    between atoms: C_6  and  N_9
REMARK    9  A    between atoms: N_9  and  C_10
REMARK   10  A    between atoms: C_11  and  C_19
REMARK   11  A    between atoms: C_22  and  O_27
REMARK   12  A    between atoms: C_23  and  O_25
REMARK   13  A    between atoms: O_25  and  C_26
REMARK   14  A    between atoms: O_27  and  C_28
REMARK   15  A    between atoms: C_28  and  C_30
REMARK                            x       y       z     vdW  Elec       q    Type
REMARK                         _______ _______ _______ _____ _____    ______ ____
ROOT
ATOM      1  C   UNL     1       4.934   0.476  -3.399  0.00  0.00    +0.129 A 
ATOM      2  C   UNL     1       5.827   0.416  -4.447  0.00  0.00    +0.087 A 
ATOM      3  N   UNL     1       7.003   0.915  -4.022  0.00  0.00    -0.338 N 
ATOM      4  C   UNL     1       6.888   1.284  -2.757  0.00  0.00    +0.117 A 
ATOM      5  N   UNL     1       5.601   1.028  -2.341  0.00  0.00    -0.289 N 
ATOM      6  C   UNL     1       5.215   1.326  -1.061  0.00  0.00    +0.094 A 
ATOM      7  C   UNL     1       6.087   1.878  -0.193  0.00  0.00    +0.018 A 
ATOM      8  C   UNL     1       7.407   2.155  -0.591  0.00  0.00    +0.005 A 
ATOM      9  C   UNL     1       7.809   1.857  -1.854  0.00  0.00    +0.045 A 
ATOM     10  H   UNL     1       7.807   0.991  -4.558  0.00  0.00    +0.167 HD
ENDROOT
BRANCH   2  11
ATOM     11  C   UNL     1       5.543  -0.106  -5.804  0.00  0.00    +0.005 A 
ATOM     12  C   UNL     1       4.843  -1.302  -5.960  0.00  0.00    +0.014 A 
ATOM     13  C   UNL     1       4.579  -1.788  -7.224  0.00  0.00    +0.051 A 
ATOM     14  C   UNL     1       5.009  -1.090  -8.343  0.00  0.00    +0.173 A 
ATOM     15  C   UNL     1       5.709   0.105  -8.194  0.00  0.00    +0.163 A 
ATOM     16  C   UNL     1       5.971   0.600  -6.928  0.00  0.00    +0.059 A 
BRANCH  15  17
ATOM     17  O   UNL     1       6.130   0.788  -9.291  0.00  0.00    -0.491 OA
ATOM     18  C   UNL     1       6.842   2.006  -9.064  0.00  0.00    +0.277 C 
ENDBRANCH  15  17
BRANCH  14  19
ATOM     19  O   UNL     1       4.747  -1.573  -9.587  0.00  0.00    -0.419 OA
BRANCH  19  20
ATOM     20  C   UNL     1       5.682  -2.344 -10.175  0.00  0.00    +0.345 C 
ATOM     21  O   UNL     1       6.679  -2.665  -9.561  0.00  0.00    -0.245 OA
BRANCH  20  22
ATOM     22  C   UNL     1       5.494  -2.798 -11.567  0.00  0.00    +0.060 A 
ATOM     23  C   UNL     1       4.350  -2.425 -12.278  0.00  0.00    +0.018 A 
ATOM     24  C   UNL     1       4.180  -2.852 -13.577  0.00  0.00    +0.039 A 
ATOM     25  C   UNL     1       5.141  -3.650 -14.179  0.00  0.00    +0.123 A 
ATOM     26  C   UNL     1       6.278  -4.024 -13.478  0.00  0.00    +0.039 A 
ATOM     27  C   UNL     1       6.461  -3.598 -12.180  0.00  0.00    +0.018 A 
ATOM     28  F   UNL     1       4.969  -4.066 -15.453  0.00  0.00    -0.205 F 
ENDBRANCH  20  22
ENDBRANCH  19  20
ENDBRANCH  14  19
ENDBRANCH   2  11
BRANCH   1  29
ATOM     29  N   UNL     1       3.602   0.060  -3.416  0.00  0.00    -0.323 N 
ATOM     30  H   UNL     1       3.224  -0.325  -4.223  0.00  0.00    +0.148 HD
BRANCH  29  31
ATOM     31  C   UNL     1       2.773   0.204  -2.217  0.00  0.00    +0.028 C 
ATOM     32  C   UNL     1       2.722   1.677  -1.806  0.00  0.00    +0.031 C 
ATOM     33  C   UNL     1       3.376  -0.622  -1.079  0.00  0.00    +0.031 C 
BRANCH  31  34
ATOM     34  C   UNL     1       1.357  -0.292  -2.512  0.00  0.00    +0.031 C 
BRANCH  34  36
ATOM     35  C   UNL     1       1.445  -0.855  -4.945  0.00  0.00    +0.010 C 
ATOM     36  C   UNL     1       0.941   0.158  -3.914  0.00  0.00    -0.036 C 
ATOM     37  C   UNL     1       1.546   1.531  -4.210  0.00  0.00    +0.010 C 
ATOM     38  C   UNL     1      -0.585   0.246  -3.990  0.00  0.00    +0.010 C 
ENDBRANCH  34  36
ENDBRANCH  31  34
ENDBRANCH  29  31
ENDBRANCH   1  29
TORSDOF 9
