REMARK  Name = ZINC61594827
REMARK  10 active torsions:
REMARK  status: ('A' for Active; 'I' for Inactive)
REMARK    1  A    between atoms: C_1  and  C_2
REMARK    2  A    between atoms: C_2  and  C_3
REMARK    3  A    between atoms: C_3  and  N_4
REMARK    4  A    between atoms: C_10  and  S_11
REMARK    5  A    between atoms: S_11  and  C_12
REMARK    6  A    between atoms: C_12  and  C_14
REMARK    7  A    between atoms: C_12  and  C_20
REMARK    8  A    between atoms: C_20  and  C_22
REMARK    9  A    between atoms: C_20  and  N_24
REMARK   10  A    between atoms: C_22  and  C_23
REMARK                            x       y       z     vdW  Elec       q    Type
REMARK                         _______ _______ _______ _____ _____    ______ ____
ROOT
ATOM      1  C   UNL     1      -2.395  -3.849  -3.164  0.00  0.00    +0.076 C 
ENDROOT
BRANCH   1   2
ATOM      2  C   UNL     1      -3.705  -3.477  -3.809  0.00  0.00    +0.003 A 
ATOM      3  C   UNL     1      -4.954  -3.915  -3.518  0.00  0.00    +0.014 A 
ATOM      4  C   UNL     1      -6.022  -3.432  -4.251  0.00  0.00    +0.028 A 
ATOM      5  C   UNL     1      -5.787  -2.533  -5.240  0.00  0.00    +0.078 A 
ATOM      6  S   UNL     1      -4.014  -2.340  -5.151  0.00  0.00    -0.081 S 
ATOM      7 CL   UNL     1      -6.918  -1.765  -6.311  0.00  0.00    -0.076 Cl
ENDBRANCH   1   2
BRANCH   1   8
ATOM      8  S   UNL     1      -1.624  -2.364  -2.462  0.00  0.00    -0.079 S 
BRANCH   8  15
ATOM      9  N   UNL     1       0.674  -2.226  -0.872  0.00  0.00    -0.271 N 
ATOM     10  C   UNL     1       1.566  -3.056  -0.296  0.00  0.00    +0.345 A 
ATOM     11  O   UNL     1       2.519  -2.727   0.387  0.00  0.00    -0.245 OA
ATOM     12  N   UNL     1       1.211  -4.319  -0.613  0.00  0.00    -0.226 N 
ATOM     13  H   UNL     1       1.668  -5.130  -0.340  0.00  0.00    +0.194 HD
ATOM     14  N   UNL     1       0.061  -4.243  -1.411  0.00  0.00    -0.145 NA
ATOM     15  C   UNL     1      -0.251  -2.987  -1.551  0.00  0.00    +0.193 A 
BRANCH   9  16
ATOM     16  C   UNL     1       0.683  -0.764  -0.784  0.00  0.00    +0.129 C 
BRANCH  16  18
ATOM     17  C   UNL     1      -0.121   1.207   0.524  0.00  0.00    +0.005 C 
ATOM     18  C   UNL     1      -0.131  -0.320   0.433  0.00  0.00    +0.018 C 
ENDBRANCH  16  18
ENDBRANCH   9  16
ENDBRANCH   8  15
ENDBRANCH   1   8
BRANCH   1  19
ATOM     19  C   UNL     1      -1.464  -4.458  -4.213  0.00  0.00    -0.057 C 
BRANCH  19  20
ATOM     20  N   UNL     1      -2.153  -5.561  -4.897  0.00  0.00    +0.381 N 
ATOM     21  H   UNL     1      -2.982  -5.209  -5.352  0.00  0.00    -0.090 HD
ATOM     22  H   UNL     1      -1.537  -5.966  -5.587  0.00  0.00    -0.090 HD
ATOM     23  H   UNL     1      -2.412  -6.266  -4.223  0.00  0.00    -0.090 HD
ENDBRANCH  19  20
BRANCH  19  24
ATOM     24  C   UNL     1      -1.076  -3.388  -5.235  0.00  0.00    -0.018 C 
ATOM     25  C   UNL     1      -0.049  -3.963  -6.212  0.00  0.00    +0.002 C 
ENDBRANCH  19  24
ENDBRANCH   1  19
TORSDOF 8
