REMARK  Name = ZINC37563104
REMARK  6 active torsions:
REMARK  status: ('A' for Active; 'I' for Inactive)
REMARK    1  A    between atoms: C_2  and  C_9
REMARK    2  A    between atoms: C_5  and  N_6
REMARK    3  A    between atoms: C_9  and  N_10
REMARK    4  A    between atoms: N_10  and  C_11
REMARK    5  A    between atoms: N_14  and  C_17
REMARK    6  A    between atoms: C_17  and  C_18
REMARK                            x       y       z     vdW  Elec       q    Type
REMARK                         _______ _______ _______ _____ _____    ______ ____
ROOT
ATOM      1  N   UNL     1       1.221   4.027   1.396  0.00  0.00    +0.384 N 
ATOM      2  H   UNL     1       0.398   3.699   1.878  0.00  0.00    -0.085 HD
ATOM      3  H   UNL     1       2.045   3.679   1.863  0.00  0.00    -0.085 HD
ENDROOT
BRANCH   1   4
ATOM      4  C   UNL     1       1.239   5.496   1.404  0.00  0.00    -0.069 C 
ATOM      5  C   UNL     1       2.551   5.995   0.791  0.00  0.00    -0.000 C 
ATOM      6  C   UNL     1       2.591   7.523   0.857  0.00  0.00    +0.083 C 
ATOM      7  N   UNL     1       2.487   7.957   2.256  0.00  0.00    -0.294 NA
ATOM      8  C   UNL     1       1.214   7.530   2.851  0.00  0.00    +0.083 C 
ATOM      9  C   UNL     1       1.133   6.002   2.845  0.00  0.00    -0.000 C 
BRANCH   7  10
ATOM     10  C   UNL     1       2.660   9.411   2.370  0.00  0.00    +0.180 C 
BRANCH  10  11
ATOM     11  C   UNL     1       2.793   9.789   3.824  0.00  0.00    +0.225 C 
ATOM     12  O   UNL     1       2.748   8.931   4.679  0.00  0.00    -0.275 OA
ATOM     13  N   UNL     1       2.962  11.079   4.172  0.00  0.00    -0.328 N 
ATOM     14  H   UNL     1       2.999  11.766   3.487  0.00  0.00    +0.145 HD
ATOM     15  H   UNL     1       3.048  11.322   5.107  0.00  0.00    +0.145 HD
ENDBRANCH  10  11
ENDBRANCH   7  10
ENDBRANCH   1   4
BRANCH   1  16
ATOM     16  C   UNL     1       1.202   3.545   0.009  0.00  0.00    -0.046 C 
BRANCH  16  18
ATOM     17  C   UNL     1      -0.016   1.351   0.009  0.00  0.00    +0.042 A 
ATOM     18  C   UNL     1       1.183   2.038   0.002  0.00  0.00    -0.055 A 
ATOM     19  C   UNL     1       2.343   1.336  -0.013  0.00  0.00    +0.049 A 
ATOM     20  S   UNL     1       1.754  -0.349  -0.017  0.00  0.00    -0.073 S 
ATOM     21  C   UNL     1       0.002  -0.004   0.002  0.00  0.00    +0.164 A 
BRANCH  21  22
ATOM     22  N   UNL     1      -1.135  -0.952   0.008  0.00  0.00    +0.063 N 
ATOM     23  O   UNL     1      -2.270  -0.535   0.021  0.00  0.00    -0.126 OA
ATOM     24  O   UNL     1      -0.929  -2.143  -0.001  0.00  0.00    -0.126 OA
ENDBRANCH  21  22
ENDBRANCH  16  18
ENDBRANCH   1  16
TORSDOF 6
