REMARK  Name = ZINC61813708
REMARK  6 active torsions:
REMARK  status: ('A' for Active; 'I' for Inactive)
REMARK    1  A    between atoms: C_1  and  N_2
REMARK    2  A    between atoms: N_2  and  C_3
REMARK    3  A    between atoms: N_2  and  C_11
REMARK    4  A    between atoms: C_3  and  C_4
REMARK    5  A    between atoms: C_15  and  C_17
REMARK    6  A    between atoms: N_18  and  O_19
REMARK                            x       y       z     vdW  Elec       q    Type
REMARK                         _______ _______ _______ _____ _____    ______ ____
ROOT
ATOM      1  C   UNL     1       0.000  -0.694  -1.207  0.00  0.00    +0.033 A 
ATOM      2  C   UNL     1       0.013  -2.088  -1.235  0.00  0.00    +0.040 A 
ATOM      3  C   UNL     1       0.011  -2.740  -2.452  0.00  0.00    +0.085 A 
ATOM      4  N   UNL     1      -0.003  -2.064  -3.583  0.00  0.00    -0.358 N 
ATOM      5  C   UNL     1      -0.016  -0.736  -3.605  0.00  0.00    +0.084 A 
ATOM      6  C   UNL     1      -0.021  -0.008  -2.420  0.00  0.00    +0.052 A 
ATOM      7  H   UNL     1      -0.004  -2.549  -4.423  0.00  0.00    +0.165 HD
ENDROOT
BRANCH   5   8
ATOM      8  C   UNL     1      -0.030  -0.023  -4.904  0.00  0.00    +0.179 C 
ATOM      9  N   UNL     1      -0.042   1.277  -4.932  0.00  0.00    -0.070 NA
ATOM     10  N   UNL     1      -0.031  -0.741  -6.088  0.00  0.00    -0.339 N 
ATOM     11  H   UNL     1      -0.022  -1.711  -6.067  0.00  0.00    +0.144 HD
ATOM     12  H   UNL     1      -0.040  -0.275  -6.938  0.00  0.00    +0.144 HD
BRANCH   9  13
ATOM     13  O   UNL     1      -0.056   1.958  -6.173  0.00  0.00    -0.408 OA
ATOM     14  H   UNL     1      -0.064   2.921  -6.093  0.00  0.00    +0.328 HD
ENDBRANCH   9  13
ENDBRANCH   5   8
BRANCH   1  16
ATOM     15  C   UNL     1      -0.018   1.461   0.010  0.00  0.00    +0.129 C 
ATOM     16  N   UNL     1       0.002  -0.004   0.002  0.00  0.00    -0.329 N 
BRANCH  16  17
ATOM     17  C   UNL     1       0.024  -0.743   1.267  0.00  0.00    +0.139 C 
BRANCH  17  18
ATOM     18  C   UNL     1      -1.389  -1.016   1.714  0.00  0.00    -0.030 A 
ATOM     19  C   UNL     1      -2.047  -0.105   2.518  0.00  0.00    +0.006 A 
ATOM     20  C   UNL     1      -3.343  -0.354   2.928  0.00  0.00    +0.015 A 
ATOM     21  C   UNL     1      -3.982  -1.516   2.533  0.00  0.00    +0.018 A 
ATOM     22  C   UNL     1      -3.323  -2.428   1.728  0.00  0.00    +0.015 A 
ATOM     23  C   UNL     1      -2.029  -2.175   1.314  0.00  0.00    +0.006 A 
ATOM     24 BR   UNL     1      -5.755  -1.859   3.094  0.00  0.00    -0.050 Br
ENDBRANCH  17  18
ENDBRANCH  16  17
ENDBRANCH   1  16
TORSDOF 5
