REMARK  Name = ZINC37615882
REMARK  6 active torsions:
REMARK  status: ('A' for Active; 'I' for Inactive)
REMARK    1  A    between atoms: C_1  and  C_2
REMARK    2  A    between atoms: C_2  and  C_3
REMARK    3  A    between atoms: C_2  and  C_19
REMARK    4  A    between atoms: C_2  and  N_22
REMARK    5  A    between atoms: C_6  and  C_9
REMARK    6  A    between atoms: C_13  and  N_15
REMARK                            x       y       z     vdW  Elec       q    Type
REMARK                         _______ _______ _______ _____ _____    ______ ____
ROOT
ATOM      1  C   UNL     1       0.731  -0.503   1.223  0.00  0.00    +0.096 A 
ATOM      2  N   UNL     1       0.322  -0.344   2.501  0.00  0.00    -0.343 N 
ATOM      3  H   UNL     1      -0.484   0.108   2.796  0.00  0.00    +0.167 HD
ATOM      4  C   UNL     1       1.265  -0.943   3.305  0.00  0.00    +0.066 A 
ATOM      5  C   UNL     1       2.217  -1.447   2.474  0.00  0.00    +0.139 A 
ATOM      6  N   UNL     1       1.857  -1.165   1.216  0.00  0.00    -0.242 NA
ENDROOT
BRANCH   4   7
ATOM      7  C   UNL     1       1.247  -1.023   4.782  0.00  0.00    +0.002 A 
ATOM      8  C   UNL     1       0.192  -0.459   5.501  0.00  0.00    +0.011 A 
ATOM      9  C   UNL     1       0.181  -0.536   6.878  0.00  0.00    +0.023 A 
ATOM     10  C   UNL     1       1.213  -1.172   7.547  0.00  0.00    +0.071 A 
ATOM     11  C   UNL     1       2.262  -1.733   6.839  0.00  0.00    +0.145 A 
ATOM     12  C   UNL     1       2.281  -1.668   5.461  0.00  0.00    +0.044 A 
ATOM     13 CL   UNL     1       1.192  -1.265   9.280  0.00  0.00    -0.081 Cl
BRANCH  11  14
ATOM     14  N   UNL     1       3.362  -2.411   7.561  0.00  0.00    +0.058 N 
ATOM     15  O   UNL     1       4.279  -2.901   6.944  0.00  0.00    -0.126 OA
ATOM     16  O   UNL     1       3.344  -2.474   8.768  0.00  0.00    -0.126 OA
ENDBRANCH  11  14
ENDBRANCH   4   7
BRANCH   1  18
ATOM     17  C   UNL     1      -0.019   1.526   0.010  0.00  0.00    -0.002 C 
ATOM     18  C   UNL     1       0.002  -0.004   0.002  0.00  0.00    -0.012 C 
BRANCH  18  19
ATOM     19  N   UNL     1      -1.376  -0.512   0.012  0.00  0.00    +0.387 N 
ATOM     20  H   UNL     1      -1.864  -0.178  -0.805  0.00  0.00    -0.089 HD
ATOM     21  H   UNL     1      -1.362  -1.521   0.007  0.00  0.00    -0.089 HD
ATOM     22  H   UNL     1      -1.848  -0.187   0.843  0.00  0.00    -0.089 HD
ENDBRANCH  18  19
BRANCH  18  23
ATOM     23  C   UNL     1       0.718  -0.497  -1.257  0.00  0.00    -0.016 C 
ATOM     24  C   UNL     1       1.526   0.526  -2.057  0.00  0.00    +0.003 C 
ATOM     25  C   UNL     1       0.199   0.001  -2.607  0.00  0.00    +0.003 C 
ENDBRANCH  18  23
ENDBRANCH   1  18
TORSDOF 5
