REMARK  Name = ZINC48743420
REMARK  10 active torsions:
REMARK  status: ('A' for Active; 'I' for Inactive)
REMARK    1  A    between atoms: C_1  and  N_2
REMARK    2  A    between atoms: N_2  and  C_3
REMARK    3  A    between atoms: N_2  and  C_4
REMARK    4  A    between atoms: C_4  and  C_6
REMARK    5  A    between atoms: C_4  and  C_23
REMARK    6  A    between atoms: C_6  and  N_7
REMARK    7  A    between atoms: C_8  and  C_10
REMARK    8  A    between atoms: N_12  and  C_13
REMARK    9  A    between atoms: C_18  and  C_19
REMARK   10  A    between atoms: C_19  and  C_20
REMARK                            x       y       z     vdW  Elec       q    Type
REMARK                         _______ _______ _______ _____ _____    ______ ____
ROOT
ATOM      1  C   UNL     1       0.765  -4.591   1.668  0.00  0.00    +0.303 C 
ATOM      2  O   UNL     1       1.197  -3.904   2.571  0.00  0.00    -0.265 OA
ATOM      3  N   UNL     1       1.010  -5.917   1.654  0.00  0.00    -0.277 N 
ATOM      4  H   UNL     1       0.709  -6.457   0.907  0.00  0.00    +0.155 HD
ENDROOT
BRANCH   3   5
ATOM      5  C   UNL     1       1.696  -6.512   2.716  0.00  0.00    +0.037 A 
ATOM      6  C   UNL     1       2.574  -5.759   3.487  0.00  0.00    +0.023 A 
ATOM      7  C   UNL     1       3.251  -6.350   4.535  0.00  0.00    +0.002 A 
ATOM      8  C   UNL     1       3.057  -7.690   4.817  0.00  0.00    +0.000 A 
ATOM      9  C   UNL     1       2.185  -8.442   4.052  0.00  0.00    +0.006 A 
ATOM     10  C   UNL     1       1.500  -7.856   3.006  0.00  0.00    -0.017 A 
BRANCH  10  11
ATOM     11  C   UNL     1       0.544  -8.675   2.176  0.00  0.00    +0.132 C 
BRANCH  11  12
ATOM     12  C   UNL     1       1.257  -9.192   0.953  0.00  0.00    +0.215 C 
ATOM     13  O   UNL     1       2.426  -8.922   0.773  0.00  0.00    -0.276 OA
ATOM     14  N   UNL     1       0.596  -9.954   0.060  0.00  0.00    -0.329 N 
ATOM     15  H   UNL     1      -0.339 -10.170   0.204  0.00  0.00    +0.145 HD
ATOM     16  H   UNL     1       1.055 -10.287  -0.727  0.00  0.00    +0.145 HD
ENDBRANCH  11  12
ENDBRANCH  10  11
ENDBRANCH   3   5
BRANCH   1  18
ATOM     17  N   UNL     1      -0.280  -2.643   0.587  0.00  0.00    -0.309 N 
ATOM     18  C   UNL     1      -0.036  -3.968   0.573  0.00  0.00    +0.299 C 
ATOM     19  O   UNL     1      -0.468  -4.655  -0.329  0.00  0.00    -0.265 OA
ATOM     20  H   UNL     1       0.065  -2.093   1.309  0.00  0.00    +0.149 HD
BRANCH  17  21
ATOM     21  C   UNL     1      -1.067  -2.031  -0.487  0.00  0.00    +0.094 C 
BRANCH  21  22
ATOM     22  C   UNL     1      -1.302  -0.553  -0.169  0.00  0.00    -0.014 C 
BRANCH  22  23
ATOM     23  C   UNL     1      -2.073  -0.433   1.120  0.00  0.00    -0.022 A 
ATOM     24  C   UNL     1      -1.616  -0.149   2.365  0.00  0.00    +0.009 A 
ATOM     25  C   UNL     1      -2.516  -0.089   3.412  0.00  0.00    +0.008 A 
ATOM     26  C   UNL     1      -3.830  -0.315   3.163  0.00  0.00    +0.045 A 
ATOM     27  S   UNL     1      -3.825  -0.619   1.404  0.00  0.00    -0.103 S 
ENDBRANCH  22  23
BRANCH  22  29
ATOM     28  C   UNL     1      -2.204   1.507  -1.005  0.00  0.00    -0.096 C 
ATOM     29  N   UNL     1      -2.069   0.066  -1.258  0.00  0.00    +0.382 N 
ATOM     30  C   UNL     1      -1.369  -0.144  -2.532  0.00  0.00    -0.096 C 
ATOM     31  H   UNL     1      -2.986  -0.354  -1.305  0.00  0.00    -0.082 HD
ENDBRANCH  22  29
ENDBRANCH  21  22
ENDBRANCH  17  21
ENDBRANCH   1  18
TORSDOF 8
