REMARK  Name = ZINC01856515
REMARK  14 active torsions:
REMARK  status: ('A' for Active; 'I' for Inactive)
REMARK    1  A    between atoms: C_1  and  C_2
REMARK    2  A    between atoms: C_2  and  C_3
REMARK    3  A    between atoms: C_2  and  N_67
REMARK    4  A    between atoms: C_4  and  C_5
REMARK    5  A    between atoms: C_4  and  N_67
REMARK    6  A    between atoms: C_5  and  C_7
REMARK    7  A    between atoms: C_5  and  O_35
REMARK    8  A    between atoms: C_10  and  O_27
REMARK    9  A    between atoms: C_11  and  O_19
REMARK   10  A    between atoms: C_12  and  C_13
REMARK   11  A    between atoms: O_19  and  C_20
REMARK   12  A    between atoms: C_20  and  C_21
REMARK   13  A    between atoms: O_27  and  C_28
REMARK   14  A    between atoms: C_28  and  C_29
REMARK                            x       y       z     vdW  Elec       q    Type
REMARK                         _______ _______ _______ _____ _____    ______ ____
ROOT
ATOM      1  C   UNL     1       7.597  -3.098  -1.902  0.00  0.00    -0.010 A 
ATOM      2  C   UNL     1       7.016  -2.885  -0.668  0.00  0.00    +0.010 A 
ATOM      3  C   UNL     1       5.925  -2.043  -0.548  0.00  0.00    +0.050 A 
ATOM      4  C   UNL     1       5.400  -1.416  -1.667  0.00  0.00    +0.163 A 
ATOM      5  C   UNL     1       5.977  -1.623  -2.914  0.00  0.00    +0.170 A 
ATOM      6  C   UNL     1       7.082  -2.469  -3.034  0.00  0.00    +0.033 A 
ENDROOT
BRANCH   6   7
ATOM      7  C   UNL     1       7.705  -2.697  -4.361  0.00  0.00    -0.014 A 
ATOM      8  C   UNL     1       8.979  -2.202  -4.629  0.00  0.00    +0.008 A 
ATOM      9  C   UNL     1       9.556  -2.421  -5.864  0.00  0.00    +0.001 A 
ATOM     10  C   UNL     1       8.867  -3.122  -6.837  0.00  0.00    +0.000 A 
ATOM     11  C   UNL     1       7.600  -3.611  -6.578  0.00  0.00    +0.001 A 
ATOM     12  C   UNL     1       7.015  -3.403  -5.345  0.00  0.00    +0.008 A 
ENDBRANCH   6   7
BRANCH   1  13
ATOM     13  C   UNL     1       8.790  -4.011  -2.025  0.00  0.00    +0.128 C 
BRANCH  13  14
ATOM     14  O   UNL     1       9.488  -4.053  -0.778  0.00  0.00    -0.389 OA
ATOM     15  H   UNL     1       8.955  -4.378  -0.040  0.00  0.00    +0.210 HD
ENDBRANCH  13  14
BRANCH  13  16
ATOM     16  C   UNL     1       8.318  -5.419  -2.393  0.00  0.00    -0.046 C 
BRANCH  16  17
ATOM     17  N   UNL     1       9.495  -6.275  -2.636  0.00  0.00    +0.382 N 
ATOM     18  H   UNL     1      10.048  -5.880  -3.406  0.00  0.00    -0.085 HD
ATOM     19  H   UNL     1      10.070  -6.311  -1.786  0.00  0.00    -0.085 HD
BRANCH  17  21
ATOM     20  C   UNL     1      10.171  -8.311  -3.818  0.00  0.00    -0.014 C 
ATOM     21  C   UNL     1       9.069  -7.641  -2.994  0.00  0.00    -0.078 C 
ATOM     22  C   UNL     1       8.824  -8.450  -1.719  0.00  0.00    -0.014 C 
ENDBRANCH  17  21
ENDBRANCH  16  17
ENDBRANCH  13  16
ENDBRANCH   1  13
BRANCH   5  23
ATOM     23  O   UNL     1       5.468  -1.006  -4.013  0.00  0.00    -0.483 OA
BRANCH  23  24
ATOM     24  C   UNL     1       5.924   0.321  -4.281  0.00  0.00    +0.264 C 
BRANCH  24  25
ATOM     25  C   UNL     1       5.167   0.884  -5.457  0.00  0.00    -0.010 A 
ATOM     26  C   UNL     1       5.654   0.712  -6.739  0.00  0.00    +0.007 A 
ATOM     27  C   UNL     1       4.958   1.224  -7.817  0.00  0.00    +0.000 A 
ATOM     28  C   UNL     1       3.780   1.918  -7.613  0.00  0.00    +0.000 A 
ATOM     29  C   UNL     1       3.296   2.095  -6.330  0.00  0.00    +0.000 A 
ATOM     30  C   UNL     1       3.989   1.578  -5.252  0.00  0.00    +0.007 A 
ENDBRANCH  24  25
ENDBRANCH  23  24
ENDBRANCH   5  23
BRANCH   4  31
ATOM     31  O   UNL     1       4.324  -0.594  -1.544  0.00  0.00    -0.484 OA
BRANCH  31  32
ATOM     32  C   UNL     1       3.782  -0.426  -0.232  0.00  0.00    +0.264 C 
BRANCH  32  33
ATOM     33  C   UNL     1       2.604   0.512  -0.291  0.00  0.00    -0.010 A 
ATOM     34  C   UNL     1       1.332   0.013  -0.502  0.00  0.00    +0.007 A 
ATOM     35  C   UNL     1       0.252   0.874  -0.556  0.00  0.00    +0.000 A 
ATOM     36  C   UNL     1       0.444   2.234  -0.399  0.00  0.00    +0.000 A 
ATOM     37  C   UNL     1       1.715   2.733  -0.188  0.00  0.00    +0.000 A 
ATOM     38  C   UNL     1       2.796   1.872  -0.134  0.00  0.00    +0.007 A 
ENDBRANCH  32  33
ENDBRANCH  31  32
ENDBRANCH   4  31
TORSDOF 12
