REMARK  Name = ZINC46346363
REMARK  8 active torsions:
REMARK  status: ('A' for Active; 'I' for Inactive)
REMARK    1  A    between atoms: C_1  and  N_2
REMARK    2  A    between atoms: N_2  and  C_3
REMARK    3  A    between atoms: N_2  and  C_4
REMARK    4  A    between atoms: C_4  and  C_6
REMARK    5  A    between atoms: C_4  and  C_21
REMARK    6  A    between atoms: C_6  and  N_7
REMARK    7  A    between atoms: N_10  and  N_11
REMARK    8  A    between atoms: N_14  and  C_15
REMARK                            x       y       z     vdW  Elec       q    Type
REMARK                         _______ _______ _______ _____ _____    ______ ____
ROOT
ATOM      1  N   UNL     1      -0.283  -2.861   0.942  0.00  0.00    -0.299 N 
ATOM      2  C   UNL     1      -0.077  -4.191   1.018  0.00  0.00    +0.316 C 
ATOM      3  O   UNL     1      -0.578  -4.931   0.194  0.00  0.00    -0.251 OA
ATOM      4  N   UNL     1       0.683  -4.699   2.008  0.00  0.00    -0.217 N 
ATOM      5  H   UNL     1       0.116  -2.269   1.599  0.00  0.00    +0.150 HD
ATOM      6  H   UNL     1       0.831  -5.656   2.063  0.00  0.00    +0.174 HD
ENDROOT
BRANCH   4   7
ATOM      7  N   UNL     1       1.259  -3.845   2.958  0.00  0.00    -0.217 N 
ATOM      8  C   UNL     1       2.020  -4.353   3.948  0.00  0.00    +0.320 C 
ATOM      9  O   UNL     1       2.520  -3.612   4.772  0.00  0.00    -0.251 OA
ATOM     10  N   UNL     1       2.225  -5.683   4.024  0.00  0.00    -0.268 N 
ATOM     11  H   UNL     1       1.111  -2.888   2.903  0.00  0.00    +0.174 HD
ATOM     12  H   UNL     1       1.899  -6.266   3.321  0.00  0.00    +0.156 HD
BRANCH  10  13
ATOM     13  C   UNL     1       2.910  -6.223   5.119  0.00  0.00    +0.035 A 
ATOM     14  C   UNL     1       3.738  -7.325   4.947  0.00  0.00    +0.023 A 
ATOM     15  C   UNL     1       4.412  -7.856   6.029  0.00  0.00    +0.002 A 
ATOM     16  C   UNL     1       4.262  -7.292   7.283  0.00  0.00    +0.000 A 
ATOM     17  C   UNL     1       3.438  -6.195   7.458  0.00  0.00    +0.002 A 
ATOM     18  C   UNL     1       2.767  -5.656   6.378  0.00  0.00    +0.023 A 
ENDBRANCH  10  13
ENDBRANCH   4   7
BRANCH   1  19
ATOM     19  C   UNL     1      -1.109  -2.308  -0.135  0.00  0.00    +0.095 C 
BRANCH  19  20
ATOM     20  C   UNL     1      -1.285  -0.803   0.079  0.00  0.00    -0.020 C 
BRANCH  20  21
ATOM     21  C   UNL     1      -1.989  -0.561   1.389  0.00  0.00    -0.052 A 
ATOM     22  C   UNL     1      -1.273  -0.196   2.514  0.00  0.00    +0.009 A 
ATOM     23  C   UNL     1      -1.937   0.014   3.677  0.00  0.00    +0.045 A 
ATOM     24  S   UNL     1      -3.627  -0.306   3.200  0.00  0.00    -0.105 S 
ATOM     25  C   UNL     1      -3.335  -0.693   1.482  0.00  0.00    +0.047 A 
ENDBRANCH  20  21
BRANCH  20  27
ATOM     26  C   UNL     1      -2.170   1.216  -0.868  0.00  0.00    -0.096 C 
ATOM     27  N   UNL     1      -2.086  -0.243  -1.018  0.00  0.00    +0.382 N 
ATOM     28  C   UNL     1      -1.452  -0.568  -2.302  0.00  0.00    -0.096 C 
ATOM     29  H   UNL     1      -3.014  -0.638  -0.992  0.00  0.00    -0.082 HD
ENDBRANCH  20  27
ENDBRANCH  19  20
ENDBRANCH   1  19
TORSDOF 6
