REMARK  Name = ZINC04730167
REMARK  7 active torsions:
REMARK  status: ('A' for Active; 'I' for Inactive)
REMARK    1  A    between atoms: C_1  and  C_2
REMARK    2  A    between atoms: C_7  and  C_8
REMARK    3  A    between atoms: C_10  and  C_23
REMARK    4  A    between atoms: C_13  and  C_15
REMARK    5  A    between atoms: C_18  and  O_21
REMARK    6  A    between atoms: O_21  and  C_22
REMARK    7  A    between atoms: C_28  and  O_29
REMARK                            x       y       z     vdW  Elec       q    Type
REMARK                         _______ _______ _______ _____ _____    ______ ____
ROOT
ATOM      1  C   UNL     1      -0.774   1.527  -1.133  0.00  0.00    +0.081 C 
ATOM      2  C   UNL     1       1.356   1.551  -0.003  0.00  0.00    -0.028 C 
ATOM      3  C   UNL     1       2.092   0.977  -1.217  0.00  0.00    +0.044 C 
ATOM      4  C   UNL     1       1.220   1.101  -2.436  0.00  0.00    +0.040 C 
ATOM      5  N   UNL     1      -0.037   1.338  -2.375  0.00  0.00    -0.299 NA
ATOM      6  N   UNL     1      -0.013   1.002   0.011  0.00  0.00    +0.401 N 
ATOM      7  H   UNL     1       0.030  -0.022  -0.050  0.00  0.00    -0.081 HD
ATOM      8  H   UNL     1      -0.480   1.273   0.884  0.00  0.00    -0.081 HD
ENDROOT
BRANCH   1  15
ATOM      9  C   UNL     1      -2.157   1.351  -3.663  0.00  0.00    +0.044 C 
ATOM     10  C   UNL     1      -2.754   0.717  -2.433  0.00  0.00    -0.047 A 
ATOM     11  C   UNL     1      -3.961   0.048  -2.516  0.00  0.00    +0.003 A 
ATOM     12  C   UNL     1      -4.510  -0.529  -1.387  0.00  0.00    +0.000 A 
ATOM     13  C   UNL     1      -3.851  -0.441  -0.175  0.00  0.00    +0.000 A 
ATOM     14  C   UNL     1      -2.642   0.225  -0.092  0.00  0.00    +0.004 A 
ATOM     15  C   UNL     1      -2.092   0.801  -1.222  0.00  0.00    -0.038 A 
ENDBRANCH   1  15
BRANCH   4  16
ATOM     16  C   UNL     1       1.842   0.942  -3.763  0.00  0.00    -0.004 A 
ATOM     17  C   UNL     1       3.212   0.688  -3.869  0.00  0.00    +0.013 A 
ATOM     18  C   UNL     1       3.788   0.535  -5.111  0.00  0.00    +0.046 A 
ATOM     19  C   UNL     1       3.011   0.644  -6.258  0.00  0.00    +0.120 A 
ATOM     20  C   UNL     1       1.649   0.901  -6.157  0.00  0.00    +0.046 A 
ATOM     21  C   UNL     1       1.064   1.050  -4.919  0.00  0.00    +0.013 A 
BRANCH  19  22
ATOM     22  O   UNL     1       3.583   0.498  -7.480  0.00  0.00    -0.495 OA
ATOM     23  C   UNL     1       4.988   0.235  -7.511  0.00  0.00    +0.277 C 
ENDBRANCH  19  22
ENDBRANCH   4  16
BRANCH   2  24
ATOM     24  C   UNL     1       2.072   1.153   1.262  0.00  0.00    -0.019 A 
ATOM     25  C   UNL     1       1.682   0.020   1.950  0.00  0.00    +0.005 A 
ATOM     26  C   UNL     1       2.340  -0.347   3.109  0.00  0.00    +0.000 A 
ATOM     27  C   UNL     1       3.388   0.419   3.584  0.00  0.00    +0.004 A 
ATOM     28  C   UNL     1       3.782   1.553   2.901  0.00  0.00    +0.045 A 
ATOM     29  C   UNL     1       3.127   1.920   1.734  0.00  0.00    +0.118 A 
BRANCH  29  30
ATOM     30  O   UNL     1       3.516   3.032   1.056  0.00  0.00    -0.507 OA
ATOM     31  H   UNL     1       3.064   3.840   1.333  0.00  0.00    +0.292 HD
ENDBRANCH  29  30
ENDBRANCH   2  24
TORSDOF 5
