REMARK  Name = ZINC63513891
REMARK  11 active torsions:
REMARK  status: ('A' for Active; 'I' for Inactive)
REMARK    1  A    between atoms: C_1  and  C_2
REMARK    2  A    between atoms: C_4  and  C_12
REMARK    3  A    between atoms: C_12  and  C_13
REMARK    4  A    between atoms: C_13  and  N_14
REMARK    5  A    between atoms: C_15  and  C_17
REMARK    6  A    between atoms: C_17  and  N_27
REMARK    7  A    between atoms: C_18  and  C_19
REMARK    8  A    between atoms: C_22  and  O_25
REMARK    9  A    between atoms: O_25  and  C_26
REMARK   10  A    between atoms: C_28  and  C_30
REMARK   11  A    between atoms: C_34  and  N_36
REMARK                            x       y       z     vdW  Elec       q    Type
REMARK                         _______ _______ _______ _____ _____    ______ ____
ROOT
ATOM      1  C   UNL     1      -7.166  -1.397  -2.462  0.00  0.00    +0.097 C 
ATOM      2  C   UNL     1      -8.425  -1.687  -2.057  0.00  0.00    +0.036 C 
ENDROOT
BRANCH   2   3
ATOM      3  C   UNL     1      -9.565  -1.391  -2.936  0.00  0.00    -0.023 A 
ATOM      4  C   UNL     1      -9.369  -1.236  -4.313  0.00  0.00    +0.011 A 
ATOM      5  C   UNL     1     -10.441  -0.959  -5.131  0.00  0.00    +0.046 A 
ATOM      6  C   UNL     1     -11.716  -0.833  -4.592  0.00  0.00    +0.120 A 
ATOM      7  C   UNL     1     -11.916  -0.985  -3.225  0.00  0.00    +0.046 A 
ATOM      8  C   UNL     1     -10.852  -1.269  -2.399  0.00  0.00    +0.011 A 
BRANCH   6   9
ATOM      9  O   UNL     1     -12.770  -0.559  -5.404  0.00  0.00    -0.495 OA
ATOM     10  C   UNL     1     -14.053  -0.442  -4.785  0.00  0.00    +0.277 C 
ENDBRANCH   6   9
ENDBRANCH   2   3
BRANCH   1  12
ATOM     11  N   UNL     1      -4.764  -1.541  -2.058  0.00  0.00    -0.310 N 
ATOM     12  C   UNL     1      -6.017  -1.829  -1.655  0.00  0.00    +0.258 C 
ATOM     13  O   UNL     1      -6.197  -2.448  -0.623  0.00  0.00    -0.269 OA
ATOM     14  H   UNL     1      -4.620  -1.048  -2.881  0.00  0.00    +0.149 HD
BRANCH  11  15
ATOM     15  C   UNL     1      -3.618  -1.972  -1.253  0.00  0.00    +0.109 C 
BRANCH  15  16
ATOM     16  C   UNL     1      -2.322  -1.521  -1.928  0.00  0.00    +0.052 C 
BRANCH  16  19
ATOM     17  C   UNL     1       0.612  -0.228  -1.452  0.00  0.00    +0.035 C 
ATOM     18  C   UNL     1       0.320  -1.729  -1.401  0.00  0.00    +0.103 C 
ATOM     19  C   UNL     1      -1.143  -1.965  -1.100  0.00  0.00    -0.037 C 
ATOM     20  C   UNL     1      -1.180  -2.655   0.063  0.00  0.00    -0.001 A 
ATOM     21  C   UNL     1      -2.286  -3.179   0.874  0.00  0.00    +0.010 A 
ATOM     22  C   UNL     1      -2.003  -3.844   2.017  0.00  0.00    +0.001 A 
ATOM     23  C   UNL     1      -0.684  -4.045   2.445  0.00  0.00    +0.002 A 
ATOM     24  C   UNL     1       0.384  -3.594   1.754  0.00  0.00    +0.026 A 
ATOM     25  C   UNL     1       0.204  -2.881   0.537  0.00  0.00    +0.043 A 
ATOM     26  N   UNL     1       1.064  -2.352  -0.301  0.00  0.00    -0.378 N 
ATOM     27  H   UNL     1       2.030  -2.369  -0.209  0.00  0.00    +0.160 HD
ENDBRANCH  16  19
ENDBRANCH  15  16
ENDBRANCH  11  15
ENDBRANCH   1  12
BRANCH   1  28
ATOM     28  N   UNL     1      -6.958  -0.686  -3.649  0.00  0.00    -0.277 N 
ATOM     29  C   UNL     1      -6.215  -1.224  -4.636  0.00  0.00    +0.248 C 
ATOM     30  O   UNL     1      -5.634  -2.277  -4.455  0.00  0.00    -0.270 OA
ATOM     31  H   UNL     1      -7.350   0.194  -3.761  0.00  0.00    +0.155 HD
BRANCH  29  32
ATOM     32  C   UNL     1      -6.106  -0.535  -5.939  0.00  0.00    +0.039 A 
ATOM     33  C   UNL     1      -6.670   0.730  -6.112  0.00  0.00    +0.013 A 
ATOM     34  C   UNL     1      -6.565   1.368  -7.330  0.00  0.00    +0.003 A 
ATOM     35  C   UNL     1      -5.901   0.757  -8.380  0.00  0.00    +0.033 A 
ATOM     36  C   UNL     1      -5.340  -0.496  -8.215  0.00  0.00    +0.127 A 
ATOM     37  C   UNL     1      -5.433  -1.143  -7.000  0.00  0.00    +0.045 A 
BRANCH  36  38
ATOM     38  N   UNL     1      -4.633  -1.143  -9.343  0.00  0.00    +0.056 N 
ATOM     39  O   UNL     1      -4.546  -0.576 -10.407  0.00  0.00    -0.126 OA
ATOM     40  O   UNL     1      -4.141  -2.239  -9.200  0.00  0.00    -0.126 OA
ENDBRANCH  36  38
ENDBRANCH  29  32
ENDBRANCH   1  28
TORSDOF 9
