REMARK  Name = ZINC44251832
REMARK  7 active torsions:
REMARK  status: ('A' for Active; 'I' for Inactive)
REMARK    1  A    between atoms: C_1  and  C_2
REMARK    2  A    between atoms: C_5  and  S_8
REMARK    3  A    between atoms: S_8  and  N_11
REMARK    4  A    between atoms: C_13  and  C_20
REMARK    5  A    between atoms: C_20  and  C_22
REMARK    6  A    between atoms: C_20  and  N_26
REMARK    7  A    between atoms: C_22  and  C_23
REMARK                            x       y       z     vdW  Elec       q    Type
REMARK                         _______ _______ _______ _____ _____    ______ ____
ROOT
ATOM      1  N   UNL     1       1.651  -4.999  -0.034  0.00  0.00    -0.218 N 
ATOM      2  C   UNL     1       2.275  -5.687   0.971  0.00  0.00    +0.115 A 
ATOM      3  C   UNL     1       3.558  -5.909   0.646  0.00  0.00    -0.034 A 
ATOM      4  C   UNL     1       3.774  -5.315  -0.675  0.00  0.00    +0.003 A 
ATOM      5  C   UNL     1       2.539  -4.761  -1.059  0.00  0.00    +0.072 A 
ATOM      6  C   UNL     1       2.431  -4.123  -2.291  0.00  0.00    +0.028 A 
ATOM      7  C   UNL     1       3.530  -4.045  -3.119  0.00  0.00    +0.002 A 
ATOM      8  C   UNL     1       4.745  -4.595  -2.737  0.00  0.00    +0.001 A 
ATOM      9  C   UNL     1       4.875  -5.219  -1.528  0.00  0.00    +0.010 A 
ENDROOT
BRANCH   1  10
ATOM     10  S   UNL     1       0.063  -4.530  -0.023  0.00  0.00    +0.084 S 
ATOM     11  O   UNL     1      -0.476  -4.950   1.223  0.00  0.00    -0.148 OA
ATOM     12  O   UNL     1      -0.490  -4.937  -1.267  0.00  0.00    -0.148 OA
BRANCH  10  17
ATOM     13  C   UNL     1      -0.018   1.503   0.010  0.00  0.00    +0.044 C 
ATOM     14  C   UNL     1       0.002  -0.004   0.002  0.00  0.00    -0.050 A 
ATOM     15  C   UNL     1       0.006  -0.689  -1.199  0.00  0.00    +0.005 A 
ATOM     16  C   UNL     1       0.025  -2.071  -1.206  0.00  0.00    +0.029 A 
ATOM     17  C   UNL     1       0.040  -2.768  -0.013  0.00  0.00    +0.111 A 
ATOM     18  C   UNL     1       0.037  -2.084   1.188  0.00  0.00    +0.029 A 
ATOM     19  C   UNL     1       0.023  -0.702   1.195  0.00  0.00    +0.005 A 
ENDBRANCH  10  17
ENDBRANCH   1  10
BRANCH   3  20
ATOM     20  C   UNL     1       4.583  -6.631   1.483  0.00  0.00    -0.033 C 
BRANCH  20  21
ATOM     21  N   UNL     1       4.144  -6.651   2.885  0.00  0.00    +0.383 N 
ATOM     22  H   UNL     1       4.830  -7.134   3.445  0.00  0.00    -0.089 HD
ATOM     23  H   UNL     1       4.044  -5.704   3.219  0.00  0.00    -0.089 HD
ATOM     24  H   UNL     1       3.258  -7.127   2.953  0.00  0.00    -0.089 HD
ENDBRANCH  20  21
BRANCH  20  25
ATOM     25  C   UNL     1       4.734  -8.066   0.976  0.00  0.00    +0.084 C 
BRANCH  25  26
ATOM     26  C   UNL     1       5.845  -8.751   1.731  0.00  0.00    +0.209 C 
ATOM     27  O   UNL     1       6.454  -8.150   2.590  0.00  0.00    -0.276 OA
ATOM     28  N   UNL     1       6.160 -10.031   1.451  0.00  0.00    -0.329 N 
ATOM     29  H   UNL     1       5.672 -10.512   0.764  0.00  0.00    +0.145 HD
ATOM     30  H   UNL     1       6.875 -10.472   1.937  0.00  0.00    +0.145 HD
ENDBRANCH  25  26
ENDBRANCH  20  25
ENDBRANCH   3  20
TORSDOF 6
