REMARK  Name = ZINC39945142
REMARK  7 active torsions:
REMARK  status: ('A' for Active; 'I' for Inactive)
REMARK    1  A    between atoms: C_4  and  C_7
REMARK    2  A    between atoms: C_7  and  C_9
REMARK    3  A    between atoms: C_7  and  O_20
REMARK    4  A    between atoms: C_9  and  C_11
REMARK    5  A    between atoms: O_20  and  C_21
REMARK    6  A    between atoms: C_21  and  C_23
REMARK    7  A    between atoms: N_32  and  C_34
REMARK                            x       y       z     vdW  Elec       q    Type
REMARK                         _______ _______ _______ _____ _____    ______ ____
ROOT
ATOM      1  O   UNL     1       3.968  -2.002   0.670  0.00  0.00    -0.444 OA
ENDROOT
BRANCH   1   2
ATOM      2  C   UNL     1       4.155  -1.891   2.000  0.00  0.00    +0.361 C 
ATOM      3  O   UNL     1       4.514  -0.833   2.478  0.00  0.00    -0.243 OA
BRANCH   2   4
ATOM      4  C   UNL     1       3.924  -3.055   2.877  0.00  0.00    +0.176 A 
ATOM      5  C   UNL     1       4.120  -2.942   4.331  0.00  0.00    +0.021 A 
ATOM      6  C   UNL     1       4.525  -1.763   4.948  0.00  0.00    +0.011 A 
ATOM      7  C   UNL     1       4.687  -1.737   6.317  0.00  0.00    +0.001 A 
ATOM      8  C   UNL     1       4.452  -2.871   7.083  0.00  0.00    +0.001 A 
ATOM      9  C   UNL     1       4.050  -4.050   6.492  0.00  0.00    +0.014 A 
ATOM     10  C   UNL     1       3.880  -4.097   5.112  0.00  0.00    +0.051 A 
ATOM     11  C   UNL     1       3.455  -5.311   4.401  0.00  0.00    +0.280 A 
ATOM     12  O   UNL     1       3.231  -6.341   5.008  0.00  0.00    -0.265 OA
ATOM     13  N   UNL     1       3.320  -5.256   3.060  0.00  0.00    -0.196 N 
ATOM     14  N   UNL     1       3.536  -4.201   2.370  0.00  0.00    -0.156 NA
BRANCH  13  15
ATOM     15  C   UNL     1       2.915  -6.415   2.388  0.00  0.00    +0.069 A 
ATOM     16  C   UNL     1       1.810  -7.129   2.835  0.00  0.00    +0.028 A 
ATOM     17  C   UNL     1       1.413  -8.272   2.170  0.00  0.00    +0.002 A 
ATOM     18  C   UNL     1       2.114  -8.706   1.060  0.00  0.00    +0.000 A 
ATOM     19  C   UNL     1       3.215  -7.998   0.612  0.00  0.00    +0.002 A 
ATOM     20  C   UNL     1       3.613  -6.851   1.270  0.00  0.00    +0.028 A 
ENDBRANCH  13  15
ENDBRANCH   2   4
ENDBRANCH   1   2
BRANCH   1  21
ATOM     21  C   UNL     1       4.210  -0.835  -0.118  0.00  0.00    +0.277 C 
BRANCH  21  25
ATOM     22  C   UNL     1       0.605   1.431  -0.456  0.00  0.00    +0.000 A 
ATOM     23  C   UNL     1       1.824   2.079  -0.379  0.00  0.00    +0.000 A 
ATOM     24  C   UNL     1       2.990   1.345  -0.270  0.00  0.00    +0.008 A 
ATOM     25  C   UNL     1       2.938  -0.035  -0.236  0.00  0.00    +0.000 A 
ATOM     26  C   UNL     1       1.719  -0.683  -0.312  0.00  0.00    +0.008 A 
ATOM     27  C   UNL     1       0.553   0.050  -0.423  0.00  0.00    +0.000 A 
ENDBRANCH  21  25
BRANCH  21  28
ATOM     28  C   UNL     1       4.676  -1.244  -1.492  0.00  0.00    +0.206 C 
ATOM     29  O   UNL     1       4.452  -2.366  -1.899  0.00  0.00    -0.288 OA
BRANCH  28  30
ATOM     30  C   UNL     1       5.371  -0.324  -2.304  0.00  0.00    +0.027 C 
ATOM     31  C   UNL     1       5.858  -0.537  -3.581  0.00  0.00    +0.006 A 
ATOM     32  C   UNL     1       5.833  -1.657  -4.447  0.00  0.00    +0.010 A 
ATOM     33  C   UNL     1       6.401  -1.584  -5.671  0.00  0.00    +0.001 A 
ATOM     34  C   UNL     1       7.033  -0.422  -6.141  0.00  0.00    +0.002 A 
ATOM     35  C   UNL     1       7.112   0.701  -5.394  0.00  0.00    +0.026 A 
ATOM     36  C   UNL     1       6.518   0.707  -4.047  0.00  0.00    +0.043 A 
ATOM     37  N   UNL     1       6.450   1.631  -3.131  0.00  0.00    -0.380 N 
ATOM     38  C   UNL     1       5.735   1.105  -1.964  0.00  0.00    +0.152 C 
ATOM     39  H   UNL     1       6.812   2.527  -3.210  0.00  0.00    +0.160 HD
ENDBRANCH  28  30
ENDBRANCH  21  28
ENDBRANCH   1  21
TORSDOF 7
