REMARK  Name = ZINC59578068
REMARK  10 active torsions:
REMARK  status: ('A' for Active; 'I' for Inactive)
REMARK    1  A    between atoms: C_1  and  C_2
REMARK    2  A    between atoms: C_2  and  C_4
REMARK    3  A    between atoms: C_2  and  N_14
REMARK    4  A    between atoms: C_8  and  C_10
REMARK    5  A    between atoms: N_14  and  C_15
REMARK    6  A    between atoms: N_14  and  C_29
REMARK    7  A    between atoms: C_15  and  C_16
REMARK    8  A    between atoms: N_18  and  C_19
REMARK    9  A    between atoms: C_23  and  S_25
REMARK   10  A    between atoms: S_25  and  N_28
REMARK                            x       y       z     vdW  Elec       q    Type
REMARK                         _______ _______ _______ _____ _____    ______ ____
ROOT
ATOM      1  N   UNL     1       0.346  -0.565  -1.046  0.00  0.00    +0.392 N 
ATOM      2  H   UNL     1       0.001  -0.209  -1.925  0.00  0.00    -0.080 HD
ENDROOT
BRANCH   1   3
ATOM      3  C   UNL     1       1.615   0.096  -0.716  0.00  0.00    -0.067 C 
ATOM      4  C   UNL     1       2.009   1.323  -1.541  0.00  0.00    -0.017 C 
ATOM      5  C   UNL     1       2.750  -0.001  -1.738  0.00  0.00    -0.017 C 
ENDBRANCH   1   3
BRANCH   1   7
ATOM      6  C   UNL     1      -0.799   1.218   0.182  0.00  0.00    -0.008 C 
ATOM      7  C   UNL     1      -0.637  -0.293   0.011  0.00  0.00    -0.040 C 
BRANCH   7   8
ATOM      8  C   UNL     1      -1.963  -0.901  -0.368  0.00  0.00    -0.061 A 
ATOM      9  C   UNL     1      -2.402  -0.840  -1.677  0.00  0.00    +0.002 A 
ATOM     10  C   UNL     1      -3.619  -1.397  -2.025  0.00  0.00    +0.001 A 
ATOM     11  C   UNL     1      -4.396  -2.016  -1.063  0.00  0.00    +0.012 A 
ATOM     12  C   UNL     1      -3.956  -2.077   0.246  0.00  0.00    +0.055 A 
ATOM     13  C   UNL     1      -2.738  -1.524   0.593  0.00  0.00    +0.014 A 
BRANCH  12  14
ATOM     14  C   UNL     1      -4.804  -2.751   1.294  0.00  0.00    +0.417 C 
ATOM     15  F   UNL     1      -5.979  -3.232   0.706  0.00  0.00    -0.166 F 
ATOM     16  F   UNL     1      -4.092  -3.817   1.855  0.00  0.00    -0.166 F 
ATOM     17  F   UNL     1      -5.127  -1.829   2.296  0.00  0.00    -0.166 F 
ENDBRANCH  12  14
ENDBRANCH   7   8
ENDBRANCH   1   7
BRANCH   1  18
ATOM     18  C   UNL     1       0.562  -2.014  -1.154  0.00  0.00    +0.020 C 
BRANCH  18  19
ATOM     19  C   UNL     1       1.155  -2.530   0.131  0.00  0.00    +0.201 C 
ATOM     20  O   UNL     1       1.441  -1.757   1.021  0.00  0.00    -0.278 OA
ATOM     21  N   UNL     1       1.369  -3.851   0.291  0.00  0.00    -0.287 N 
ATOM     22  H   UNL     1       1.200  -4.463  -0.443  0.00  0.00    +0.155 HD
BRANCH  21  23
ATOM     23  C   UNL     1       1.836  -4.341   1.516  0.00  0.00    +0.035 A 
ATOM     24  C   UNL     1       1.419  -5.585   1.972  0.00  0.00    +0.023 A 
ATOM     25  C   UNL     1       1.881  -6.066   3.182  0.00  0.00    +0.004 A 
ATOM     26  C   UNL     1       2.757  -5.309   3.939  0.00  0.00    +0.028 A 
ATOM     27  C   UNL     1       3.173  -4.070   3.488  0.00  0.00    +0.107 A 
ATOM     28  C   UNL     1       2.720  -3.587   2.276  0.00  0.00    +0.051 A 
BRANCH  27  29
ATOM     29  S   UNL     1       4.289  -3.111   4.456  0.00  0.00    +0.056 S 
ATOM     30  O   UNL     1       4.098  -1.756   4.072  0.00  0.00    -0.153 OA
ATOM     31  O   UNL     1       4.142  -3.550   5.800  0.00  0.00    -0.153 OA
BRANCH  29  32
ATOM     32  N   UNL     1       5.823  -3.523   3.989  0.00  0.00    -0.204 NA
ATOM     33  H   UNL     1       5.956  -4.188   3.295  0.00  0.00    +0.144 HD
ATOM     34  H   UNL     1       6.588  -3.101   4.409  0.00  0.00    +0.144 HD
ENDBRANCH  29  32
ENDBRANCH  27  29
ENDBRANCH  21  23
ENDBRANCH  18  19
ENDBRANCH   1  18
TORSDOF 9
