REMARK  Name = ZINC67292517
REMARK  5 active torsions:
REMARK  status: ('A' for Active; 'I' for Inactive)
REMARK    1  A    between atoms: C_1  and  C_2
REMARK    2  A    between atoms: C_7  and  N_8
REMARK    3  A    between atoms: C_10  and  C_20
REMARK    4  A    between atoms: N_22  and  C_23
REMARK    5  A    between atoms: C_23  and  C_24
REMARK                            x       y       z     vdW  Elec       q    Type
REMARK                         _______ _______ _______ _____ _____    ______ ____
ROOT
ATOM      1  N   UNL     1      -0.038  -0.007   2.390  0.00  0.00    -0.325 N 
ATOM      2  C   UNL     1      -0.102  -0.684   3.517  0.00  0.00    +0.212 A 
ATOM      3  C   UNL     1      -0.186   0.010   4.817  0.00  0.00    +0.097 A 
ATOM      4  C   UNL     1      -0.801  -0.672   5.859  0.00  0.00    +0.030 A 
ATOM      5  C   UNL     1      -1.310  -2.016   5.575  0.00  0.00    +0.019 A 
ATOM      6  C   UNL     1      -2.169  -2.660   6.474  0.00  0.00    +0.026 A 
ATOM      7  C   UNL     1      -2.636  -3.923   6.182  0.00  0.00    +0.019 A 
ATOM      8  C   UNL     1      -2.261  -4.555   5.005  0.00  0.00    +0.019 A 
ATOM      9  C   UNL     1      -1.414  -3.932   4.110  0.00  0.00    +0.048 A 
ATOM     10  C   UNL     1      -0.930  -2.662   4.384  0.00  0.00    +0.137 A 
ATOM     11  O   UNL     1      -0.098  -2.041   3.518  0.00  0.00    -0.439 OA
ATOM     12 BR   UNL     1      -3.795  -4.799   7.393  0.00  0.00    -0.050 Br
ATOM     13  H   UNL     1      -0.034   0.963   2.407  0.00  0.00    +0.169 HD
ENDROOT
BRANCH   1  20
ATOM     14  C   UNL     1      -1.890   0.739   0.369  0.00  0.00    +0.046 C 
ATOM     15  C   UNL     1      -0.864  -0.345   0.167  0.00  0.00    -0.026 A 
ATOM     16  C   UNL     1      -0.793  -1.015  -1.037  0.00  0.00    +0.025 A 
ATOM     17  C   UNL     1       0.149  -2.012  -1.225  0.00  0.00    +0.041 A 
ATOM     18  C   UNL     1       1.027  -2.344  -0.206  0.00  0.00    +0.022 A 
ATOM     19  C   UNL     1       0.968  -1.682   1.002  0.00  0.00    +0.027 A 
ATOM     20  C   UNL     1       0.023  -0.671   1.196  0.00  0.00    +0.045 A 
ATOM     21 CL   UNL     1       0.231  -2.849  -2.743  0.00  0.00    -0.084 Cl
ENDBRANCH   1  20
BRANCH   3  22
ATOM     22  C   UNL     1       0.358   1.366   5.002  0.00  0.00    +0.249 C 
ATOM     23  O   UNL     1       0.836   1.964   4.056  0.00  0.00    -0.270 OA
ATOM     24  N   UNL     1       0.328   1.945   6.218  0.00  0.00    -0.309 N 
ATOM     25  H   UNL     1      -0.107   1.494   6.959  0.00  0.00    +0.149 HD
BRANCH  24  26
ATOM     26  C   UNL     1       0.952   3.254   6.422  0.00  0.00    +0.136 C 
BRANCH  26  27
ATOM     27  C   UNL     1       0.777   3.681   7.881  0.00  0.00    +0.135 C 
ATOM     28  C   UNL     1       1.399   5.081   8.111  0.00  0.00    +0.035 C 
ATOM     29  C   UNL     1       0.587   5.567   9.342  0.00  0.00    +0.031 C 
ATOM     30  C   UNL     1      -0.800   4.937   9.088  0.00  0.00    +0.160 C 
ATOM     31  O   UNL     1      -0.618   3.833   8.193  0.00  0.00    -0.375 OA
ENDBRANCH  26  27
ENDBRANCH  24  26
ENDBRANCH   3  22
TORSDOF 4
