REMARK  Name = ZINC44964069
REMARK  12 active torsions:
REMARK  status: ('A' for Active; 'I' for Inactive)
REMARK    1  A    between atoms: C_1  and  C_2
REMARK    2  A    between atoms: C_2  and  C_3
REMARK    3  A    between atoms: C_8  and  C_11
REMARK    4  A    between atoms: N_13  and  C_14
REMARK    5  A    between atoms: C_14  and  C_16
REMARK    6  A    between atoms: C_14  and  C_32
REMARK    7  A    between atoms: C_18  and  O_31
REMARK    8  A    between atoms: C_20  and  O_30
REMARK    9  A    between atoms: C_22  and  O_29
REMARK   10  A    between atoms: C_24  and  S_27
REMARK   11  A    between atoms: S_27  and  C_28
REMARK   12  A    between atoms: C_32  and  C_34
REMARK                            x       y       z     vdW  Elec       q    Type
REMARK                         _______ _______ _______ _____ _____    ______ ____
ROOT
ATOM      1  C   UNL     1       0.394  -5.976   3.110  0.00  0.00    +0.122 C 
ENDROOT
BRANCH   1   2
ATOM      2  C   UNL     1      -0.621  -6.091   4.248  0.00  0.00    +0.172 C 
ATOM      3  C   UNL     1       0.041  -5.679   5.566  0.00  0.00    +0.176 C 
ATOM      4  C   UNL     1       1.194  -6.639   5.872  0.00  0.00    +0.177 C 
ATOM      5  C   UNL     1       0.652  -8.072   5.917  0.00  0.00    +0.184 C 
ATOM      6  C   UNL     1      -0.033  -8.392   4.586  0.00  0.00    +0.207 C 
ATOM      7  O   UNL     1      -1.075  -7.443   4.348  0.00  0.00    -0.356 OA
BRANCH   6   8
ATOM      8  S   UNL     1      -0.740 -10.061   4.655  0.00  0.00    -0.131 S 
ATOM      9  C   UNL     1      -1.019 -10.492   2.916  0.00  0.00    +0.087 C 
ENDBRANCH   6   8
BRANCH   5  10
ATOM     10  O   UNL     1       1.731  -8.984   6.131  0.00  0.00    -0.386 OA
ATOM     11  H   UNL     1       1.460  -9.911   6.171  0.00  0.00    +0.210 HD
ENDBRANCH   5  10
BRANCH   4  12
ATOM     12  O   UNL     1       1.772  -6.305   7.135  0.00  0.00    -0.386 OA
ATOM     13  H   UNL     1       2.510  -6.875   7.393  0.00  0.00    +0.210 HD
ENDBRANCH   4  12
BRANCH   3  14
ATOM     14  O   UNL     1       0.545  -4.347   5.450  0.00  0.00    -0.387 OA
ATOM     15  H   UNL     1       0.979  -4.019   6.250  0.00  0.00    +0.210 HD
ENDBRANCH   3  14
ENDBRANCH   1   2
BRANCH   1  18
ATOM     16  C   UNL     1       2.180  -4.411   2.562  0.00  0.00    +0.199 C 
ATOM     17  O   UNL     1       2.808  -5.337   2.094  0.00  0.00    -0.278 OA
ATOM     18  N   UNL     1       0.961  -4.625   3.095  0.00  0.00    -0.310 N 
ATOM     19  H   UNL     1       0.458  -3.885   3.470  0.00  0.00    +0.149 HD
BRANCH  16  24
ATOM     20  C   UNL     1       2.750  -0.816   1.379  0.00  0.00    -0.014 C 
ATOM     21  C   UNL     1       4.275  -0.916   1.276  0.00  0.00    -0.016 C 
ATOM     22  C   UNL     1       4.804  -1.760   2.438  0.00  0.00    -0.081 C 
ATOM     23  N   UNL     1       4.218  -3.104   2.378  0.00  0.00    +0.387 N 
ATOM     24  C   UNL     1       2.763  -3.022   2.548  0.00  0.00    +0.016 C 
ATOM     25  C   UNL     1       2.153  -2.226   1.391  0.00  0.00    -0.003 C 
ATOM     26  H   UNL     1       4.429  -3.522   1.484  0.00  0.00    -0.085 HD
ATOM     27  H   UNL     1       4.610  -3.674   3.114  0.00  0.00    -0.085 HD
BRANCH  20  29
ATOM     28  C   UNL     1       2.708   1.403   0.232  0.00  0.00    +0.004 C 
ATOM     29  C   UNL     1       2.207  -0.041   0.176  0.00  0.00    -0.000 C 
ENDBRANCH  20  29
ENDBRANCH  16  24
ENDBRANCH   1  18
BRANCH   1  30
ATOM     30  C   UNL     1      -0.303  -6.251   1.776  0.00  0.00    +0.100 C 
ATOM     31  C   UNL     1       0.675  -5.994   0.627  0.00  0.00    +0.026 C 
ATOM     32 CL   UNL     1      -0.851  -7.968   1.726  0.00  0.00    -0.120 Cl
ENDBRANCH   1  30
TORSDOF 9
