REMARK  Name = ZINC67610147
REMARK  10 active torsions:
REMARK  status: ('A' for Active; 'I' for Inactive)
REMARK    1  A    between atoms: C_1  and  C_2
REMARK    2  A    between atoms: C_2  and  C_4
REMARK    3  A    between atoms: C_2  and  N_14
REMARK    4  A    between atoms: C_8  and  S_10
REMARK    5  A    between atoms: S_10  and  N_13
REMARK    6  A    between atoms: N_17  and  C_18
REMARK    7  A    between atoms: N_17  and  C_19
REMARK    8  A    between atoms: C_19  and  C_21
REMARK    9  A    between atoms: C_19  and  C_22
REMARK   10  A    between atoms: C_26  and  O_28
REMARK                            x       y       z     vdW  Elec       q    Type
REMARK                         _______ _______ _______ _____ _____    ______ ____
ROOT
ATOM      1  N   UNL     1      -1.380  -0.497   0.014  0.00  0.00    -0.293 N 
ATOM      2  C   UNL     1      -2.062  -0.626  -1.141  0.00  0.00    +0.303 C 
ATOM      3  O   UNL     1      -1.544  -0.302  -2.192  0.00  0.00    -0.253 OA
ATOM      4  N   UNL     1      -3.318  -1.115  -1.131  0.00  0.00    -0.282 N 
ATOM      5  C   UNL     1      -3.942  -1.506   0.135  0.00  0.00    +0.134 C 
ATOM      6  H   UNL     1      -1.794  -0.756   0.853  0.00  0.00    +0.151 HD
ENDROOT
BRANCH   1   8
ATOM      7  C   UNL     1      -0.062   1.563   0.031  0.00  0.00    +0.033 C 
ATOM      8  C   UNL     1      -0.015   0.034   0.004  0.00  0.00    +0.102 C 
BRANCH   8   9
ATOM      9  C   UNL     1       0.729  -0.467   1.215  0.00  0.00    -0.026 A 
ATOM     10  C   UNL     1       0.085  -0.549   2.436  0.00  0.00    +0.005 A 
ATOM     11  C   UNL     1       0.767  -1.009   3.547  0.00  0.00    +0.002 A 
ATOM     12  C   UNL     1       2.092  -1.388   3.437  0.00  0.00    +0.028 A 
ATOM     13  C   UNL     1       2.735  -1.307   2.216  0.00  0.00    +0.105 A 
ATOM     14  C   UNL     1       2.052  -0.851   1.104  0.00  0.00    +0.034 A 
BRANCH  13  15
ATOM     15  S   UNL     1       4.424  -1.789   2.076  0.00  0.00    +0.056 S 
ATOM     16  O   UNL     1       4.949  -1.104   0.947  0.00  0.00    -0.153 OA
ATOM     17  O   UNL     1       4.990  -1.666   3.373  0.00  0.00    -0.153 OA
BRANCH  15  18
ATOM     18  N   UNL     1       4.443  -3.402   1.702  0.00  0.00    -0.204 NA
ATOM     19  H   UNL     1       3.609  -3.887   1.604  0.00  0.00    +0.144 HD
ATOM     20  H   UNL     1       5.289  -3.862   1.581  0.00  0.00    +0.144 HD
ENDBRANCH  15  18
ENDBRANCH  13  15
ENDBRANCH   8   9
ENDBRANCH   1   8
BRANCH   4  21
ATOM     21  C   UNL     1      -4.059  -1.256  -2.387  0.00  0.00    +0.104 C 
ATOM     22  C   UNL     1      -4.563  -2.694  -2.524  0.00  0.00    +0.033 C 
BRANCH  21  23
ATOM     23  C   UNL     1      -5.233  -0.310  -2.387  0.00  0.00    -0.024 A 
ATOM     24  C   UNL     1      -5.397   0.588  -3.425  0.00  0.00    +0.006 A 
ATOM     25  C   UNL     1      -6.472   1.457  -3.428  0.00  0.00    +0.004 A 
ATOM     26  C   UNL     1      -7.386   1.430  -2.391  0.00  0.00    +0.045 A 
ATOM     27  C   UNL     1      -7.223   0.530  -1.348  0.00  0.00    +0.117 A 
ATOM     28  C   UNL     1      -6.146  -0.345  -1.351  0.00  0.00    +0.050 A 
BRANCH  27  29
ATOM     29  O   UNL     1      -8.120   0.502  -0.328  0.00  0.00    -0.507 OA
ATOM     30  H   UNL     1      -8.861  -0.103  -0.472  0.00  0.00    +0.292 HD
ENDBRANCH  27  29
ENDBRANCH  21  23
ENDBRANCH   4  21
TORSDOF 7
