REMARK  Name = ZINC09102283
REMARK  11 active torsions:
REMARK  status: ('A' for Active; 'I' for Inactive)
REMARK    1  A    between atoms: C_1  and  C_2
REMARK    2  A    between atoms: C_2  and  C_4
REMARK    3  A    between atoms: C_2  and  N_53
REMARK    4  A    between atoms: C_7  and  S_16
REMARK    5  A    between atoms: N_8  and  C_9
REMARK    6  A    between atoms: S_16  and  C_17
REMARK    7  A    between atoms: C_17  and  C_19
REMARK    8  A    between atoms: C_17  and  C_20
REMARK    9  A    between atoms: N_22  and  C_23
REMARK   10  A    between atoms: C_32  and  N_53
REMARK   11  A    between atoms: C_33  and  N_53
REMARK                            x       y       z     vdW  Elec       q    Type
REMARK                         _______ _______ _______ _____ _____    ______ ____
ROOT
ATOM      1  C   UNL     1       0.001   1.499  -0.046  0.00  0.00    +0.125 A 
ATOM      2  N   UNL     1      -1.061   2.254  -0.033  0.00  0.00    -0.135 NA
ATOM      3  N   UNL     1      -0.722   3.494  -0.014  0.00  0.00    -0.122 NA
ATOM      4  C   UNL     1       0.586   3.600  -0.023  0.00  0.00    +0.197 A 
ATOM      5  N   UNL     1       1.091   2.329  -0.044  0.00  0.00    -0.275 N 
ENDROOT
BRANCH   5   6
ATOM      6  C   UNL     1       2.442   1.954  -0.061  0.00  0.00    +0.050 A 
ATOM      7  C   UNL     1       2.987   1.269   1.017  0.00  0.00    +0.028 A 
ATOM      8  C   UNL     1       4.317   0.896   0.996  0.00  0.00    +0.022 A 
ATOM      9  C   UNL     1       5.109   1.214  -0.093  0.00  0.00    +0.041 A 
ATOM     10  C   UNL     1       4.569   1.901  -1.166  0.00  0.00    +0.022 A 
ATOM     11  C   UNL     1       3.239   2.272  -1.152  0.00  0.00    +0.028 A 
ATOM     12 CL   UNL     1       6.781   0.749  -0.114  0.00  0.00    -0.084 Cl
ENDBRANCH   5   6
BRANCH   1  14
ATOM     13  C   UNL     1      -0.351  -0.505  -1.463  0.00  0.00    -0.005 C 
ATOM     14  C   UNL     1       0.026  -0.007  -0.066  0.00  0.00    -0.003 C 
BRANCH  14  17
ATOM     15  C   UNL     1      -0.941  -1.995   0.923  0.00  0.00    -0.096 C 
ATOM     16  C   UNL     1      -0.662   0.007   2.256  0.00  0.00    -0.096 C 
ATOM     17  N   UNL     1      -0.964  -0.517   0.907  0.00  0.00    +0.382 N 
ATOM     18  H   UNL     1      -1.899  -0.201   0.628  0.00  0.00    -0.082 HD
ENDBRANCH  14  17
ENDBRANCH   1  14
BRANCH   4  19
ATOM     19  S   UNL     1       1.516   5.097  -0.011  0.00  0.00    -0.073 S 
BRANCH  19  20
ATOM     20  C   UNL     1       0.168   6.304   0.016  0.00  0.00    +0.137 C 
ATOM     21  C   UNL     1      -0.607   6.173   1.328  0.00  0.00    +0.029 C 
BRANCH  20  22
ATOM     22  C   UNL     1       0.737   7.695  -0.095  0.00  0.00    +0.230 C 
ATOM     23  O   UNL     1       1.902   7.897   0.177  0.00  0.00    -0.274 OA
ATOM     24  N   UNL     1      -0.048   8.715  -0.496  0.00  0.00    -0.282 N 
ATOM     25  H   UNL     1      -0.961   8.543  -0.775  0.00  0.00    +0.155 HD
BRANCH  24  26
ATOM     26  C   UNL     1       0.455  10.023  -0.510  0.00  0.00    +0.072 A 
ATOM     27  C   UNL     1       1.787  10.252  -0.825  0.00  0.00    +0.029 A 
ATOM     28  C   UNL     1       2.282  11.542  -0.839  0.00  0.00    +0.043 A 
ATOM     29  C   UNL     1       1.451  12.608  -0.538  0.00  0.00    +0.161 A 
ATOM     30  C   UNL     1       0.119  12.384  -0.223  0.00  0.00    +0.195 A 
ATOM     31  C   UNL     1      -0.382  11.093  -0.213  0.00  0.00    +0.182 A 
ATOM     32  F   UNL     1      -1.680  10.873   0.089  0.00  0.00    -0.200 F 
ATOM     33  F   UNL     1      -0.690  13.425   0.070  0.00  0.00    -0.199 F 
ATOM     34  F   UNL     1       1.938  13.868  -0.552  0.00  0.00    -0.202 F 
ENDBRANCH  24  26
ENDBRANCH  20  22
ENDBRANCH  19  20
ENDBRANCH   4  19
TORSDOF 7
