REMARK  Name = ZINC31160519
REMARK  17 active torsions:
REMARK  status: ('A' for Active; 'I' for Inactive)
REMARK    1  A    between atoms: C_1  and  C_2
REMARK    2  A    between atoms: C_2  and  C_3
REMARK    3  A    between atoms: C_2  and  C_12
REMARK    4  A    between atoms: C_2  and  O_14
REMARK    5  A    between atoms: C_3  and  C_4
REMARK    6  A    between atoms: C_4  and  C_5
REMARK    7  A    between atoms: C_5  and  C_7
REMARK    8  A    between atoms: C_5  and  O_11
REMARK    9  A    between atoms: C_7  and  C_8
REMARK   10  A    between atoms: C_7  and  C_9
REMARK   11  A    between atoms: C_7  and  O_10
REMARK   12  A    between atoms: O_14  and  C_15
REMARK   13  A    between atoms: C_17  and  O_30
REMARK   14  A    between atoms: C_19  and  O_29
REMARK   15  A    between atoms: C_21  and  O_28
REMARK   16  A    between atoms: C_23  and  C_26
REMARK   17  A    between atoms: C_26  and  O_27
REMARK                            x       y       z     vdW  Elec       q    Type
REMARK                         _______ _______ _______ _____ _____    ______ ____
ROOT
ATOM      1  O   UNL     1       0.697  -0.468  -1.144  0.00  0.00    -0.338 OA
ENDROOT
BRANCH   1   2
ATOM      2  C   UNL     1       0.220   0.091  -2.369  0.00  0.00    +0.283 C 
ATOM      3  C   UNL     1       1.196  -0.248  -3.499  0.00  0.00    +0.201 C 
ATOM      4  C   UNL     1       0.648   0.303  -4.819  0.00  0.00    +0.179 C 
ATOM      5  C   UNL     1      -0.749  -0.278  -5.062  0.00  0.00    +0.177 C 
ATOM      6  C   UNL     1      -1.649   0.064  -3.872  0.00  0.00    +0.178 C 
ATOM      7  O   UNL     1      -1.067  -0.451  -2.673  0.00  0.00    -0.340 OA
BRANCH   5   8
ATOM      8  O   UNL     1      -1.299   0.285  -6.255  0.00  0.00    -0.386 OA
ATOM      9  H   UNL     1      -0.776   0.111  -7.050  0.00  0.00    +0.210 HD
ENDBRANCH   5   8
BRANCH   4  10
ATOM     10  O   UNL     1       1.516  -0.071  -5.891  0.00  0.00    -0.386 OA
ATOM     11  H   UNL     1       2.420   0.259  -5.798  0.00  0.00    +0.210 HD
ENDBRANCH   4  10
BRANCH   3  12
ATOM     12  O   UNL     1       2.468   0.341  -3.225  0.00  0.00    -0.384 OA
ATOM     13  H   UNL     1       2.872   0.039  -2.400  0.00  0.00    +0.210 HD
ENDBRANCH   3  12
BRANCH   6  14
ATOM     14  C   UNL     1      -3.029  -0.564  -4.080  0.00  0.00    +0.190 C 
BRANCH  14  15
ATOM     15  O   UNL     1      -3.903  -0.150  -3.028  0.00  0.00    -0.392 OA
ATOM     16  H   UNL     1      -4.798  -0.511  -3.095  0.00  0.00    +0.210 HD
ENDBRANCH  14  15
ENDBRANCH   6  14
ENDBRANCH   1   2
BRANCH   1  18
ATOM     17  C   UNL     1       0.094   1.541   0.056  0.00  0.00    +0.046 C 
ATOM     18  C   UNL     1       0.018   0.014   0.018  0.00  0.00    +0.088 C 
BRANCH  18  19
ATOM     19  C   UNL     1      -1.425  -0.416  -0.029  0.00  0.00    -0.000 C 
ATOM     20  C   UNL     1      -2.378   0.475   0.082  0.00  0.00    +0.007 C 
ENDBRANCH  18  19
BRANCH  18  21
ATOM     21  C   UNL     1       0.682  -0.561   1.271  0.00  0.00    +0.041 C 
BRANCH  21  22
ATOM     22  C   UNL     1       2.110  -0.024   1.384  0.00  0.00    +0.037 C 
BRANCH  22  23
ATOM     23  C   UNL     1       2.773  -0.599   2.637  0.00  0.00    +0.146 C 
BRANCH  23  24
ATOM     24  C   UNL     1       4.155   0.033   2.818  0.00  0.00    +0.086 C 
ATOM     25  C   UNL     1       4.869  -0.631   3.998  0.00  0.00    +0.043 C 
ATOM     26  C   UNL     1       4.979  -0.168   1.545  0.00  0.00    +0.043 C 
BRANCH  24  27
ATOM     27  O   UNL     1       4.009   1.431   3.075  0.00  0.00    -0.387 OA
ATOM     28  H   UNL     1       3.496   1.633   3.870  0.00  0.00    +0.210 HD
ENDBRANCH  24  27
ENDBRANCH  23  24
BRANCH  23  29
ATOM     29  O   UNL     1       2.912  -2.014   2.496  0.00  0.00    -0.389 OA
ATOM     30  H   UNL     1       3.450  -2.283   1.739  0.00  0.00    +0.210 HD
ENDBRANCH  23  29
ENDBRANCH  22  23
ENDBRANCH  21  22
ENDBRANCH  18  21
ENDBRANCH   1  18
TORSDOF 14
