REMARK  Name = ZINC66121812
REMARK  4 active torsions:
REMARK  status: ('A' for Active; 'I' for Inactive)
REMARK    1  A    between atoms: C_7  and  N_13
REMARK    2  A    between atoms: C_20  and  C_23
REMARK    3  A    between atoms: C_23  and  C_24
REMARK    4  A    between atoms: C_24  and  C_25
REMARK                            x       y       z     vdW  Elec       q    Type
REMARK                         _______ _______ _______ _____ _____    ______ ____
ROOT
ATOM      1  N   UNL     1      -0.112  -2.698   0.257  0.00  0.00    -0.292 N 
ATOM      2  C   UNL     1      -0.587  -2.808   1.514  0.00  0.00    +0.303 C 
ATOM      3  O   UNL     1       0.137  -2.567   2.461  0.00  0.00    -0.253 OA
ATOM      4  N   UNL     1      -1.865  -3.183   1.721  0.00  0.00    -0.285 N 
ATOM      5  C   UNL     1      -2.717  -3.589   0.595  0.00  0.00    +0.109 C 
ATOM      6  C   UNL     1      -4.003  -2.758   0.626  0.00  0.00    +0.019 C 
ATOM      7  C   UNL     1      -4.665  -2.900   1.999  0.00  0.00    +0.006 C 
ATOM      8  C   UNL     1      -3.720  -2.368   3.079  0.00  0.00    +0.007 C 
ATOM      9  C   UNL     1      -2.429  -3.201   3.077  0.00  0.00    +0.112 C 
ATOM     10  H   UNL     1      -0.665  -2.960  -0.495  0.00  0.00    +0.151 HD
ENDROOT
BRANCH   1  17
ATOM     11  C   UNL     1      -0.021   1.381   0.011  0.00  0.00    +0.001 A 
ATOM     12  C   UNL     1       1.165   2.091   0.004  0.00  0.00    +0.004 A 
ATOM     13  C   UNL     1       2.375   1.425  -0.021  0.00  0.00    +0.046 A 
ATOM     14  C   UNL     1       2.394   0.036  -0.033  0.00  0.00    +0.125 A 
ATOM     15  C   UNL     1       1.208  -0.668  -0.010  0.00  0.00    +0.014 A 
ATOM     16  C   UNL     1      -0.001  -0.003   0.003  0.00  0.00    +0.009 A 
ATOM     17  C   UNL     1       1.240  -2.184   0.028  0.00  0.00    +0.108 C 
ATOM     18  C   UNL     1       1.767  -2.696  -1.313  0.00  0.00    +0.030 C 
ATOM     19  C   UNL     1       3.288  -2.679  -1.338  0.00  0.00    +0.043 C 
ATOM     20  C   UNL     1       3.876  -1.284  -1.317  0.00  0.00    +0.229 C 
ATOM     21  O   UNL     1       3.584  -0.624  -0.081  0.00  0.00    -0.492 OA
ENDBRANCH   1  17
BRANCH   8  22
ATOM     22  C   UNL     1      -4.396  -2.479   4.448  0.00  0.00    +0.014 C 
BRANCH  22  23
ATOM     23  C   UNL     1      -3.504  -1.835   5.511  0.00  0.00    +0.096 C 
BRANCH  23  24
ATOM     24  C   UNL     1      -4.169  -1.945   6.858  0.00  0.00    +0.210 C 
ATOM     25  O   UNL     1      -5.251  -2.485   6.959  0.00  0.00    -0.276 OA
ATOM     26  N   UNL     1      -3.563  -1.442   7.952  0.00  0.00    -0.329 N 
ATOM     27  H   UNL     1      -2.698  -1.010   7.872  0.00  0.00    +0.145 HD
ATOM     28  H   UNL     1      -3.991  -1.513   8.820  0.00  0.00    +0.145 HD
ENDBRANCH  23  24
ENDBRANCH  22  23
ENDBRANCH   8  22
TORSDOF 4
