REMARK  Name = ZINC37615609
REMARK  6 active torsions:
REMARK  status: ('A' for Active; 'I' for Inactive)
REMARK    1  A    between atoms: C_1  and  C_2
REMARK    2  A    between atoms: C_2  and  C_3
REMARK    3  A    between atoms: C_2  and  C_6
REMARK    4  A    between atoms: C_2  and  N_21
REMARK    5  A    between atoms: N_8  and  C_9
REMARK    6  A    between atoms: C_15  and  C_17
REMARK                            x       y       z     vdW  Elec       q    Type
REMARK                         _______ _______ _______ _____ _____    ______ ____
ROOT
ATOM      1  C   UNL     1      -1.412  -0.526   0.013  0.00  0.00    +0.202 C 
ATOM      2  O   UNL     1      -1.939  -0.827   1.062  0.00  0.00    -0.277 OA
ATOM      3  N   UNL     1      -2.090  -0.657  -1.144  0.00  0.00    -0.313 N 
ATOM      4  H   UNL     1      -1.669  -0.416  -1.984  0.00  0.00    +0.149 HD
ENDROOT
BRANCH   3   5
ATOM      5  C   UNL     1      -3.465  -1.164  -1.134  0.00  0.00    +0.084 C 
ATOM      6  C   UNL     1      -3.444  -2.694  -1.142  0.00  0.00    +0.023 C 
ATOM      7  C   UNL     1      -2.728  -3.188  -2.401  0.00  0.00    +0.002 C 
ATOM      8  C   UNL     1      -3.468  -2.681  -3.641  0.00  0.00    +0.001 C 
ATOM      9  C   UNL     1      -3.489  -1.151  -3.632  0.00  0.00    +0.014 C 
ATOM     10  C   UNL     1      -4.205  -0.657  -2.373  0.00  0.00    +0.113 C 
BRANCH  10  11
ATOM     11  C   UNL     1      -4.225   0.872  -2.365  0.00  0.00    +0.395 C 
ATOM     12  F   UNL     1      -2.913   1.357  -2.375  0.00  0.00    -0.170 F 
ATOM     13  F   UNL     1      -4.902   1.336  -3.498  0.00  0.00    -0.170 F 
ATOM     14  F   UNL     1      -4.880   1.323  -1.214  0.00  0.00    -0.170 F 
ENDBRANCH  10  11
ENDBRANCH   3   5
BRANCH   1  16
ATOM     15  C   UNL     1      -0.019   1.526   0.010  0.00  0.00    -0.001 C 
ATOM     16  C   UNL     1       0.002  -0.004   0.002  0.00  0.00    +0.007 C 
BRANCH  16  17
ATOM     17  N   UNL     1       0.690  -0.478  -1.207  0.00  0.00    +0.388 N 
ATOM     18  H   UNL     1       1.636  -0.129  -1.214  0.00  0.00    -0.089 HD
ATOM     19  H   UNL     1       0.703  -1.487  -1.212  0.00  0.00    -0.089 HD
ATOM     20  H   UNL     1       0.202  -0.144  -2.024  0.00  0.00    -0.089 HD
ENDBRANCH  16  17
BRANCH  16  21
ATOM     21  C   UNL     1       0.742  -0.511   1.242  0.00  0.00    -0.014 C 
ATOM     22  C   UNL     1       1.015   0.495   2.362  0.00  0.00    +0.003 C 
ATOM     23  C   UNL     1       2.163   0.006   1.476  0.00  0.00    +0.003 C 
ENDBRANCH  16  21
ENDBRANCH   1  16
TORSDOF 5
