REMARK  Name = ZINC62099933
REMARK  3 active torsions:
REMARK  status: ('A' for Active; 'I' for Inactive)
REMARK    1  A    between atoms: C_3  and  C_16
REMARK    2  A    between atoms: C_5  and  N_8
REMARK    3  A    between atoms: C_16  and  N_17
REMARK                            x       y       z     vdW  Elec       q    Type
REMARK                         _______ _______ _______ _____ _____    ______ ____
ROOT
ATOM      1  C   UNL     1      -0.204   1.316   0.037  0.00  0.00    +0.002 C 
ATOM      2  C   UNL     1       1.278   1.707  -0.187  0.00  0.00    +0.003 C 
ATOM      3  C   UNL     1       2.061   0.787   0.771  0.00  0.00    -0.011 C 
ATOM      4  C   UNL     1       1.167  -0.439   1.032  0.00  0.00    +0.058 C 
ATOM      5  C   UNL     1      -0.128  -0.220   0.224  0.00  0.00    +0.019 C 
ENDROOT
BRANCH   4   6
ATOM      6  N   UNL     1       1.844  -1.661   0.579  0.00  0.00    -0.297 NA
ATOM      7  C   UNL     1       1.445  -2.807   1.384  0.00  0.00    +0.094 C 
ATOM      8  C   UNL     1       2.421  -3.971   1.188  0.00  0.00    +0.111 C 
ATOM      9  C   UNL     1       2.007  -4.738  -0.051  0.00  0.00    +0.214 C 
ATOM     10  O   UNL     1       1.535  -5.850   0.052  0.00  0.00    -0.276 OA
ATOM     11  N   UNL     1       2.162  -4.186  -1.258  0.00  0.00    -0.314 N 
ATOM     12  C   UNL     1       2.741  -2.838  -1.385  0.00  0.00    +0.119 C 
ATOM     13  C   UNL     1       1.723  -1.820  -0.862  0.00  0.00    +0.103 C 
ATOM     14  H   UNL     1       1.894  -4.675  -2.052  0.00  0.00    +0.149 HD
ENDBRANCH   4   6
BRANCH   3  15
ATOM     15  C   UNL     1       3.375   0.349   0.121  0.00  0.00    -0.081 C 
BRANCH  15  16
ATOM     16  N   UNL     1       4.252   1.516  -0.043  0.00  0.00    +0.378 N 
ATOM     17  H   UNL     1       3.797   2.199  -0.631  0.00  0.00    -0.090 HD
ATOM     18  H   UNL     1       4.443   1.922   0.860  0.00  0.00    -0.090 HD
ATOM     19  H   UNL     1       5.119   1.227  -0.472  0.00  0.00    -0.090 HD
ENDBRANCH  15  16
ENDBRANCH   3  15
TORSDOF 3
