REMARK  Name = ZINC08830061
REMARK  4 active torsions:
REMARK  status: ('A' for Active; 'I' for Inactive)
REMARK    1  A    between atoms: C_4  and  N_7
REMARK    2  A    between atoms: C_15  and  C_25
REMARK    3  A    between atoms: C_15  and  C_29
REMARK    4  A    between atoms: C_17  and  C_19
REMARK                            x       y       z     vdW  Elec       q    Type
REMARK                         _______ _______ _______ _____ _____    ______ ____
ROOT
ATOM      1  N   UNL     1       2.977  -1.032   0.775  0.00  0.00    -0.248 N 
ATOM      2  C   UNL     1       3.257  -2.353   0.490  0.00  0.00    +0.132 A 
ATOM      3  C   UNL     1       4.579  -2.757   0.429  0.00  0.00    +0.099 A 
ATOM      4  C   UNL     1       5.595  -1.829   0.682  0.00  0.00    +0.262 A 
ATOM      5  N   UNL     1       5.266  -0.553   0.973  0.00  0.00    -0.274 N 
ATOM      6  C   UNL     1       3.980  -0.164   1.007  0.00  0.00    +0.335 A 
ATOM      7  O   UNL     1       3.716   0.996   1.258  0.00  0.00    -0.246 OA
ATOM      8  O   UNL     1       6.765  -2.170   0.640  0.00  0.00    -0.267 OA
ATOM      9  C   UNL     1       4.900  -4.187   0.075  0.00  0.00    +0.258 C 
ATOM     10  N   UNL     1       3.742  -5.013   0.454  0.00  0.00    -0.310 N 
ATOM     11  C   UNL     1       2.492  -4.521   0.225  0.00  0.00    +0.078 C 
ATOM     12  N   UNL     1       2.267  -3.235   0.266  0.00  0.00    -0.332 N 
ATOM     13  H   UNL     1       1.364  -2.908   0.130  0.00  0.00    +0.168 HD
ATOM     14  H   UNL     1       5.967   0.092   1.156  0.00  0.00    +0.173 HD
ATOM     15  H   UNL     1       3.866  -5.887   0.856  0.00  0.00    +0.149 HD
ENDROOT
BRANCH   1  19
ATOM     16  C   UNL     1      -0.977   0.278   0.899  0.00  0.00    +0.000 A 
ATOM     17  C   UNL     1      -0.376  -0.211   2.045  0.00  0.00    +0.002 A 
ATOM     18  C   UNL     1       0.934  -0.646   2.007  0.00  0.00    +0.026 A 
ATOM     19  C   UNL     1       1.648  -0.592   0.817  0.00  0.00    +0.053 A 
ATOM     20  C   UNL     1       1.041  -0.100  -0.332  0.00  0.00    +0.026 A 
ATOM     21  C   UNL     1      -0.269   0.333  -0.287  0.00  0.00    +0.002 A 
ENDBRANCH   1  19
BRANCH  11  22
ATOM     22  C   UNL     1       1.359  -5.469  -0.076  0.00  0.00    +0.050 C 
ATOM     23  C   UNL     1       1.349  -5.791  -1.572  0.00  0.00    +0.011 C 
ATOM     24  C   UNL     1       0.199  -6.753  -1.878  0.00  0.00    +0.001 C 
ATOM     25  C   UNL     1      -1.129  -6.101  -1.488  0.00  0.00    +0.000 C 
ATOM     26  C   UNL     1      -1.119  -5.779   0.008  0.00  0.00    +0.001 C 
ATOM     27  C   UNL     1       0.031  -4.817   0.314  0.00  0.00    +0.011 C 
ENDBRANCH  11  22
BRANCH   9  28
ATOM     28  C   UNL     1       5.150  -4.304  -1.430  0.00  0.00    +0.424 C 
ATOM     29  F   UNL     1       6.227  -3.486  -1.789  0.00  0.00    -0.168 F 
ATOM     30  F   UNL     1       5.447  -5.633  -1.751  0.00  0.00    -0.168 F 
ATOM     31  F   UNL     1       4.006  -3.901  -2.126  0.00  0.00    -0.168 F 
ENDBRANCH   9  28
BRANCH   9  32
ATOM     32  C   UNL     1       6.139  -4.646   0.845  0.00  0.00    +0.424 C 
ATOM     33  F   UNL     1       6.041  -4.230   2.177  0.00  0.00    -0.168 F 
ATOM     34  F   UNL     1       6.226  -6.042   0.798  0.00  0.00    -0.168 F 
ATOM     35  F   UNL     1       7.283  -4.088   0.265  0.00  0.00    -0.168 F 
ENDBRANCH   9  32
TORSDOF 4
