REMARK  Name = ZINC32537474
REMARK  6 active torsions:
REMARK  status: ('A' for Active; 'I' for Inactive)
REMARK    1  A    between atoms: C_1  and  C_2
REMARK    2  A    between atoms: C_4  and  N_9
REMARK    3  A    between atoms: N_9  and  C_10
REMARK    4  A    between atoms: C_10  and  C_12
REMARK    5  A    between atoms: C_10  and  C_13
REMARK    6  A    between atoms: C_16  and  N_19
REMARK                            x       y       z     vdW  Elec       q    Type
REMARK                         _______ _______ _______ _____ _____    ______ ____
ROOT
ATOM      1  N   UNL     1       0.030  -2.826  -2.330  0.00  0.00    -0.322 N 
ATOM      2  H   UNL     1       0.043  -3.795  -2.296  0.00  0.00    +0.148 HD
ENDROOT
BRANCH   1   6
ATOM      3  C   UNL     1      -0.018   1.503   0.010  0.00  0.00    +0.063 C 
ATOM      4  C   UNL     1       0.002  -0.004   0.002  0.00  0.00    +0.019 A 
ATOM      5  C   UNL     1       0.006  -0.696  -1.194  0.00  0.00    +0.064 A 
ATOM      6  C   UNL     1       0.026  -2.091  -1.156  0.00  0.00    +0.124 A 
ATOM      7  N   UNL     1       0.040  -2.705   0.023  0.00  0.00    -0.201 NA
ATOM      8  C   UNL     1       0.035  -2.005   1.148  0.00  0.00    +0.192 A 
ATOM      9  N   UNL     1       0.022  -0.680   1.141  0.00  0.00    -0.332 N 
ATOM     10  N   UNL     1       0.051  -2.674   2.359  0.00  0.00    -0.329 N 
ATOM     11  H   UNL     1       0.064  -3.643   2.377  0.00  0.00    +0.145 HD
ATOM     12  H   UNL     1       0.048  -2.173   3.190  0.00  0.00    +0.145 HD
ATOM     13  H   UNL     1       0.023  -0.198   1.983  0.00  0.00    +0.168 HD
ENDBRANCH   1   6
BRANCH   1  14
ATOM     14  C   UNL     1       0.013  -2.139  -3.624  0.00  0.00    +0.099 C 
ATOM     15  C   UNL     1      -1.430  -1.809  -4.008  0.00  0.00    +0.033 C 
BRANCH  14  16
ATOM     16  C   UNL     1       0.621  -3.033  -4.675  0.00  0.00    -0.027 A 
ATOM     17  C   UNL     1       0.341  -4.387  -4.675  0.00  0.00    +0.007 A 
ATOM     18  C   UNL     1       0.896  -5.208  -5.637  0.00  0.00    +0.028 A 
ATOM     19  C   UNL     1       1.736  -4.673  -6.604  0.00  0.00    +0.067 A 
ATOM     20  C   UNL     1       2.014  -3.313  -6.602  0.00  0.00    +0.028 A 
ATOM     21  C   UNL     1       1.452  -2.496  -5.641  0.00  0.00    +0.007 A 
BRANCH  19  22
ATOM     22  N   UNL     1       2.301  -5.504  -7.582  0.00  0.00    -0.220 N 
ATOM     23  C   UNL     1       3.132  -5.133  -8.575  0.00  0.00    +0.225 A 
ATOM     24  N   UNL     1       3.433  -6.200  -9.270  0.00  0.00    -0.222 NA
ATOM     25  C   UNL     1       2.818  -7.264  -8.756  0.00  0.00    +0.245 A 
ATOM     26  N   UNL     1       2.118  -6.890  -7.717  0.00  0.00    -0.154 NA
ENDBRANCH  19  22
ENDBRANCH  14  16
ENDBRANCH   1  14
TORSDOF 4
