REMARK  Name = ZINC39695933
REMARK  8 active torsions:
REMARK  status: ('A' for Active; 'I' for Inactive)
REMARK    1  A    between atoms: C_1  and  C_2
REMARK    2  A    between atoms: C_2  and  C_3
REMARK    3  A    between atoms: C_6  and  C_9
REMARK    4  A    between atoms: C_9  and  C_11
REMARK    5  A    between atoms: C_9  and  N_12
REMARK    6  A    between atoms: C_13  and  C_15
REMARK    7  A    between atoms: C_26  and  C_28
REMARK    8  A    between atoms: C_34  and  C_36
REMARK                            x       y       z     vdW  Elec       q    Type
REMARK                         _______ _______ _______ _____ _____    ______ ____
ROOT
ATOM      1  C   UNL     1      -8.330  -0.554  -1.977  0.00  0.00    +0.100 C 
ATOM      2  C   UNL     1      -8.096  -1.248  -3.338  0.00  0.00    +0.121 C 
ATOM      3  N   UNL     1      -9.218  -2.208  -3.466  0.00  0.00    -0.299 N 
ATOM      4  C   UNL     1     -10.390  -1.481  -2.922  0.00  0.00    +0.115 C 
ATOM      5  C   UNL     1      -9.836  -0.707  -1.709  0.00  0.00    -0.004 C 
ATOM      6  C   UNL     1     -10.068  -1.501  -0.427  0.00  0.00    -0.010 C 
ATOM      7  C   UNL     1     -11.572  -1.590  -0.152  0.00  0.00    -0.082 C 
ATOM      8  N   UNL     1     -12.128  -0.238  -0.021  0.00  0.00    +0.379 N 
ATOM      9  C   UNL     1     -11.984   0.488  -1.289  0.00  0.00    -0.082 C 
ATOM     10  C   UNL     1     -10.498   0.665  -1.612  0.00  0.00    -0.010 C 
ATOM     11  C   UNL     1      -9.181  -3.460  -3.964  0.00  0.00    +0.236 C 
ATOM     12  O   UNL     1     -10.192  -4.128  -4.003  0.00  0.00    -0.274 OA
ATOM     13  H   UNL     1     -13.105  -0.300   0.220  0.00  0.00    -0.086 HD
ATOM     14  H   UNL     1     -11.635   0.258   0.707  0.00  0.00    -0.086 HD
ENDROOT
BRANCH  11  15
ATOM     15  C   UNL     1      -7.882  -4.030  -4.474  0.00  0.00    +0.162 C 
ATOM     16  C   UNL     1      -7.604  -3.509  -5.900  0.00  0.00    +0.033 C 
ATOM     17  C   UNL     1      -6.995  -4.747  -6.610  0.00  0.00    +0.021 C 
ATOM     18  C   UNL     1      -7.797  -5.902  -5.961  0.00  0.00    +0.109 C 
ATOM     19  N   UNL     1      -7.975  -5.495  -4.552  0.00  0.00    -0.283 N 
ATOM     20  C   UNL     1      -8.188  -6.325  -3.511  0.00  0.00    +0.320 C 
ATOM     21  O   UNL     1      -8.320  -5.874  -2.393  0.00  0.00    -0.266 OA
BRANCH  20  22
ATOM     22  C   UNL     1      -8.261  -7.813  -3.737  0.00  0.00    +0.470 C 
ATOM     23  F   UNL     1      -8.487  -8.459  -2.517  0.00  0.00    -0.162 F 
ATOM     24  F   UNL     1      -9.309  -8.100  -4.618  0.00  0.00    -0.162 F 
ATOM     25  F   UNL     1      -7.054  -8.261  -4.286  0.00  0.00    -0.162 F 
ENDBRANCH  20  22
ENDBRANCH  11  15
BRANCH   1  27
ATOM     26  N   UNL     1      -7.120  -0.541   0.180  0.00  0.00    -0.308 N 
ATOM     27  C   UNL     1      -7.533  -1.239  -0.896  0.00  0.00    +0.219 C 
ATOM     28  O   UNL     1      -7.264  -2.417  -0.995  0.00  0.00    -0.275 OA
ATOM     29  H   UNL     1      -7.335   0.401   0.260  0.00  0.00    +0.149 HD
BRANCH  26  30
ATOM     30  C   UNL     1      -6.345  -1.206   1.231  0.00  0.00    +0.100 C 
ATOM     31  C   UNL     1      -4.864  -1.210   0.848  0.00  0.00    +0.033 C 
BRANCH  30  35
ATOM     32  C   UNL     1      -6.854   0.888   4.920  0.00  0.00    -0.048 A 
ATOM     33  C   UNL     1      -6.827  -0.494   4.907  0.00  0.00    +0.004 A 
ATOM     34  C   UNL     1      -6.662  -1.172   3.714  0.00  0.00    +0.006 A 
ATOM     35  C   UNL     1      -6.526  -0.467   2.532  0.00  0.00    -0.027 A 
ATOM     36  C   UNL     1      -6.554   0.915   2.544  0.00  0.00    +0.006 A 
ATOM     37  C   UNL     1      -6.723   1.592   3.737  0.00  0.00    +0.004 A 
BRANCH  32  39
ATOM     38  C   UNL     1      -8.525   1.844   6.482  0.00  0.00    +0.009 C 
ATOM     39  C   UNL     1      -7.034   1.627   6.221  0.00  0.00    +0.032 C 
ENDBRANCH  32  39
ENDBRANCH  30  35
ENDBRANCH  26  30
ENDBRANCH   1  27
TORSDOF 6
