REMARK  Name = ZINC39011887
REMARK  6 active torsions:
REMARK  status: ('A' for Active; 'I' for Inactive)
REMARK    1  A    between atoms: C_6  and  C_7
REMARK    2  A    between atoms: C_9  and  C_13
REMARK    3  A    between atoms: C_17  and  S_21
REMARK    4  A    between atoms: N_19  and  N_20
REMARK    5  A    between atoms: S_21  and  C_22
REMARK    6  A    between atoms: C_22  and  C_23
REMARK                            x       y       z     vdW  Elec       q    Type
REMARK                         _______ _______ _______ _____ _____    ______ ____
ROOT
ATOM      1  C   UNL     1      -3.258  -3.147   1.283  0.00  0.00    +0.185 C 
ATOM      2  N   UNL     1      -2.537  -4.444   1.360  0.00  0.00    -0.234 NA
ATOM      3  N   UNL     1      -3.392  -5.289   2.199  0.00  0.00    -0.228 NA
ATOM      4  C   UNL     1      -4.760  -4.740   2.107  0.00  0.00    +0.214 C 
ATOM      5  N   UNL     1      -4.684  -3.560   1.212  0.00  0.00    -0.197 NA
ATOM      6  H   UNL     1      -2.420  -4.848   0.443  0.00  0.00    +0.143 HD
ATOM      7  H   UNL     1      -3.366  -6.249   1.890  0.00  0.00    +0.143 HD
ENDROOT
BRANCH   1  10
ATOM      8  C   UNL     1      -1.265  -0.771   0.016  0.00  0.00    +0.091 C 
ATOM      9  C   UNL     1      -1.358  -2.115   0.013  0.00  0.00    +0.034 C 
ATOM     10  C   UNL     1      -2.853  -2.376   0.025  0.00  0.00    +0.187 C 
ATOM     11  N   UNL     1      -3.430  -1.022   0.032  0.00  0.00    -0.176 NA
ATOM     12  N   UNL     1      -2.502  -0.210   0.033  0.00  0.00    -0.154 NA
BRANCH   8  18
ATOM     13  C   UNL     1      -0.009   1.383   0.017  0.00  0.00    +0.013 A 
ATOM     14  C   UNL     1       1.179   2.086   0.009  0.00  0.00    +0.039 A 
ATOM     15  C   UNL     1       2.387   1.409  -0.008  0.00  0.00    +0.123 A 
ATOM     16  C   UNL     1       2.409   0.023  -0.017  0.00  0.00    +0.039 A 
ATOM     17  C   UNL     1       1.227  -0.688  -0.009  0.00  0.00    +0.013 A 
ATOM     18  C   UNL     1       0.009  -0.011   0.007  0.00  0.00    +0.002 A 
ATOM     19  F   UNL     1       3.547   2.101  -0.015  0.00  0.00    -0.205 F 
ENDBRANCH   8  18
ENDBRANCH   1  10
BRANCH   5  20
ATOM     20  N   UNL     1      -5.559  -2.494   1.673  0.00  0.00    -0.264 NA
ATOM     21  H   UNL     1      -6.527  -2.775   1.624  0.00  0.00    +0.137 HD
ATOM     22  H   UNL     1      -5.314  -2.203   2.607  0.00  0.00    +0.137 HD
ENDBRANCH   5  20
BRANCH   4  23
ATOM     23  S   UNL     1      -5.883  -5.983   1.412  0.00  0.00    -0.115 S 
BRANCH  23  24
ATOM     24  C   UNL     1      -5.161  -6.370  -0.207  0.00  0.00    +0.168 C 
BRANCH  24  25
ATOM     25  C   UNL     1      -6.009  -7.405  -0.900  0.00  0.00    +0.228 C 
ATOM     26  O   UNL     1      -7.002  -7.838  -0.357  0.00  0.00    -0.275 OA
ATOM     27  N   UNL     1      -5.663  -7.849  -2.125  0.00  0.00    -0.270 N 
ATOM     28  C   UNL     1      -6.385  -8.881  -2.722  0.00  0.00    +0.125 A 
ATOM     29  C   UNL     1      -5.960  -9.406  -3.938  0.00  0.00    +0.045 A 
ATOM     30  C   UNL     1      -6.685 -10.430  -4.519  0.00  0.00    +0.020 A 
ATOM     31  C   UNL     1      -7.816 -10.897  -3.862  0.00  0.00    +0.036 A 
ATOM     32  C   UNL     1      -8.181 -10.329  -2.657  0.00  0.00    +0.128 A 
ATOM     33  N   UNL     1      -7.466  -9.356  -2.124  0.00  0.00    -0.239 NA
ATOM     34 BR   UNL     1      -8.847 -12.295  -4.610  0.00  0.00    -0.049 Br
ATOM     35  H   UNL     1      -4.911  -7.450  -2.591  0.00  0.00    +0.156 HD
ENDBRANCH  24  25
ENDBRANCH  23  24
ENDBRANCH   4  23
TORSDOF 6
