REMARK  Name = ZINC39936969
REMARK  14 active torsions:
REMARK  status: ('A' for Active; 'I' for Inactive)
REMARK    1  A    between atoms: C_1  and  C_2
REMARK    2  A    between atoms: C_2  and  C_3
REMARK    3  A    between atoms: C_3  and  C_4
REMARK    4  A    between atoms: C_7  and  C_12
REMARK    5  A    between atoms: N_9  and  C_11
REMARK    6  A    between atoms: N_14  and  C_15
REMARK    7  A    between atoms: C_15  and  C_17
REMARK    8  A    between atoms: C_15  and  C_33
REMARK    9  A    between atoms: C_19  and  O_32
REMARK   10  A    between atoms: C_21  and  O_31
REMARK   11  A    between atoms: C_23  and  O_30
REMARK   12  A    between atoms: C_25  and  S_28
REMARK   13  A    between atoms: S_28  and  C_29
REMARK   14  A    between atoms: C_33  and  C_35
REMARK                            x       y       z     vdW  Elec       q    Type
REMARK                         _______ _______ _______ _____ _____    ______ ____
ROOT
ATOM      1  C   UNL     1      -2.933  -6.104   5.043  0.00  0.00    +0.122 C 
ENDROOT
BRANCH   1   2
ATOM      2  C   UNL     1      -1.588  -6.748   5.385  0.00  0.00    +0.172 C 
ATOM      3  C   UNL     1      -1.198  -7.734   4.281  0.00  0.00    +0.176 C 
ATOM      4  C   UNL     1      -2.244  -8.851   4.211  0.00  0.00    +0.177 C 
ATOM      5  C   UNL     1      -2.346  -9.525   5.583  0.00  0.00    +0.184 C 
ATOM      6  C   UNL     1      -2.692  -8.470   6.637  0.00  0.00    +0.207 C 
ATOM      7  O   UNL     1      -1.696  -7.445   6.628  0.00  0.00    -0.356 OA
BRANCH   6   8
ATOM      8  S   UNL     1      -2.745  -9.248   8.275  0.00  0.00    -0.131 S 
ATOM      9  C   UNL     1      -3.571  -8.015   9.319  0.00  0.00    +0.087 C 
ENDBRANCH   6   8
BRANCH   5  10
ATOM     10  O   UNL     1      -3.370 -10.522   5.549  0.00  0.00    -0.386 OA
ATOM     11  H   UNL     1      -3.490 -10.991   6.387  0.00  0.00    +0.210 HD
ENDBRANCH   5  10
BRANCH   4  12
ATOM     12  O   UNL     1      -1.851  -9.813   3.231  0.00  0.00    -0.386 OA
ATOM     13  H   UNL     1      -2.469 -10.550   3.134  0.00  0.00    +0.210 HD
ENDBRANCH   4  12
BRANCH   3  14
ATOM     14  O   UNL     1      -1.145  -7.049   3.027  0.00  0.00    -0.387 OA
ATOM     15  H   UNL     1      -0.903  -7.614   2.281  0.00  0.00    +0.210 HD
ENDBRANCH   3  14
ENDBRANCH   1   2
BRANCH   1  18
ATOM     16  C   UNL     1      -3.989  -5.338   2.985  0.00  0.00    +0.200 C 
ATOM     17  O   UNL     1      -5.059  -5.680   3.441  0.00  0.00    -0.278 OA
ATOM     18  N   UNL     1      -2.863  -5.508   3.707  0.00  0.00    -0.310 N 
ATOM     19  H   UNL     1      -2.007  -5.235   3.342  0.00  0.00    +0.149 HD
BRANCH  16  22
ATOM     20  C   UNL     1      -5.358  -3.378   0.205  0.00  0.00    -0.029 C 
ATOM     21  C   UNL     1      -4.671  -3.379   1.596  0.00  0.00    -0.005 C 
ATOM     22  C   UNL     1      -3.917  -4.725   1.610  0.00  0.00    +0.019 C 
ATOM     23  N   UNL     1      -4.577  -5.606   0.629  0.00  0.00    +0.386 N 
ATOM     24  C   UNL     1      -5.714  -4.875   0.029  0.00  0.00    -0.075 C 
ATOM     25  C   UNL     1      -5.066  -6.816   1.302  0.00  0.00    -0.095 C 
ATOM     26  H   UNL     1      -3.920  -5.862  -0.093  0.00  0.00    -0.081 HD
BRANCH  20  27
ATOM     27  C   UNL     1      -6.619  -2.512   0.217  0.00  0.00    +0.001 C 
BRANCH  27  29
ATOM     28  C   UNL     1      -7.487  -0.173   0.357  0.00  0.00    +0.004 C 
ATOM     29  C   UNL     1      -6.225  -1.039   0.345  0.00  0.00    -0.003 C 
ENDBRANCH  27  29
ENDBRANCH  20  27
ENDBRANCH  16  22
ENDBRANCH   1  18
BRANCH   1  30
ATOM     30  C   UNL     1      -3.254  -5.017   6.071  0.00  0.00    +0.100 C 
ATOM     31  C   UNL     1      -4.524  -4.275   5.649  0.00  0.00    +0.026 C 
ATOM     32 CL   UNL     1      -3.509  -5.774   7.687  0.00  0.00    -0.120 Cl
ENDBRANCH   1  30
TORSDOF 10
