REMARK  Name = ZINC01326717
REMARK  4 active torsions:
REMARK  status: ('A' for Active; 'I' for Inactive)
REMARK    1  A    between atoms: C_6  and  C_7
REMARK    2  A    between atoms: C_10  and  C_31
REMARK    3  A    between atoms: C_16  and  C_18
REMARK    4  A    between atoms: N_20  and  C_21
REMARK                            x       y       z     vdW  Elec       q    Type
REMARK                         _______ _______ _______ _____ _____    ______ ____
ROOT
ATOM      1  C   UNL     1      -1.292  -0.743   0.030  0.00  0.00    +0.113 C 
ATOM      2  C   UNL     1      -1.839  -0.811   1.456  0.00  0.00    +0.062 C 
ATOM      3  C   UNL     1      -3.180  -1.562   1.462  0.00  0.00    +0.201 C 
ATOM      4  N   UNL     1      -4.039  -0.924   0.459  0.00  0.00    -0.226 N 
ATOM      5  C   UNL     1      -3.530  -0.214  -0.622  0.00  0.00    +0.114 C 
ATOM      6  N   UNL     1      -2.256  -0.083  -0.860  0.00  0.00    -0.365 N 
ATOM      7  C   UNL     1      -4.680   0.300  -1.363  0.00  0.00    +0.072 C 
ATOM      8  C   UNL     1      -5.796  -0.131  -0.724  0.00  0.00    +0.110 C 
ATOM      9  N   UNL     1      -5.426  -0.887   0.377  0.00  0.00    -0.258 N 
ATOM     10  H   UNL     1      -6.038  -1.320   0.993  0.00  0.00    +0.170 HD
ATOM     11  H   UNL     1      -1.948   0.443  -1.615  0.00  0.00    +0.161 HD
ENDROOT
BRANCH   1  17
ATOM     12  C   UNL     1      -0.029   1.416   0.040  0.00  0.00    +0.009 A 
ATOM     13  C   UNL     1       1.153   2.134   0.040  0.00  0.00    +0.050 A 
ATOM     14  C   UNL     1       2.368   1.468   0.027  0.00  0.00    +0.166 A 
ATOM     15  C   UNL     1       2.396   0.076   0.015  0.00  0.00    +0.167 A 
ATOM     16  C   UNL     1       1.208  -0.637   0.016  0.00  0.00    +0.055 A 
ATOM     17  C   UNL     1      -0.002   0.034   0.029  0.00  0.00    -0.021 A 
ATOM     18  O   UNL     1       3.697  -0.335   0.004  0.00  0.00    -0.453 OA
ATOM     19  C   UNL     1       4.460   0.816  -0.403  0.00  0.00    +0.466 C 
ATOM     20  O   UNL     1       3.653   1.930   0.023  0.00  0.00    -0.453 OA
ENDBRANCH   1  17
BRANCH   8  21
ATOM     21  C   UNL     1      -7.186   0.159  -1.137  0.00  0.00    +0.264 C 
ATOM     22  O   UNL     1      -8.116  -0.280  -0.489  0.00  0.00    -0.268 OA
ATOM     23  N   UNL     1      -7.421   0.909  -2.231  0.00  0.00    -0.280 N 
ATOM     24  H   UNL     1      -6.681   1.314  -2.710  0.00  0.00    +0.155 HD
BRANCH  23  25
ATOM     25  C   UNL     1      -8.733   1.103  -2.677  0.00  0.00    +0.037 A 
ATOM     26  C   UNL     1      -8.999   1.184  -4.038  0.00  0.00    +0.027 A 
ATOM     27  C   UNL     1     -10.294   1.378  -4.479  0.00  0.00    +0.051 A 
ATOM     28  C   UNL     1     -11.332   1.491  -3.565  0.00  0.00    +0.162 A 
ATOM     29  C   UNL     1     -11.069   1.408  -2.203  0.00  0.00    +0.164 A 
ATOM     30  C   UNL     1      -9.770   1.210  -1.761  0.00  0.00    +0.072 A 
ATOM     31  O   UNL     1     -12.075   1.508  -1.292  0.00  0.00    -0.485 OA
ATOM     32  C   UNL     1     -13.307   2.072  -1.753  0.00  0.00    +0.270 C 
ATOM     33  C   UNL     1     -13.662   1.417  -3.095  0.00  0.00    +0.270 C 
ATOM     34  O   UNL     1     -12.601   1.685  -4.019  0.00  0.00    -0.485 OA
ENDBRANCH  23  25
ENDBRANCH   8  21
BRANCH   3  35
ATOM     35  C   UNL     1      -3.828  -1.462   2.845  0.00  0.00    +0.410 C 
ATOM     36  F   UNL     1      -4.051  -0.117   3.158  0.00  0.00    -0.169 F 
ATOM     37  F   UNL     1      -5.047  -2.148   2.839  0.00  0.00    -0.169 F 
ATOM     38  F   UNL     1      -2.978  -2.029   3.800  0.00  0.00    -0.169 F 
ENDBRANCH   3  35
TORSDOF 4
