REMARK  Name = ZINC04958400
REMARK  11 active torsions:
REMARK  status: ('A' for Active; 'I' for Inactive)
REMARK    1  A    between atoms: C_4  and  C_7
REMARK    2  A    between atoms: C_7  and  O_8
REMARK    3  A    between atoms: O_8  and  C_9
REMARK    4  A    between atoms: N_11  and  C_12
REMARK    5  A    between atoms: C_17  and  S_18
REMARK    6  A    between atoms: S_18  and  S_19
REMARK    7  A    between atoms: S_19  and  C_20
REMARK    8  A    between atoms: C_25  and  N_26
REMARK    9  A    between atoms: C_27  and  O_29
REMARK   10  A    between atoms: O_29  and  C_30
REMARK   11  A    between atoms: C_30  and  C_31
REMARK                            x       y       z     vdW  Elec       q    Type
REMARK                         _______ _______ _______ _____ _____    ______ ____
ROOT
ATOM      1  S   UNL     1      -0.112   2.264  -0.107  0.00  0.00    -0.050 S 
ENDROOT
BRANCH   1   7
ATOM      2  C   UNL     1       1.869   4.159  -0.196  0.00  0.00    +0.051 A 
ATOM      3  C   UNL     1       3.192   4.570  -0.233  0.00  0.00    +0.024 A 
ATOM      4  C   UNL     1       4.209   3.633  -0.228  0.00  0.00    +0.002 A 
ATOM      5  C   UNL     1       3.911   2.283  -0.186  0.00  0.00    +0.001 A 
ATOM      6  C   UNL     1       2.595   1.862  -0.145  0.00  0.00    +0.017 A 
ATOM      7  C   UNL     1       1.567   2.796  -0.155  0.00  0.00    +0.040 A 
BRANCH   2  10
ATOM      8  C   UNL     1       1.068   6.356   0.252  0.00  0.00    +0.405 C 
ATOM      9  O   UNL     1       2.138   6.631   0.759  0.00  0.00    -0.226 OA
ATOM     10  N   UNL     1       0.837   5.108  -0.201  0.00  0.00    -0.250 N 
ATOM     11  H   UNL     1      -0.043   4.866  -0.529  0.00  0.00    +0.158 HD
BRANCH   8  12
ATOM     12  O   UNL     1       0.113   7.299   0.143  0.00  0.00    -0.445 OA
BRANCH  12  13
ATOM     13  C   UNL     1       0.430   8.622   0.651  0.00  0.00    +0.269 C 
BRANCH  13  17
ATOM     14  C   UNL     1      -2.913  11.215   0.065  0.00  0.00    +0.000 A 
ATOM     15  C   UNL     1      -2.801  10.486   1.234  0.00  0.00    +0.000 A 
ATOM     16  C   UNL     1      -1.719   9.646   1.423  0.00  0.00    +0.007 A 
ATOM     17  C   UNL     1      -0.749   9.537   0.445  0.00  0.00    -0.010 A 
ATOM     18  C   UNL     1      -0.858  10.270  -0.722  0.00  0.00    +0.007 A 
ATOM     19  C   UNL     1      -1.943  11.106  -0.914  0.00  0.00    +0.000 A 
ENDBRANCH  13  17
ENDBRANCH  12  13
ENDBRANCH   8  12
ENDBRANCH   2  10
ENDBRANCH   1   7
BRANCH   1  20
ATOM     20  S   UNL     1       0.018   0.218  -0.057  0.00  0.00    -0.050 S 
BRANCH  20  21
ATOM     21  C   UNL     1       0.227  -0.153   1.653  0.00  0.00    +0.040 A 
ATOM     22  C   UNL     1       0.273   0.873   2.589  0.00  0.00    +0.017 A 
ATOM     23  C   UNL     1       0.433   0.578   3.929  0.00  0.00    +0.001 A 
ATOM     24  C   UNL     1       0.557  -0.736   4.342  0.00  0.00    +0.002 A 
ATOM     25  C   UNL     1       0.518  -1.764   3.417  0.00  0.00    +0.024 A 
ATOM     26  C   UNL     1       0.353  -1.479   2.071  0.00  0.00    +0.051 A 
BRANCH  26  27
ATOM     27  N   UNL     1       0.314  -2.520   1.132  0.00  0.00    -0.250 N 
ATOM     28  C   UNL     1       1.072  -3.619   1.312  0.00  0.00    +0.405 C 
ATOM     29  O   UNL     1       1.725  -3.747   2.329  0.00  0.00    -0.226 OA
ATOM     30  H   UNL     1      -0.259  -2.448   0.353  0.00  0.00    +0.158 HD
BRANCH  28  31
ATOM     31  O   UNL     1       1.107  -4.576   0.365  0.00  0.00    -0.445 OA
BRANCH  31  32
ATOM     32  C   UNL     1       1.946  -5.732   0.626  0.00  0.00    +0.269 C 
BRANCH  32  33
ATOM     33  C   UNL     1       1.859  -6.688  -0.535  0.00  0.00    -0.010 A 
ATOM     34  C   UNL     1       0.898  -7.682  -0.542  0.00  0.00    +0.007 A 
ATOM     35  C   UNL     1       0.816  -8.556  -1.610  0.00  0.00    +0.000 A 
ATOM     36  C   UNL     1       1.700  -8.442  -2.666  0.00  0.00    +0.000 A 
ATOM     37  C   UNL     1       2.664  -7.452  -2.657  0.00  0.00    +0.000 A 
ATOM     38  C   UNL     1       2.744  -6.575  -1.591  0.00  0.00    +0.007 A 
ENDBRANCH  32  33
ENDBRANCH  31  32
ENDBRANCH  28  31
ENDBRANCH  26  27
ENDBRANCH  20  21
ENDBRANCH   1  20
TORSDOF 11
