REMARK  Name = ZINC19324417
REMARK  14 active torsions:
REMARK  status: ('A' for Active; 'I' for Inactive)
REMARK    1  A    between atoms: C_1  and  C_2
REMARK    2  A    between atoms: C_2  and  C_3
REMARK    3  A    between atoms: C_3  and  C_4
REMARK    4  A    between atoms: C_7  and  C_27
REMARK    5  A    between atoms: C_11  and  C_16
REMARK    6  A    between atoms: C_16  and  O_18
REMARK    7  A    between atoms: C_16  and  C_19
REMARK    8  A    between atoms: C_19  and  O_21
REMARK    9  A    between atoms: C_19  and  C_22
REMARK   10  A    between atoms: C_22  and  O_24
REMARK   11  A    between atoms: C_22  and  C_25
REMARK   12  A    between atoms: C_25  and  O_26
REMARK   13  A    between atoms: C_27  and  C_28
REMARK   14  A    between atoms: C_28  and  C_29
REMARK                            x       y       z     vdW  Elec       q    Type
REMARK                         _______ _______ _______ _____ _____    ______ ____
ROOT
ATOM      1  C   UNL     1       1.472  -1.866  -0.817  0.00  0.00    +0.028 C 
ATOM      2  C   UNL     1      -0.012  -2.198  -0.700  0.00  0.00    +0.144 C 
ATOM      3  O   UNL     1      -0.865  -1.359  -0.541  0.00  0.00    -0.296 OA
ATOM      4  C   UNL     1      -0.317  -3.689  -0.803  0.00  0.00    +0.028 C 
ATOM      5  C   UNL     1       0.246  -4.160  -2.153  0.00  0.00    -0.061 C 
ATOM      6  N   UNL     1       1.679  -3.870  -2.224  0.00  0.00    +0.393 N 
ATOM      7  C   UNL     1       1.937  -2.408  -2.177  0.00  0.00    -0.061 C 
ATOM      8  C   UNL     1       2.392  -4.563  -1.146  0.00  0.00    +0.034 C 
ATOM      9  N   UNL     1       1.905  -4.074   0.152  0.00  0.00    -0.311 NA
ATOM     10  C   UNL     1       0.478  -4.379   0.317  0.00  0.00    +0.095 C 
ATOM     11  C   UNL     1       2.208  -2.643   0.288  0.00  0.00    +0.095 C 
ATOM     12  H   UNL     1       2.031  -4.222  -3.103  0.00  0.00    -0.079 HD
ENDROOT
BRANCH   1  13
ATOM     13  C   UNL     1       1.720  -0.361  -0.702  0.00  0.00    +0.013 C 
BRANCH  13  15
ATOM     14  C   UNL     1       1.490   1.637   0.782  0.00  0.00    +0.004 C 
ATOM     15  C   UNL     1       1.242   0.131   0.666  0.00  0.00    -0.002 C 
ENDBRANCH  13  15
ENDBRANCH   1  13
BRANCH   8  16
ATOM     16  C   UNL     1       2.139  -6.068  -1.252  0.00  0.00    +0.146 C 
BRANCH  16  17
ATOM     17  O   UNL     1       2.745  -6.732  -0.140  0.00  0.00    -0.390 OA
ATOM     18  H   UNL     1       3.683  -6.528  -0.024  0.00  0.00    +0.210 HD
ENDBRANCH  16  17
BRANCH  16  19
ATOM     19  C   UNL     1       2.746  -6.596  -2.553  0.00  0.00    +0.173 C 
BRANCH  19  20
ATOM     20  O   UNL     1       2.051  -6.031  -3.667  0.00  0.00    -0.387 OA
ATOM     21  H   UNL     1       1.107  -6.239  -3.687  0.00  0.00    +0.210 HD
ENDBRANCH  19  20
BRANCH  19  22
ATOM     22  C   UNL     1       2.619  -8.121  -2.593  0.00  0.00    +0.171 C 
BRANCH  22  23
ATOM     23  O   UNL     1       3.314  -8.686  -1.480  0.00  0.00    -0.387 OA
ATOM     24  H   UNL     1       4.258  -8.479  -1.459  0.00  0.00    +0.210 HD
ENDBRANCH  22  23
BRANCH  22  25
ATOM     25  C   UNL     1       3.225  -8.649  -3.894  0.00  0.00    +0.189 C 
BRANCH  25  26
ATOM     26  O   UNL     1       3.004 -10.058  -3.986  0.00  0.00    -0.392 OA
ATOM     27  H   UNL     1       3.362 -10.461  -4.788  0.00  0.00    +0.210 HD
ENDBRANCH  25  26
ENDBRANCH  22  25
ENDBRANCH  19  22
ENDBRANCH  16  19
ENDBRANCH   8  16
BRANCH   4  28
ATOM     28  C   UNL     1      -1.817  -3.963  -0.673  0.00  0.00    +0.013 C 
BRANCH  28  29
ATOM     29  C   UNL     1      -2.312  -3.459   0.684  0.00  0.00    -0.002 C 
ATOM     30  C   UNL     1      -3.812  -3.733   0.813  0.00  0.00    +0.004 C 
ENDBRANCH  28  29
ENDBRANCH   4  28
TORSDOF 12
