REMARK  Name = ZINC47251264
REMARK  6 active torsions:
REMARK  status: ('A' for Active; 'I' for Inactive)
REMARK    1  A    between atoms: C_3  and  N_12
REMARK    2  A    between atoms: C_5  and  N_7
REMARK    3  A    between atoms: N_7  and  S_8
REMARK    4  A    between atoms: S_8  and  N_11
REMARK    5  A    between atoms: N_12  and  S_13
REMARK    6  A    between atoms: S_13  and  C_16
REMARK                            x       y       z     vdW  Elec       q    Type
REMARK                         _______ _______ _______ _____ _____    ______ ____
ROOT
ATOM      1  C   UNL     1      -0.239   1.284   0.147  0.00  0.00    +0.004 A 
ATOM      2  C   UNL     1       0.894   2.072   0.099  0.00  0.00    +0.027 A 
ATOM      3  C   UNL     1       2.149   1.482   0.011  0.00  0.00    +0.076 A 
ATOM      4  C   UNL     1       2.263   0.100  -0.029  0.00  0.00    +0.051 A 
ATOM      5  C   UNL     1       1.122  -0.689   0.019  0.00  0.00    +0.051 A 
ATOM      6  C   UNL     1      -0.130  -0.092   0.107  0.00  0.00    +0.024 A 
ENDROOT
BRANCH   5   7
ATOM      7  N   UNL     1       1.232  -2.081  -0.021  0.00  0.00    -0.207 N 
ATOM      8  H   UNL     1       1.008  -2.561  -0.833  0.00  0.00    +0.175 HD
BRANCH   7   9
ATOM      9  S   UNL     1       1.746  -2.910   1.317  0.00  0.00    +0.107 S 
ATOM     10  O   UNL     1       1.735  -4.288   0.970  0.00  0.00    -0.138 OA
ATOM     11  O   UNL     1       2.917  -2.250   1.778  0.00  0.00    -0.138 OA
BRANCH   9  12
ATOM     12  N   UNL     1       0.596  -2.708   2.490  0.00  0.00    -0.191 NA
ATOM     13  H   UNL     1       0.501  -3.367   3.196  0.00  0.00    +0.146 HD
ATOM     14  H   UNL     1       0.016  -1.930   2.472  0.00  0.00    +0.146 HD
ENDBRANCH   9  12
ENDBRANCH   7   9
ENDBRANCH   5   7
BRANCH   3  15
ATOM     15  N   UNL     1       3.295   2.280  -0.037  0.00  0.00    -0.098 NA
BRANCH  15  16
ATOM     16  S   UNL     1       3.158   3.929   0.010  0.00  0.00    +0.094 S 
ATOM     17  O   UNL     1       2.503   4.317  -1.190  0.00  0.00    -0.148 OA
ATOM     18  O   UNL     1       2.650   4.258   1.296  0.00  0.00    -0.148 OA
BRANCH  16  19
ATOM     19  C   UNL     1       4.790   4.590  -0.071  0.00  0.00    +0.147 A 
ATOM     20  C   UNL     1       5.503   4.816   1.093  0.00  0.00    +0.069 A 
ATOM     21  C   UNL     1       6.784   5.334   1.029  0.00  0.00    +0.022 A 
ATOM     22  C   UNL     1       7.351   5.628  -0.197  0.00  0.00    +0.003 A 
ATOM     23  C   UNL     1       6.639   5.402  -1.360  0.00  0.00    +0.022 A 
ATOM     24  C   UNL     1       5.360   4.878  -1.298  0.00  0.00    +0.069 A 
ATOM     25 CL   UNL     1       4.468   4.588  -2.759  0.00  0.00    -0.081 Cl
ATOM     26 CL   UNL     1       4.791   4.449   2.633  0.00  0.00    -0.081 Cl
ENDBRANCH  16  19
ENDBRANCH  15  16
ENDBRANCH   3  15
TORSDOF 6
