REMARK  Name = ZINC35337651
REMARK  9 active torsions:
REMARK  status: ('A' for Active; 'I' for Inactive)
REMARK    1  A    between atoms: C_1  and  C_2
REMARK    2  A    between atoms: C_2  and  C_3
REMARK    3  A    between atoms: N_5  and  C_6
REMARK    4  A    between atoms: C_9  and  C_12
REMARK    5  A    between atoms: C_14  and  C_24
REMARK    6  A    between atoms: C_15  and  C_23
REMARK    7  A    between atoms: N_26  and  C_27
REMARK    8  A    between atoms: C_30  and  C_34
REMARK    9  A    between atoms: C_32  and  C_33
REMARK                            x       y       z     vdW  Elec       q    Type
REMARK                         _______ _______ _______ _____ _____    ______ ____
ROOT
ATOM      1  C   UNL     1       3.748  -3.481  -5.833  0.00  0.00    +0.142 C 
ATOM      2  C   UNL     1       5.175  -3.881  -5.539  0.00  0.00    +0.058 C 
ATOM      3  C   UNL     1       5.477  -5.196  -5.350  0.00  0.00    +0.025 C 
ATOM      4  N   UNL     1       4.538  -6.136  -5.465  0.00  0.00    -0.341 N 
ATOM      5  C   UNL     1       3.372  -5.875  -6.019  0.00  0.00    +0.135 C 
ATOM      6  N   UNL     1       3.077  -4.621  -6.485  0.00  0.00    -0.300 N 
ATOM      7  C   UNL     1       2.191  -4.371  -7.605  0.00  0.00    +0.109 C 
ATOM      8  C   UNL     1       0.968  -5.254  -7.690  0.00  0.00    +0.030 C 
ATOM      9  C   UNL     1       1.335  -6.739  -7.720  0.00  0.00    +0.078 C 
ATOM     10  S   UNL     1       2.142  -7.141  -6.134  0.00  0.00    -0.092 S 
ATOM     11  C   UNL     1       6.890  -5.593  -5.008  0.00  0.00    +0.064 C 
ATOM     12  H   UNL     1       4.718  -7.030  -5.133  0.00  0.00    +0.167 HD
ENDROOT
BRANCH   1  16
ATOM     13  C   UNL     1       1.738  -2.519  -2.186  0.00  0.00    +0.033 A 
ATOM     14  C   UNL     1       2.218  -1.505  -3.004  0.00  0.00    +0.023 A 
ATOM     15  C   UNL     1       2.867  -1.819  -4.182  0.00  0.00    +0.007 A 
ATOM     16  C   UNL     1       3.039  -3.142  -4.547  0.00  0.00    -0.022 A 
ATOM     17  C   UNL     1       2.562  -4.154  -3.734  0.00  0.00    +0.007 A 
ATOM     18  C   UNL     1       1.918  -3.846  -2.552  0.00  0.00    +0.023 A 
BRANCH  13  21
ATOM     19  C   UNL     1       1.235  -2.991   0.091  0.00  0.00    +0.217 C 
ATOM     20  O   UNL     1       1.882  -4.014   0.010  0.00  0.00    -0.275 OA
ATOM     21  N   UNL     1       1.080  -2.204  -0.992  0.00  0.00    -0.286 N 
ATOM     22  H   UNL     1       0.513  -1.419  -0.943  0.00  0.00    +0.155 HD
BRANCH  19  24
ATOM     23  C   UNL     1       0.930  -3.658   2.460  0.00  0.00    +0.013 C 
ATOM     24  C   UNL     1       0.604  -2.601   1.403  0.00  0.00    +0.093 C 
ENDBRANCH  19  24
ENDBRANCH  13  21
ENDBRANCH   1  16
BRANCH   2  25
ATOM     25  C   UNL     1       6.183  -2.903  -5.461  0.00  0.00    +0.248 C 
ATOM     26  O   UNL     1       7.341  -3.235  -5.271  0.00  0.00    -0.270 OA
ATOM     27  N   UNL     1       5.870  -1.599  -5.596  0.00  0.00    -0.281 N 
ATOM     28  H   UNL     1       4.943  -1.332  -5.701  0.00  0.00    +0.155 HD
BRANCH  27  29
ATOM     29  C   UNL     1       6.880  -0.632  -5.583  0.00  0.00    +0.037 A 
ATOM     30  C   UNL     1       8.072  -0.880  -4.915  0.00  0.00    +0.024 A 
ATOM     31  C   UNL     1       9.068   0.077  -4.905  0.00  0.00    +0.005 A 
ATOM     32  C   UNL     1       8.878   1.281  -5.559  0.00  0.00    -0.050 A 
ATOM     33  C   UNL     1       7.692   1.531  -6.224  0.00  0.00    +0.008 A 
ATOM     34  C   UNL     1       6.695   0.576  -6.243  0.00  0.00    -0.029 A 
ATOM     35  C   UNL     1       5.405   0.847  -6.973  0.00  0.00    +0.045 C 
ATOM     36  C   UNL     1       9.967   2.323  -5.545  0.00  0.00    +0.044 C 
ENDBRANCH  27  29
ENDBRANCH   2  25
TORSDOF 5
