REMARK  Name = ZINC09257161
REMARK  10 active torsions:
REMARK  status: ('A' for Active; 'I' for Inactive)
REMARK    1  A    between atoms: C_1  and  C_2
REMARK    2  A    between atoms: C_2  and  C_4
REMARK    3  A    between atoms: C_2  and  N_63
REMARK    4  A    between atoms: C_13  and  N_63
REMARK    5  A    between atoms: C_14  and  N_15
REMARK    6  A    between atoms: C_14  and  N_63
REMARK    7  A    between atoms: C_18  and  C_22
REMARK    8  A    between atoms: C_18  and  C_29
REMARK    9  A    between atoms: C_22  and  C_23
REMARK   10  A    between atoms: C_29  and  C_30
REMARK                            x       y       z     vdW  Elec       q    Type
REMARK                         _______ _______ _______ _____ _____    ______ ____
ROOT
ATOM      1  N   UNL     1       3.588   0.987   0.654  0.00  0.00    -0.241 N 
ATOM      2  C   UNL     1       4.207   0.029  -0.064  0.00  0.00    +0.245 C 
ATOM      3  O   UNL     1       3.719  -0.992  -0.498  0.00  0.00    -0.273 OA
ATOM      4  C   UNL     1       5.642   0.495  -0.217  0.00  0.00    +0.120 C 
ATOM      5  N   UNL     1       5.668   1.778   0.506  0.00  0.00    -0.284 N 
ATOM      6  C   UNL     1       4.425   1.979   0.979  0.00  0.00    +0.308 C 
ATOM      7  O   UNL     1       4.098   2.954   1.627  0.00  0.00    -0.252 OA
ATOM      8  H   UNL     1       6.433   2.364   0.620  0.00  0.00    +0.151 HD
ENDROOT
BRANCH   1   9
ATOM      9  C   UNL     1       2.174   0.944   1.037  0.00  0.00    +0.043 C 
BRANCH   9  11
ATOM     10  C   UNL     1       1.389   3.055   0.150  0.00  0.00    -0.093 C 
ATOM     11  N   UNL     1       1.377   1.588  -0.028  0.00  0.00    +0.394 N 
ATOM     12  H   UNL     1       1.791   1.359  -0.939  0.00  0.00    -0.079 HD
BRANCH  11  14
ATOM     13  C   UNL     1      -0.729   1.579   1.267  0.00  0.00    -0.006 C 
ATOM     14  C   UNL     1      -0.013   1.086   0.008  0.00  0.00    -0.013 C 
BRANCH  14  15
ATOM     15  C   UNL     1      -0.742   1.585  -1.213  0.00  0.00    +0.066 A 
ATOM     16  N   UNL     1      -0.755   2.789  -1.710  0.00  0.00    -0.246 NA
ATOM     17  C   UNL     1      -1.451   3.107  -2.822  0.00  0.00    +0.078 A 
ATOM     18  C   UNL     1      -1.560   4.353  -3.479  0.00  0.00    +0.029 A 
ATOM     19  C   UNL     1      -2.322   4.484  -4.598  0.00  0.00    +0.002 A 
ATOM     20  C   UNL     1      -3.019   3.410  -5.134  0.00  0.00    +0.001 A 
ATOM     21  C   UNL     1      -2.938   2.174  -4.520  0.00  0.00    +0.017 A 
ATOM     22  C   UNL     1      -2.171   2.031  -3.390  0.00  0.00    +0.039 A 
ATOM     23  S   UNL     1      -1.772   0.696  -2.291  0.00  0.00    -0.074 S 
ENDBRANCH  14  15
ENDBRANCH  11  14
ENDBRANCH   9  11
ENDBRANCH   1   9
BRANCH   4  24
ATOM     24  C   UNL     1       5.990   0.702  -1.692  0.00  0.00    +0.070 C 
BRANCH  24  25
ATOM     25  C   UNL     1       5.075   1.742  -2.284  0.00  0.00    -0.045 A 
ATOM     26  C   UNL     1       3.879   1.361  -2.864  0.00  0.00    +0.004 A 
ATOM     27  C   UNL     1       3.037   2.316  -3.403  0.00  0.00    +0.000 A 
ATOM     28  C   UNL     1       3.395   3.651  -3.370  0.00  0.00    +0.000 A 
ATOM     29  C   UNL     1       4.593   4.031  -2.795  0.00  0.00    +0.000 A 
ATOM     30  C   UNL     1       5.433   3.077  -2.252  0.00  0.00    +0.004 A 
ENDBRANCH  24  25
ENDBRANCH   4  24
BRANCH   4  31
ATOM     31  C   UNL     1       6.603  -0.505   0.427  0.00  0.00    +0.070 C 
BRANCH  31  32
ATOM     32  C   UNL     1       6.207  -0.730   1.863  0.00  0.00    -0.045 A 
ATOM     33  C   UNL     1       6.741   0.064   2.860  0.00  0.00    +0.004 A 
ATOM     34  C   UNL     1       6.374  -0.139   4.178  0.00  0.00    +0.000 A 
ATOM     35  C   UNL     1       5.480  -1.143   4.499  0.00  0.00    +0.000 A 
ATOM     36  C   UNL     1       4.950  -1.941   3.502  0.00  0.00    +0.000 A 
ATOM     37  C   UNL     1       5.313  -1.735   2.185  0.00  0.00    +0.004 A 
ENDBRANCH  31  32
ENDBRANCH   4  31
TORSDOF 8
