REMARK  Name = ZINC00876535
REMARK  9 active torsions:
REMARK  status: ('A' for Active; 'I' for Inactive)
REMARK    1  A    between atoms: C_1  and  C_2
REMARK    2  A    between atoms: C_6  and  C_15
REMARK    3  A    between atoms: C_13  and  C_14
REMARK    4  A    between atoms: C_17  and  C_28
REMARK    5  A    between atoms: C_18  and  N_27
REMARK    6  A    between atoms: C_20  and  C_26
REMARK    7  A    between atoms: C_21  and  C_22
REMARK    8  A    between atoms: C_22  and  O_24
REMARK    9  A    between atoms: O_24  and  C_25
REMARK                            x       y       z     vdW  Elec       q    Type
REMARK                         _______ _______ _______ _____ _____    ______ ____
ROOT
ATOM      1  C   UNL     1      -2.604   3.705   0.046  0.00  0.00    +0.110 C 
ATOM      2  C   UNL     1      -3.384   3.306  -1.177  0.00  0.00    +0.098 C 
ATOM      3  C   UNL     1      -4.393   2.405  -1.092  0.00  0.00    +0.198 C 
ATOM      4  O   UNL     1      -4.737   1.835   0.076  0.00  0.00    -0.445 OA
ATOM      5  C   UNL     1      -4.356   2.410   1.226  0.00  0.00    +0.115 C 
ATOM      6  C   UNL     1      -3.357   3.300   1.284  0.00  0.00    +0.087 C 
ATOM      7  C   UNL     1      -5.077   2.041   2.497  0.00  0.00    +0.087 C 
ENDROOT
BRANCH   1  13
ATOM      8  C   UNL     1       4.851   3.868  -0.024  0.00  0.00    +0.044 C 
ATOM      9  C   UNL     1       3.553   3.102  -0.016  0.00  0.00    -0.047 A 
ATOM     10  C   UNL     1       2.367   3.780  -0.001  0.00  0.00    +0.013 A 
ATOM     11  C   UNL     1       1.163   3.069   0.007  0.00  0.00    -0.001 A 
ATOM     12  C   UNL     1      -0.126   3.764   0.023  0.00  0.00    +0.020 A 
ATOM     13  C   UNL     1      -1.261   3.022   0.030  0.00  0.00    +0.030 A 
ATOM     14  C   UNL     1      -1.190   1.613   0.017  0.00  0.00    +0.253 A 
ATOM     15  O   UNL     1      -2.223   0.965   0.018  0.00  0.00    -0.268 OA
ATOM     16  N   UNL     1      -0.011   0.966   0.007  0.00  0.00    -0.322 N 
ATOM     17  H   UNL     1       0.003  -0.034   0.006  0.00  0.00    +0.169 HD
ATOM     18  C   UNL     1       1.179   1.661  -0.000  0.00  0.00    +0.049 A 
ATOM     19  C   UNL     1       2.399   0.993  -0.015  0.00  0.00    +0.030 A 
ATOM     20  C   UNL     1       3.574   1.714  -0.023  0.00  0.00    -0.046 A 
ATOM     21  C   UNL     1       4.894   0.988  -0.039  0.00  0.00    +0.044 C 
ENDBRANCH   1  13
BRANCH   3  22
ATOM     22  N   UNL     1      -5.083   2.066  -2.229  0.00  0.00    -0.328 N 
ATOM     23  H   UNL     1      -4.846   2.470  -3.079  0.00  0.00    +0.145 HD
ATOM     24  H   UNL     1      -5.808   1.423  -2.183  0.00  0.00    +0.145 HD
ENDBRANCH   3  22
BRANCH   6  25
ATOM     25  C   UNL     1      -3.004   3.869   2.532  0.00  0.00    +0.339 C 
ATOM     26  O   UNL     1      -3.606   3.549   3.539  0.00  0.00    -0.245 OA
BRANCH  25  27
ATOM     27  O   UNL     1      -1.999   4.767   2.603  0.00  0.00    -0.465 OA
ATOM     28  C   UNL     1      -1.697   5.301   3.894  0.00  0.00    +0.280 C 
ENDBRANCH  25  27
ENDBRANCH   6  25
BRANCH   2  29
ATOM     29  C   UNL     1      -3.055   3.883  -2.446  0.00  0.00    +0.101 C 
ATOM     30  N   UNL     1      -2.795   4.341  -3.453  0.00  0.00    -0.191 NA
ENDBRANCH   2  29
TORSDOF 5
