REMARK  Name = ZINC15830198
REMARK  6 active torsions:
REMARK  status: ('A' for Active; 'I' for Inactive)
REMARK    1  A    between atoms: C_1  and  O_2
REMARK    2  A    between atoms: O_2  and  C_3
REMARK    3  A    between atoms: C_7  and  C_10
REMARK    4  A    between atoms: C_8  and  O_9
REMARK    5  A    between atoms: C_13  and  C_22
REMARK    6  A    between atoms: C_27  and  O_28
REMARK                            x       y       z     vdW  Elec       q    Type
REMARK                         _______ _______ _______ _____ _____    ______ ____
ROOT
ATOM      1  C   UNL     1       1.340  -4.110  -2.292  0.00  0.00    +0.095 C 
ATOM      2  C   UNL     1       0.055  -4.645  -2.931  0.00  0.00    +0.079 C 
ATOM      3  C   UNL     1       0.246  -6.090  -3.302  0.00  0.00    +0.050 C 
ATOM      4  N   UNL     1       1.396  -6.651  -3.365  0.00  0.00    -0.266 NA
ATOM      5  C   UNL     1       2.655  -5.972  -3.080  0.00  0.00    +0.109 C 
ATOM      6  N   UNL     1       2.478  -4.515  -3.134  0.00  0.00    -0.286 NA
ATOM      7  C   UNL     1       3.146  -6.369  -1.684  0.00  0.00    +0.027 C 
ATOM      8  C   UNL     1       3.400  -7.878  -1.649  0.00  0.00    -0.079 C 
ATOM      9  N   UNL     1       4.408  -8.230  -2.658  0.00  0.00    +0.379 N 
ATOM     10  C   UNL     1       3.943  -7.899  -4.011  0.00  0.00    -0.079 C 
ATOM     11  C   UNL     1       3.706  -6.391  -4.115  0.00  0.00    +0.027 C 
ATOM     12  H   UNL     1       2.289  -4.214  -4.175  0.00  0.00    +0.125 HD
ATOM     13  H   UNL     1       5.336  -7.674  -2.459  0.00  0.00    -0.086 HD
ATOM     14  H   UNL     1       4.611  -9.310  -2.611  0.00  0.00    -0.086 HD
ENDROOT
BRANCH   1  19
ATOM     15  C   UNL     1       0.606  -0.608  -1.056  0.00  0.00    +0.162 A 
ATOM     16  C   UNL     1       1.163   0.159  -2.068  0.00  0.00    +0.049 A 
ATOM     17  C   UNL     1       1.781  -0.456  -3.140  0.00  0.00    +0.004 A 
ATOM     18  C   UNL     1       1.837  -1.836  -3.212  0.00  0.00    +0.009 A 
ATOM     19  C   UNL     1       1.278  -2.606  -2.209  0.00  0.00    +0.015 A 
ATOM     20  C   UNL     1       0.662  -1.996  -1.129  0.00  0.00    +0.163 A 
BRANCH  15  22
ATOM     21  C   UNL     1      -0.017   1.425   0.010  0.00  0.00    +0.277 C 
ATOM     22  O   UNL     1       0.002  -0.004   0.002  0.00  0.00    -0.491 OA
ENDBRANCH  15  22
BRANCH  20  23
ATOM     23  O   UNL     1       0.112  -2.753  -0.141  0.00  0.00    -0.503 OA
ATOM     24  H   UNL     1       0.157  -3.850  -0.200  0.00  0.00    +0.292 HD
ENDBRANCH  20  23
ENDBRANCH   1  19
BRANCH   3  25
ATOM     25  C   UNL     1      -0.947  -6.900  -3.606  0.00  0.00    +0.037 A 
ATOM     26  C   UNL     1      -2.220  -6.327  -3.542  0.00  0.00    +0.013 A 
ATOM     27  C   UNL     1      -3.331  -7.089  -3.832  0.00  0.00    +0.001 A 
ATOM     28  C   UNL     1      -3.194  -8.423  -4.176  0.00  0.00    +0.004 A 
ATOM     29  C   UNL     1      -1.942  -9.004  -4.237  0.00  0.00    +0.046 A 
ATOM     30  C   UNL     1      -0.812  -8.251  -3.954  0.00  0.00    +0.126 A 
BRANCH  30  31
ATOM     31  O   UNL     1       0.418  -8.820  -4.013  0.00  0.00    -0.506 OA
ATOM     32  H   UNL     1       0.521  -9.880  -4.287  0.00  0.00    +0.292 HD
ENDBRANCH  30  31
ENDBRANCH   3  25
TORSDOF 5
