REMARK  Name = ZINC37199373
REMARK  9 active torsions:
REMARK  status: ('A' for Active; 'I' for Inactive)
REMARK    1  A    between atoms: C_1  and  C_2
REMARK    2  A    between atoms: C_2  and  C_3
REMARK    3  A    between atoms: C_2  and  C_4
REMARK    4  A    between atoms: C_4  and  C_6
REMARK    5  A    between atoms: C_4  and  N_11
REMARK    6  A    between atoms: N_11  and  C_12
REMARK    7  A    between atoms: C_12  and  C_13
REMARK    8  A    between atoms: C_16  and  S_19
REMARK    9  A    between atoms: S_19  and  N_22
REMARK                            x       y       z     vdW  Elec       q    Type
REMARK                         _______ _______ _______ _____ _____    ______ ____
ROOT
ATOM      1  C   UNL     1      -1.456  -0.814  -2.369  0.00  0.00    -0.046 C 
ENDROOT
BRANCH   1   2
ATOM      2  C   UNL     1      -2.147  -0.417  -3.648  0.00  0.00    -0.064 A 
ATOM      3  C   UNL     1      -3.215  -1.160  -4.116  0.00  0.00    +0.003 A 
ATOM      4  C   UNL     1      -3.849  -0.797  -5.289  0.00  0.00    +0.029 A 
ATOM      5  C   UNL     1      -3.416   0.310  -5.995  0.00  0.00    +0.105 A 
ATOM      6  C   UNL     1      -2.349   1.054  -5.527  0.00  0.00    +0.029 A 
ATOM      7  C   UNL     1      -1.717   0.693  -4.351  0.00  0.00    +0.003 A 
BRANCH   5   8
ATOM      8  S   UNL     1      -4.223   0.773  -7.491  0.00  0.00    +0.056 S 
ATOM      9  O   UNL     1      -3.282   1.524  -8.245  0.00  0.00    -0.153 OA
ATOM     10  O   UNL     1      -4.843  -0.401  -7.998  0.00  0.00    -0.153 OA
BRANCH   8  11
ATOM     11  N   UNL     1      -5.445   1.815  -7.086  0.00  0.00    -0.204 NA
ATOM     12  H   UNL     1      -5.592   2.053  -6.157  0.00  0.00    +0.144 HD
ATOM     13  H   UNL     1      -6.014   2.188  -7.777  0.00  0.00    +0.144 HD
ENDBRANCH   8  11
ENDBRANCH   5   8
ENDBRANCH   1   2
BRANCH   1  14
ATOM     14  N   UNL     1      -2.107  -0.147  -1.234  0.00  0.00    +0.387 N 
ATOM     15  H   UNL     1      -3.076  -0.424  -1.192  0.00  0.00    -0.085 HD
ATOM     16  H   UNL     1      -2.048   0.853  -1.352  0.00  0.00    -0.085 HD
BRANCH  14  17
ATOM     17  C   UNL     1      -1.433  -0.534   0.013  0.00  0.00    -0.031 C 
BRANCH  17  18
ATOM     18  C   UNL     1      -2.175   0.051   1.187  0.00  0.00    -0.024 A 
ATOM     19  C   UNL     1      -2.442  -0.508   2.393  0.00  0.00    +0.009 A 
ATOM     20  C   UNL     1      -3.147   0.223   3.330  0.00  0.00    +0.008 A 
ATOM     21  C   UNL     1      -3.551   1.478   3.016  0.00  0.00    +0.045 A 
ATOM     22  S   UNL     1      -2.926   1.662   1.354  0.00  0.00    -0.103 S 
ENDBRANCH  17  18
BRANCH  17  24
ATOM     23  C   UNL     1      -0.019   1.526   0.010  0.00  0.00    +0.006 C 
ATOM     24  C   UNL     1       0.002  -0.004   0.002  0.00  0.00    -0.027 C 
ATOM     25  C   UNL     1       0.742  -0.511   1.242  0.00  0.00    +0.006 C 
ENDBRANCH  17  24
ENDBRANCH  14  17
ENDBRANCH   1  14
TORSDOF 7
