REMARK  Name = ZINC39280190
REMARK  6 active torsions:
REMARK  status: ('A' for Active; 'I' for Inactive)
REMARK    1  A    between atoms: C_1  and  O_2
REMARK    2  A    between atoms: O_2  and  C_3
REMARK    3  A    between atoms: C_6  and  C_9
REMARK    4  A    between atoms: C_25  and  N_38
REMARK    5  A    between atoms: C_26  and  C_36
REMARK    6  A    between atoms: C_27  and  C_29
REMARK                            x       y       z     vdW  Elec       q    Type
REMARK                         _______ _______ _______ _____ _____    ______ ____
ROOT
ATOM      1  C   UNL     1      -4.960  -2.618   0.035  0.00  0.00    +0.072 A 
ATOM      2  C   UNL     1      -5.011  -4.015   0.040  0.00  0.00    +0.029 A 
ATOM      3  C   UNL     1      -6.212  -4.660   0.079  0.00  0.00    +0.014 A 
ATOM      4  C   UNL     1      -7.407  -3.900   0.111  0.00  0.00    +0.027 A 
ATOM      5  C   UNL     1      -7.259  -2.488   0.045  0.00  0.00    +0.107 A 
ATOM      6  N   UNL     1      -6.084  -1.906   0.045  0.00  0.00    -0.240 NA
ATOM      7  S   UNL     1      -8.925  -1.853  -0.062  0.00  0.00    -0.088 S 
ATOM      8  C   UNL     1      -9.732  -3.439  -0.535  0.00  0.00    +0.166 C 
ATOM      9  C   UNL     1      -8.783  -4.386   0.218  0.00  0.00    +0.065 C 
ATOM     10  N   UNL     1      -9.330  -5.416   0.811  0.00  0.00    -0.179 NA
ATOM     11  C   UNL     1     -10.653  -5.518   1.004  0.00  0.00    +0.268 C 
ATOM     12  O   UNL     1     -11.100  -6.559   1.455  0.00  0.00    -0.268 OA
ATOM     13  C   UNL     1     -11.582  -4.430   0.696  0.00  0.00    +0.068 C 
ATOM     14  C   UNL     1     -11.164  -3.383  -0.072  0.00  0.00    +0.135 C 
ATOM     15  O   UNL     1     -11.954  -2.351  -0.397  0.00  0.00    -0.444 OA
ATOM     16  C   UNL     1     -13.092  -2.131   0.286  0.00  0.00    +0.198 C 
ATOM     17  C   UNL     1     -13.660  -3.102   1.043  0.00  0.00    +0.098 C 
ATOM     18  C   UNL     1     -13.003  -4.490   1.184  0.00  0.00    +0.103 C 
ENDROOT
BRANCH  18  19
ATOM     19  C   UNL     1     -13.783  -5.460   0.335  0.00  0.00    -0.034 A 
ATOM     20  C   UNL     1     -13.899  -5.248  -1.026  0.00  0.00    +0.007 A 
ATOM     21  C   UNL     1     -14.614  -6.137  -1.807  0.00  0.00    +0.038 A 
ATOM     22  C   UNL     1     -15.213  -7.241  -1.225  0.00  0.00    +0.123 A 
ATOM     23  C   UNL     1     -15.095  -7.453   0.139  0.00  0.00    +0.038 A 
ATOM     24  C   UNL     1     -14.376  -6.565   0.916  0.00  0.00    +0.007 A 
ATOM     25  F   UNL     1     -15.912  -8.111  -1.986  0.00  0.00    -0.205 F 
ENDBRANCH  18  19
BRANCH   1  29
ATOM     26  C   UNL     1      -1.199  -0.637   0.010  0.00  0.00    +0.120 A 
ATOM     27  C   UNL     1      -2.374   0.105   0.019  0.00  0.00    +0.046 A 
ATOM     28  C   UNL     1      -3.595  -0.534   0.028  0.00  0.00    +0.013 A 
ATOM     29  C   UNL     1      -3.651  -1.928   0.026  0.00  0.00    +0.001 A 
ATOM     30  C   UNL     1      -2.469  -2.671   0.016  0.00  0.00    +0.013 A 
ATOM     31  C   UNL     1      -1.251  -2.025   0.003  0.00  0.00    +0.046 A 
BRANCH  26  33
ATOM     32  C   UNL     1      -0.017   1.425   0.010  0.00  0.00    +0.277 C 
ATOM     33  O   UNL     1       0.002  -0.004   0.002  0.00  0.00    -0.495 OA
ENDBRANCH  26  33
ENDBRANCH   1  29
BRANCH  16  34
ATOM     34  N   UNL     1     -13.691  -0.897   0.215  0.00  0.00    -0.328 N 
ATOM     35  H   UNL     1     -13.293  -0.195  -0.323  0.00  0.00    +0.145 HD
ATOM     36  H   UNL     1     -14.511  -0.728   0.704  0.00  0.00    +0.145 HD
ENDBRANCH  16  34
BRANCH  17  37
ATOM     37  C   UNL     1     -14.873  -2.827   1.752  0.00  0.00    +0.101 C 
ATOM     38  N   UNL     1     -15.835  -2.608   2.315  0.00  0.00    -0.191 NA
ENDBRANCH  17  37
TORSDOF 5
