REMARK  Name = ZINC49502643
REMARK  7 active torsions:
REMARK  status: ('A' for Active; 'I' for Inactive)
REMARK    1  A    between atoms: C_1  and  C_2
REMARK    2  A    between atoms: C_2  and  C_4
REMARK    3  A    between atoms: C_2  and  N_11
REMARK    4  A    between atoms: N_11  and  S_12
REMARK    5  A    between atoms: S_12  and  C_15
REMARK    6  A    between atoms: C_20  and  N_21
REMARK    7  A    between atoms: N_21  and  N_22
REMARK                            x       y       z     vdW  Elec       q    Type
REMARK                         _______ _______ _______ _____ _____    ______ ____
ROOT
ATOM      1  S   UNL     1       2.178  -0.909   1.027  0.00  0.00    +0.061 S 
ATOM      2  O   UNL     1       2.627  -1.527   2.225  0.00  0.00    -0.153 OA
ATOM      3  O   UNL     1       2.116  -1.603  -0.211  0.00  0.00    -0.153 OA
ENDROOT
BRANCH   1   4
ATOM      4  C   UNL     1       3.212   0.494   0.766  0.00  0.00    +0.127 A 
ATOM      5  C   UNL     1       3.806   0.696  -0.465  0.00  0.00    +0.030 A 
ATOM      6  C   UNL     1       4.617   1.797  -0.670  0.00  0.00    +0.002 A 
ATOM      7  C   UNL     1       4.837   2.699   0.355  0.00  0.00    +0.002 A 
ATOM      8  C   UNL     1       4.246   2.503   1.587  0.00  0.00    +0.026 A 
ATOM      9  C   UNL     1       3.425   1.401   1.796  0.00  0.00    +0.067 A 
BRANCH   9  10
ATOM     10  N   UNL     1       2.822   1.203   3.040  0.00  0.00    -0.281 N 
ATOM     11  H   UNL     1       2.228   0.449   3.176  0.00  0.00    +0.166 HD
BRANCH  10  12
ATOM     12  N   UNL     1       3.067   2.073   4.064  0.00  0.00    -0.256 NA
ATOM     13  H   UNL     1       2.842   3.019   3.797  0.00  0.00    +0.140 HD
ATOM     14  H   UNL     1       2.565   1.802   4.896  0.00  0.00    +0.140 HD
ENDBRANCH  10  12
ENDBRANCH   9  10
ENDBRANCH   1   4
BRANCH   1  15
ATOM     15  N   UNL     1       0.652  -0.343   1.329  0.00  0.00    -0.183 NA
ATOM     16  H   UNL     1       0.239  -0.499   2.193  0.00  0.00    +0.149 HD
BRANCH  15  18
ATOM     17  C   UNL     1      -0.515   1.751   0.844  0.00  0.00    +0.031 C 
ATOM     18  C   UNL     1      -0.075   0.393   0.292  0.00  0.00    +0.103 C 
BRANCH  18  19
ATOM     19  C   UNL     1      -1.289  -0.396  -0.126  0.00  0.00    -0.029 A 
ATOM     20  C   UNL     1      -2.044  -1.058   0.824  0.00  0.00    +0.008 A 
ATOM     21  C   UNL     1      -3.157  -1.782   0.441  0.00  0.00    +0.038 A 
ATOM     22  C   UNL     1      -3.517  -1.843  -0.894  0.00  0.00    +0.123 A 
ATOM     23  C   UNL     1      -2.761  -1.178  -1.845  0.00  0.00    +0.038 A 
ATOM     24  C   UNL     1      -1.651  -0.451  -1.460  0.00  0.00    +0.008 A 
ATOM     25  F   UNL     1      -4.605  -2.550  -1.270  0.00  0.00    -0.205 F 
ENDBRANCH  18  19
ENDBRANCH  15  18
ENDBRANCH   1  15
TORSDOF 6
