REMARK  Name = ZINC47137729
REMARK  14 active torsions:
REMARK  status: ('A' for Active; 'I' for Inactive)
REMARK    1  A    between atoms: C_1  and  C_2
REMARK    2  A    between atoms: C_2  and  C_3
REMARK    3  A    between atoms: C_2  and  C_4
REMARK    4  A    between atoms: C_2  and  C_5
REMARK    5  A    between atoms: C_8  and  C_11
REMARK    6  A    between atoms: N_12  and  N_13
REMARK    7  A    between atoms: N_15  and  C_32
REMARK    8  A    between atoms: C_19  and  C_20
REMARK    9  A    between atoms: C_22  and  O_29
REMARK   10  A    between atoms: C_23  and  O_28
REMARK   11  A    between atoms: C_24  and  O_26
REMARK   12  A    between atoms: O_26  and  C_27
REMARK   13  A    between atoms: O_29  and  C_30
REMARK   14  A    between atoms: C_32  and  C_33
REMARK                            x       y       z     vdW  Elec       q    Type
REMARK                         _______ _______ _______ _____ _____    ______ ____
ROOT
ATOM      1  N   UNL     1       4.848  -1.295  -3.911  0.00  0.00    -0.126 NA
ATOM      2  C   UNL     1       5.999  -0.738  -4.235  0.00  0.00    +0.190 C 
ATOM      3  N   UNL     1       6.736  -0.904  -5.386  0.00  0.00    -0.237 N 
ATOM      4  C   UNL     1       7.881  -0.264  -5.551  0.00  0.00    +0.259 C 
ATOM      5  O   UNL     1       8.546  -0.399  -6.562  0.00  0.00    -0.269 OA
ATOM      6  C   UNL     1       8.316   0.623  -4.456  0.00  0.00    +0.078 C 
ATOM      7  C   UNL     1       9.432   1.391  -4.360  0.00  0.00    +0.028 C 
ATOM      8  S   UNL     1       6.976   0.420  -3.291  0.00  0.00    -0.047 S 
ENDROOT
BRANCH   7   9
ATOM      9  C   UNL     1       9.749   2.071  -3.098  0.00  0.00    -0.017 A 
ATOM     10  C   UNL     1       9.127   1.671  -1.909  0.00  0.00    +0.057 A 
ATOM     11  C   UNL     1       9.428   2.313  -0.724  0.00  0.00    +0.166 A 
ATOM     12  C   UNL     1      10.349   3.358  -0.710  0.00  0.00    +0.201 A 
ATOM     13  C   UNL     1      10.971   3.759  -1.890  0.00  0.00    +0.166 A 
ATOM     14  C   UNL     1      10.679   3.118  -3.079  0.00  0.00    +0.057 A 
BRANCH  13  15
ATOM     15  O   UNL     1      11.870   4.779  -1.871  0.00  0.00    -0.491 OA
ATOM     16  C   UNL     1      12.469   5.139  -3.118  0.00  0.00    +0.277 C 
ENDBRANCH  13  15
BRANCH  12  17
ATOM     17  O   UNL     1      10.643   3.988   0.459  0.00  0.00    -0.501 OA
ATOM     18  H   UNL     1      11.380   3.593   0.944  0.00  0.00    +0.292 HD
ENDBRANCH  12  17
BRANCH  11  19
ATOM     19  O   UNL     1       8.824   1.926   0.431  0.00  0.00    -0.491 OA
ATOM     20  C   UNL     1       7.889   0.848   0.345  0.00  0.00    +0.277 C 
ENDBRANCH  11  19
ENDBRANCH   7   9
BRANCH   1  22
ATOM     21  C   UNL     1       3.138  -2.670  -4.404  0.00  0.00    +0.143 C 
ATOM     22  N   UNL     1       4.278  -2.118  -4.725  0.00  0.00    -0.155 NA
BRANCH  21  26
ATOM     23  C   UNL     1       1.160  -1.527  -0.830  0.00  0.00    -0.042 A 
ATOM     24  C   UNL     1       2.433  -1.052  -1.095  0.00  0.00    +0.005 A 
ATOM     25  C   UNL     1       3.083  -1.419  -2.254  0.00  0.00    +0.010 A 
ATOM     26  C   UNL     1       2.452  -2.274  -3.164  0.00  0.00    -0.005 A 
ATOM     27  C   UNL     1       1.166  -2.750  -2.889  0.00  0.00    +0.010 A 
ATOM     28  C   UNL     1       0.532  -2.378  -1.723  0.00  0.00    +0.005 A 
BRANCH  23  30
ATOM     29  C   UNL     1       0.144  -2.366   1.270  0.00  0.00    +0.015 C 
ATOM     30  C   UNL     1       0.457  -1.121   0.439  0.00  0.00    -0.013 C 
ATOM     31  C   UNL     1      -0.846  -0.398   0.092  0.00  0.00    +0.015 C 
ATOM     32  C   UNL     1       1.360  -0.184   1.245  0.00  0.00    +0.015 C 
ENDBRANCH  23  30
ENDBRANCH  21  26
ENDBRANCH   1  22
BRANCH   3  33
ATOM     33  C   UNL     1       6.248  -1.801  -6.437  0.00  0.00    +0.190 C 
BRANCH  33  34
ATOM     34  C   UNL     1       5.387  -1.024  -7.399  0.00  0.00    +0.123 A 
ATOM     35  C   UNL     1       5.817  -0.395  -8.508  0.00  0.00    +0.046 A 
ATOM     36  C   UNL     1       4.683   0.200  -9.107  0.00  0.00    +0.041 A 
ATOM     37  C   UNL     1       3.628  -0.101  -8.328  0.00  0.00    +0.195 A 
ATOM     38  O   UNL     1       4.060  -0.848  -7.299  0.00  0.00    -0.466 OA
ENDBRANCH  33  34
ENDBRANCH   3  33
TORSDOF 9
