REMARK  Name = ZINC46877495
REMARK  9 active torsions:
REMARK  status: ('A' for Active; 'I' for Inactive)
REMARK    1  A    between atoms: C_1  and  C_2
REMARK    2  A    between atoms: C_5  and  O_8
REMARK    3  A    between atoms: O_8  and  C_9
REMARK    4  A    between atoms: C_14  and  N_15
REMARK    5  A    between atoms: C_16  and  C_18
REMARK    6  A    between atoms: C_18  and  N_19
REMARK    7  A    between atoms: C_22  and  C_26
REMARK    8  A    between atoms: C_22  and  C_27
REMARK    9  A    between atoms: C_31  and  C_33
REMARK                            x       y       z     vdW  Elec       q    Type
REMARK                         _______ _______ _______ _____ _____    ______ ____
ROOT
ATOM      1  C   UNL     1       0.185  -8.945  -1.279  0.00  0.00    +0.214 C 
ENDROOT
BRANCH   1   2
ATOM      2  N   UNL     1       0.233 -10.377  -0.971  0.00  0.00    -0.215 N 
ATOM      3  C   UNL     1       1.368 -11.101  -0.911  0.00  0.00    +0.251 C 
ATOM      4  O   UNL     1       2.499 -10.706  -1.094  0.00  0.00    -0.272 OA
ATOM      5  C   UNL     1       0.935 -12.512  -0.565  0.00  0.00    +0.135 C 
ATOM      6  N   UNL     1      -0.530 -12.409  -0.460  0.00  0.00    -0.281 N 
ATOM      7  C   UNL     1      -0.845 -11.125  -0.708  0.00  0.00    +0.310 C 
ATOM      8  O   UNL     1      -1.981 -10.694  -0.699  0.00  0.00    -0.252 OA
ATOM      9  C   UNL     1       1.329 -13.484  -1.679  0.00  0.00    +0.047 C 
ATOM     10  H   UNL     1      -1.148 -13.127  -0.250  0.00  0.00    +0.152 HD
BRANCH   5  11
ATOM     11  C   UNL     1       1.532 -12.942   0.751  0.00  0.00    -0.015 A 
ATOM     12  C   UNL     1       2.751 -12.431   1.157  0.00  0.00    +0.006 A 
ATOM     13  C   UNL     1       3.299 -12.825   2.363  0.00  0.00    +0.001 A 
ATOM     14  C   UNL     1       2.626 -13.730   3.164  0.00  0.00    +0.012 A 
ATOM     15  C   UNL     1       1.407 -14.239   2.759  0.00  0.00    +0.055 A 
ATOM     16  C   UNL     1       0.858 -13.841   1.554  0.00  0.00    +0.018 A 
BRANCH  15  17
ATOM     17  C   UNL     1       0.675 -15.225   3.633  0.00  0.00    +0.417 C 
ATOM     18  F   UNL     1       1.422 -15.467   4.791  0.00  0.00    -0.166 F 
ATOM     19  F   UNL     1      -0.573 -14.699   3.984  0.00  0.00    -0.166 F 
ATOM     20  F   UNL     1       0.496 -16.424   2.934  0.00  0.00    -0.166 F 
ENDBRANCH  15  17
ENDBRANCH   5  11
ENDBRANCH   1   2
BRANCH   1  22
ATOM     21  N   UNL     1       0.274  -6.805  -0.041  0.00  0.00    -0.281 N 
ATOM     22  C   UNL     1       0.295  -8.152  -0.002  0.00  0.00    +0.235 C 
ATOM     23  O   UNL     1       0.403  -8.727   1.061  0.00  0.00    -0.274 OA
ATOM     24  H   UNL     1       0.246  -6.345  -0.894  0.00  0.00    +0.155 HD
BRANCH  21  30
ATOM     25  C   UNL     1      -0.398  -4.863   1.239  0.00  0.00    +0.150 A 
ATOM     26  C   UNL     1      -0.380  -4.142   2.422  0.00  0.00    +0.048 A 
ATOM     27  C   UNL     1       0.326  -4.619   3.511  0.00  0.00    +0.004 A 
ATOM     28  C   UNL     1       1.016  -5.814   3.424  0.00  0.00    +0.002 A 
ATOM     29  C   UNL     1       1.004  -6.538   2.247  0.00  0.00    +0.027 A 
ATOM     30  C   UNL     1       0.293  -6.070   1.151  0.00  0.00    +0.076 A 
BRANCH  25  31
ATOM     31  O   UNL     1      -1.092  -4.396   0.167  0.00  0.00    -0.454 OA
BRANCH  31  36
ATOM     32  C   UNL     1      -3.416   0.720   0.545  0.00  0.00    +0.044 C 
ATOM     33  C   UNL     1      -2.794  -0.649   0.444  0.00  0.00    -0.050 A 
ATOM     34  C   UNL     1      -1.418  -0.782   0.431  0.00  0.00    +0.007 A 
ATOM     35  C   UNL     1      -0.845  -2.036   0.338  0.00  0.00    +0.046 A 
ATOM     36  C   UNL     1      -1.653  -3.162   0.259  0.00  0.00    +0.129 A 
ATOM     37  C   UNL     1      -3.033  -3.025   0.273  0.00  0.00    +0.046 A 
ATOM     38  C   UNL     1      -3.601  -1.769   0.370  0.00  0.00    +0.007 A 
ENDBRANCH  31  36
ENDBRANCH  25  31
ENDBRANCH  21  30
ENDBRANCH   1  22
TORSDOF 7
