REMARK  Name = ZINC08254414
REMARK  11 active torsions:
REMARK  status: ('A' for Active; 'I' for Inactive)
REMARK    1  A    between atoms: C_1  and  C_2
REMARK    2  A    between atoms: C_2  and  C_3
REMARK    3  A    between atoms: C_2  and  C_4
REMARK    4  A    between atoms: C_2  and  C_5
REMARK    5  A    between atoms: C_8  and  C_11
REMARK    6  A    between atoms: N_13  and  C_16
REMARK    7  A    between atoms: C_16  and  C_17
REMARK    8  A    between atoms: C_25  and  C_27
REMARK    9  A    between atoms: N_32  and  C_35
REMARK   10  A    between atoms: C_40  and  O_41
REMARK   11  A    between atoms: O_41  and  C_42
REMARK                            x       y       z     vdW  Elec       q    Type
REMARK                         _______ _______ _______ _____ _____    ______ ____
ROOT
ATOM      1  C   UNL     1       0.002  -9.023  -1.179  0.00  0.00    -0.046 C 
ATOM      2  C   UNL     1      -1.219  -8.568  -0.375  0.00  0.00    -0.010 C 
ATOM      3  C   UNL     1      -1.957  -7.482  -1.168  0.00  0.00    -0.004 C 
ATOM      4  C   UNL     1      -2.374  -8.064  -2.524  0.00  0.00    -0.015 C 
ATOM      5  C   UNL     1      -1.120  -8.533  -3.268  0.00  0.00    -0.078 C 
ATOM      6  C   UNL     1       0.223  -6.831  -2.187  0.00  0.00    -0.065 C 
ATOM      7  C   UNL     1      -0.993  -6.314  -1.412  0.00  0.00    +0.062 C 
ATOM      8  N   UNL     1       0.087  -8.279  -2.454  0.00  0.00    +0.383 N 
ATOM      9  H   UNL     1       0.913  -8.601  -2.973  0.00  0.00    -0.081 HD
ENDROOT
BRANCH   7  10
ATOM     10  C   UNL     1      -0.545  -5.745  -0.090  0.00  0.00    +0.217 C 
ATOM     11  O   UNL     1      -0.964  -6.215   0.946  0.00  0.00    -0.275 OA
ATOM     12  N   UNL     1       0.321  -4.713  -0.061  0.00  0.00    -0.298 N 
ATOM     13  C   UNL     1       0.771  -4.142   1.218  0.00  0.00    +0.126 C 
ATOM     14  C   UNL     1       0.569  -2.623   1.171  0.00  0.00    +0.124 C 
ATOM     15  N   UNL     1       1.235  -2.080  -0.020  0.00  0.00    -0.324 N 
ATOM     16  C   UNL     1       0.636  -2.610  -1.253  0.00  0.00    +0.124 C 
ATOM     17  C   UNL     1       0.841  -4.127  -1.306  0.00  0.00    +0.126 C 
BRANCH  15  18
ATOM     18  C   UNL     1       1.213  -0.681  -0.013  0.00  0.00    +0.072 A 
ATOM     19  C   UNL     1       0.002  -0.004   0.002  0.00  0.00    +0.027 A 
ATOM     20  C   UNL     1      -0.017   1.378   0.010  0.00  0.00    +0.002 A 
ATOM     21  C   UNL     1       1.169   2.089   0.002  0.00  0.00    +0.004 A 
ATOM     22  C   UNL     1       2.380   1.421  -0.013  0.00  0.00    +0.047 A 
ATOM     23  C   UNL     1       2.407   0.036  -0.021  0.00  0.00    +0.141 A 
BRANCH  23  24
ATOM     24  O   UNL     1       3.598  -0.622  -0.035  0.00  0.00    -0.493 OA
ATOM     25  C   UNL     1       4.781   0.178  -0.042  0.00  0.00    +0.277 C 
ENDBRANCH  23  24
ENDBRANCH  15  18
ENDBRANCH   7  10
BRANCH   1  26
ATOM     26  C   UNL     1       1.273  -8.764  -0.366  0.00  0.00    +0.130 C 
BRANCH  26  29
ATOM     27  C   UNL     1       4.351  -9.499  -2.076  0.00  0.00    +0.113 A 
ATOM     28  C   UNL     1       3.538  -8.612  -1.432  0.00  0.00    +0.138 A 
ATOM     29  N   UNL     1       2.430  -9.305  -1.084  0.00  0.00    -0.253 N 
ATOM     30  N   UNL     1       2.561 -10.517  -1.495  0.00  0.00    -0.065 NA
ATOM     31  N   UNL     1       3.691 -10.671  -2.090  0.00  0.00    -0.130 NA
BRANCH  27  35
ATOM     32  C   UNL     1       8.192  -8.713  -3.724  0.00  0.00    -0.042 A 
ATOM     33  C   UNL     1       7.647  -9.980  -3.821  0.00  0.00    +0.005 A 
ATOM     34  C   UNL     1       6.401 -10.241  -3.288  0.00  0.00    +0.010 A 
ATOM     35  C   UNL     1       5.691  -9.225  -2.652  0.00  0.00    +0.004 A 
ATOM     36  C   UNL     1       6.242  -7.948  -2.562  0.00  0.00    +0.010 A 
ATOM     37  C   UNL     1       7.492  -7.700  -3.093  0.00  0.00    +0.005 A 
BRANCH  32  39
ATOM     38  C   UNL     1       9.531  -8.715  -5.811  0.00  0.00    +0.015 C 
ATOM     39  C   UNL     1       9.553  -8.434  -4.307  0.00  0.00    -0.013 C 
ATOM     40  C   UNL     1       9.920  -6.968  -4.067  0.00  0.00    +0.015 C 
ATOM     41  C   UNL     1      10.590  -9.336  -3.635  0.00  0.00    +0.015 C 
ENDBRANCH  32  39
ENDBRANCH  27  35
ENDBRANCH  26  29
ENDBRANCH   1  26
TORSDOF 7
