REMARK  Name = ZINC25072788
REMARK  11 active torsions:
REMARK  status: ('A' for Active; 'I' for Inactive)
REMARK    1  A    between atoms: C_1  and  C_2
REMARK    2  A    between atoms: C_2  and  C_4
REMARK    3  A    between atoms: C_2  and  N_10
REMARK    4  A    between atoms: C_19  and  N_35
REMARK    5  A    between atoms: C_25  and  O_33
REMARK    6  A    between atoms: C_26  and  O_31
REMARK    7  A    between atoms: C_27  and  O_29
REMARK    8  A    between atoms: O_29  and  C_30
REMARK    9  A    between atoms: O_31  and  C_32
REMARK   10  A    between atoms: O_33  and  C_34
REMARK   11  A    between atoms: N_35  and  C_36
REMARK                            x       y       z     vdW  Elec       q    Type
REMARK                         _______ _______ _______ _____ _____    ______ ____
ROOT
ATOM      1  N   UNL     1      -3.170  -4.859   0.583  0.00  0.00    -0.375 N 
ATOM      2  C   UNL     1      -3.075  -3.551   0.391  0.00  0.00    +0.083 A 
ATOM      3  C   UNL     1      -3.111  -3.082  -0.922  0.00  0.00    +0.030 A 
ATOM      4  C   UNL     1      -3.011  -1.846  -1.355  0.00  0.00    +0.011 A 
ATOM      5  C   UNL     1      -2.846  -0.620  -0.726  0.00  0.00    -0.012 A 
ATOM      6  C   UNL     1      -2.796  -0.400   0.635  0.00  0.00    -0.050 A 
ATOM      7  C   UNL     1      -2.834  -1.377   1.601  0.00  0.00    +0.055 A 
ATOM      8  C   UNL     1      -2.942  -2.708   1.555  0.00  0.00    +0.202 A 
ATOM      9  O   UNL     1      -2.925  -3.345   2.751  0.00  0.00    -0.286 OA
ATOM     10  C   UNL     1      -2.726   1.030   1.132  0.00  0.00    -0.040 C 
ATOM     11  C   UNL     1      -1.323   1.594   1.036  0.00  0.00    -0.007 C 
ATOM     12  C   UNL     1      -0.687   1.255  -0.309  0.00  0.00    +0.035 C 
ATOM     13  C   UNL     1      -1.688   1.487  -1.411  0.00  0.00    -0.033 A 
ATOM     14  C   UNL     1      -2.716   0.574  -1.615  0.00  0.00    +0.031 A 
ATOM     15  C   UNL     1      -3.642   0.772  -2.643  0.00  0.00    +0.173 A 
ATOM     16  C   UNL     1      -3.531   1.894  -3.454  0.00  0.00    +0.204 A 
ATOM     17  C   UNL     1      -2.504   2.807  -3.239  0.00  0.00    +0.165 A 
ATOM     18  C   UNL     1      -1.585   2.601  -2.218  0.00  0.00    +0.054 A 
ATOM     19  H   UNL     1      -3.133  -5.269   1.602  0.00  0.00    +0.160 HD
ENDROOT
BRANCH  10  20
ATOM     20  N   UNL     1      -3.162   1.071   2.534  0.00  0.00    +0.382 N 
ATOM     21  C   UNL     1      -3.530   2.436   2.931  0.00  0.00    -0.100 C 
ATOM     22  H   UNL     1      -4.037   0.417   2.665  0.00  0.00    -0.085 HD
ATOM     23  H   UNL     1      -2.344   0.723   3.182  0.00  0.00    -0.085 HD
ENDBRANCH  10  20
BRANCH   1  25
ATOM     24  C   UNL     1      -3.832  -7.118  -0.081  0.00  0.00    +0.035 C 
ATOM     25  C   UNL     1      -3.323  -5.758  -0.564  0.00  0.00    +0.107 C 
BRANCH  25  26
ATOM     26  C   UNL     1      -1.991  -5.934  -1.246  0.00  0.00    -0.026 A 
ATOM     27  C   UNL     1      -0.839  -6.052  -0.492  0.00  0.00    +0.005 A 
ATOM     28  C   UNL     1       0.383  -6.218  -1.118  0.00  0.00    +0.000 A 
ATOM     29  C   UNL     1       0.453  -6.255  -2.498  0.00  0.00    +0.000 A 
ATOM     30  C   UNL     1      -0.699  -6.131  -3.252  0.00  0.00    +0.000 A 
ATOM     31  C   UNL     1      -1.921  -5.970  -2.626  0.00  0.00    +0.005 A 
ENDBRANCH  25  26
ENDBRANCH   1  25
BRANCH  17  32
ATOM     32  O   UNL     1      -2.400   3.907  -4.031  0.00  0.00    -0.491 OA
ATOM     33  C   UNL     1      -1.323   4.804  -3.756  0.00  0.00    +0.277 C 
ENDBRANCH  17  32
BRANCH  16  34
ATOM     34  O   UNL     1      -4.426   2.100  -4.459  0.00  0.00    -0.488 OA
ATOM     35  C   UNL     1      -4.068   1.618  -5.755  0.00  0.00    +0.277 C 
ENDBRANCH  16  34
BRANCH  15  36
ATOM     36  O   UNL     1      -4.642  -0.125  -2.848  0.00  0.00    -0.491 OA
ATOM     37  C   UNL     1      -5.902   0.157  -2.235  0.00  0.00    +0.277 C 
ENDBRANCH  15  36
TORSDOF 6
