REMARK  Name = ZINC63589036
REMARK  8 active torsions:
REMARK  status: ('A' for Active; 'I' for Inactive)
REMARK    1  A    between atoms: C_1  and  O_2
REMARK    2  A    between atoms: O_2  and  C_3
REMARK    3  A    between atoms: C_6  and  C_9
REMARK    4  A    between atoms: C_9  and  N_11
REMARK    5  A    between atoms: N_13  and  C_14
REMARK    6  A    between atoms: N_21  and  C_22
REMARK    7  A    between atoms: C_22  and  C_23
REMARK    8  A    between atoms: C_23  and  C_24
REMARK                            x       y       z     vdW  Elec       q    Type
REMARK                         _______ _______ _______ _____ _____    ______ ____
ROOT
ATOM      1  N   UNL     1       2.903  -4.685  -4.175  0.00  0.00    -0.143 NA
ATOM      2  C   UNL     1       3.687  -4.247  -5.148  0.00  0.00    +0.194 C 
ATOM      3  N   UNL     1       3.293  -3.192  -5.920  0.00  0.00    -0.328 N 
ATOM      4  N   UNL     1       4.889  -4.850  -5.379  0.00  0.00    -0.357 N 
ATOM      5  H   UNL     1       3.047  -2.351  -5.503  0.00  0.00    +0.169 HD
ATOM      6  H   UNL     1       5.148  -5.629  -4.862  0.00  0.00    +0.162 HD
ENDROOT
BRANCH   3   7
ATOM      7  C   UNL     1       3.245  -3.323  -7.312  0.00  0.00    +0.042 A 
ATOM      8  C   UNL     1       2.853  -4.527  -7.884  0.00  0.00    +0.027 A 
ATOM      9  C   UNL     1       2.805  -4.654  -9.258  0.00  0.00    +0.017 A 
ATOM     10  C   UNL     1       3.148  -3.583 -10.065  0.00  0.00    +0.018 A 
ATOM     11  C   UNL     1       3.539  -2.383  -9.498  0.00  0.00    +0.017 A 
ATOM     12  C   UNL     1       3.583  -2.249  -8.124  0.00  0.00    +0.027 A 
ATOM     13 BR   UNL     1       3.083  -3.761 -11.947  0.00  0.00    -0.050 Br
ENDBRANCH   3   7
BRANCH   1  14
ATOM     14  C   UNL     1       1.667  -4.186  -4.035  0.00  0.00    +0.270 C 
ATOM     15  O   UNL     1       1.297  -3.267  -4.744  0.00  0.00    -0.268 OA
BRANCH  14  19
ATOM     16  C   UNL     1      -0.964  -5.814  -1.122  0.00  0.00    +0.120 A 
ATOM     17  C   UNL     1      -1.387  -4.765  -1.929  0.00  0.00    +0.046 A 
ATOM     18  C   UNL     1      -0.537  -4.235  -2.875  0.00  0.00    +0.017 A 
ATOM     19  C   UNL     1       0.751  -4.753  -3.021  0.00  0.00    +0.039 A 
ATOM     20  C   UNL     1       1.173  -5.807  -2.209  0.00  0.00    +0.017 A 
ATOM     21  C   UNL     1       0.319  -6.329  -1.262  0.00  0.00    +0.046 A 
BRANCH  16  23
ATOM     22  C   UNL     1      -3.109  -5.759  -0.102  0.00  0.00    +0.277 C 
ATOM     23  O   UNL     1      -1.804  -6.335  -0.192  0.00  0.00    -0.495 OA
ENDBRANCH  16  23
ENDBRANCH  14  19
ENDBRANCH   1  14
BRANCH   4  24
ATOM     24  C   UNL     1       5.788  -4.321  -6.407  0.00  0.00    +0.120 C 
BRANCH  24  25
ATOM     25  C   UNL     1       7.059  -5.171  -6.460  0.00  0.00    +0.054 C 
BRANCH  25  26
ATOM     26  C   UNL     1       8.035  -4.558  -7.431  0.00  0.00    -0.040 C 
ATOM     27  C   UNL     1       9.024  -3.680  -7.144  0.00  0.00    -0.001 A 
ATOM     28  C   UNL     1       9.469  -3.058  -5.892  0.00  0.00    +0.010 A 
ATOM     29  C   UNL     1      10.513  -2.199  -5.921  0.00  0.00    +0.001 A 
ATOM     30  C   UNL     1      11.178  -1.887  -7.115  0.00  0.00    +0.002 A 
ATOM     31  C   UNL     1      10.826  -2.418  -8.306  0.00  0.00    +0.026 A 
ATOM     32  C   UNL     1       9.743  -3.335  -8.392  0.00  0.00    +0.043 A 
ATOM     33  N   UNL     1       9.219  -3.974  -9.409  0.00  0.00    -0.380 N 
ATOM     34  C   UNL     1       8.110  -4.803  -8.921  0.00  0.00    +0.144 C 
ATOM     35  H   UNL     1       9.516  -3.913 -10.330  0.00  0.00    +0.160 HD
ENDBRANCH  25  26
ENDBRANCH  24  25
ENDBRANCH   4  24
TORSDOF 7
