REMARK  Name = ZINC65748744
REMARK  13 active torsions:
REMARK  status: ('A' for Active; 'I' for Inactive)
REMARK    1  A    between atoms: C_1  and  C_2
REMARK    2  A    between atoms: C_2  and  O_34
REMARK    3  A    between atoms: C_10  and  O_33
REMARK    4  A    between atoms: C_12  and  O_32
REMARK    5  A    between atoms: C_14  and  O_17
REMARK    6  A    between atoms: O_17  and  C_18
REMARK    7  A    between atoms: C_18  and  C_30
REMARK    8  A    between atoms: C_19  and  O_29
REMARK    9  A    between atoms: C_21  and  O_28
REMARK   10  A    between atoms: C_23  and  C_26
REMARK   11  A    between atoms: C_26  and  O_27
REMARK   12  A    between atoms: C_30  and  O_31
REMARK   13  A    between atoms: O_34  and  C_35
REMARK                            x       y       z     vdW  Elec       q    Type
REMARK                         _______ _______ _______ _____ _____    ______ ____
ROOT
ATOM      1  C   UNL     1       0.460   2.527  -0.367  0.00  0.00    +0.110 C 
ATOM      2  C   UNL     1       0.239   1.014  -0.430  0.00  0.00    +0.283 C 
ATOM      3  O   UNL     1       0.907   0.486  -1.577  0.00  0.00    -0.324 OA
ATOM      4  C   UNL     1       2.331   0.647  -1.560  0.00  0.00    +0.200 C 
ATOM      5  C   UNL     1       2.874  -0.017  -0.294  0.00  0.00    +0.179 C 
ATOM      6  C   UNL     1       2.161   0.595   0.919  0.00  0.00    +0.186 C 
ATOM      7  O   UNL     1       0.755   0.409   0.761  0.00  0.00    -0.318 OA
ATOM      8  C   UNL     1       2.671  -0.095   2.184  0.00  0.00    +0.179 C 
ATOM      9  C   UNL     1       4.191   0.094   2.261  0.00  0.00    +0.201 C 
ATOM     10  C   UNL     1       4.843  -0.445   0.986  0.00  0.00    +0.285 C 
ATOM     11  O   UNL     1       4.277   0.198  -0.160  0.00  0.00    -0.340 OA
ENDROOT
BRANCH   9  12
ATOM     12  O   UNL     1       4.491   1.485   2.396  0.00  0.00    -0.384 OA
ATOM     13  H   UNL     1       5.437   1.680   2.451  0.00  0.00    +0.210 HD
ENDBRANCH   9  12
BRANCH   8  14
ATOM     14  O   UNL     1       2.052   0.488   3.332  0.00  0.00    -0.386 OA
ATOM     15  H   UNL     1       2.331   0.096   4.171  0.00  0.00    +0.210 HD
ENDBRANCH   8  14
BRANCH   2  16
ATOM     16  O   UNL     1      -1.160   0.743  -0.532  0.00  0.00    -0.330 OA
ATOM     17  C   UNL     1      -1.479  -0.648  -0.598  0.00  0.00    +0.200 C 
ENDBRANCH   2  16
BRANCH  10  18
ATOM     18  O   UNL     1       6.248  -0.188   1.027  0.00  0.00    -0.313 OA
BRANCH  18  19
ATOM     19  C   UNL     1       6.975  -0.758  -0.063  0.00  0.00    +0.225 C 
ATOM     20  C   UNL     1       8.425  -0.238  -0.056  0.00  0.00    +0.207 C 
ATOM     21  C   UNL     1       8.591   0.443  -1.436  0.00  0.00    +0.179 C 
ATOM     22  C   UNL     1       7.459  -0.218  -2.262  0.00  0.00    +0.178 C 
ATOM     23  O   UNL     1       6.383  -0.356  -1.310  0.00  0.00    -0.336 OA
BRANCH  21  24
ATOM     24  O   UNL     1       8.393   1.855  -1.336  0.00  0.00    -0.386 OA
ATOM     25  H   UNL     1       8.486   2.326  -2.175  0.00  0.00    +0.210 HD
ENDBRANCH  21  24
BRANCH  20  26
ATOM     26  O   UNL     1       8.611   0.710   0.998  0.00  0.00    -0.384 OA
ATOM     27  H   UNL     1       9.507   1.071   1.049  0.00  0.00    +0.210 HD
ENDBRANCH  20  26
BRANCH  22  28
ATOM     28  C   UNL     1       7.042   0.685  -3.425  0.00  0.00    +0.190 C 
BRANCH  28  29
ATOM     29  O   UNL     1       6.082   0.005  -4.236  0.00  0.00    -0.392 OA
ATOM     30  H   UNL     1       5.772   0.520  -4.994  0.00  0.00    +0.210 HD
ENDBRANCH  28  29
ENDBRANCH  22  28
BRANCH  19  31
ATOM     31  C   UNL     1       6.966  -2.284   0.048  0.00  0.00    +0.223 C 
BRANCH  31  32
ATOM     32  O   UNL     1       5.632  -2.767  -0.122  0.00  0.00    -0.390 OA
ATOM     33  H   UNL     1       5.551  -3.728  -0.064  0.00  0.00    +0.210 HD
ENDBRANCH  31  32
ENDBRANCH  19  31
ENDBRANCH  18  19
ENDBRANCH  10  18
TORSDOF 11
