REMARK  Name = ZINC63243998
REMARK  6 active torsions:
REMARK  status: ('A' for Active; 'I' for Inactive)
REMARK    1  A    between atoms: C_1  and  C_2
REMARK    2  A    between atoms: C_4  and  C_24
REMARK    3  A    between atoms: C_5  and  S_20
REMARK    4  A    between atoms: C_7  and  C_8
REMARK    5  A    between atoms: C_14  and  C_16
REMARK    6  A    between atoms: S_20  and  N_23
REMARK                            x       y       z     vdW  Elec       q    Type
REMARK                         _______ _______ _______ _____ _____    ______ ____
ROOT
ATOM      1  C   UNL     1      -0.501   1.454   0.081  0.00  0.00    +0.044 C 
ATOM      2  C   UNL     1      -0.229  -0.027   0.036  0.00  0.00    -0.038 A 
ATOM      3  C   UNL     1      -0.329  -0.713  -1.158  0.00  0.00    +0.009 A 
ATOM      4  C   UNL     1      -0.080  -2.073  -1.201  0.00  0.00    -0.024 A 
ATOM      5  C   UNL     1       0.270  -2.755  -0.049  0.00  0.00    +0.109 A 
ATOM      6  C   UNL     1       0.372  -2.082   1.151  0.00  0.00    +0.042 A 
ATOM      7  C   UNL     1       0.128  -0.709   1.200  0.00  0.00    +0.042 A 
ATOM      8  C   UNL     1      -0.191  -2.814  -2.508  0.00  0.00    +0.046 C 
ENDROOT
BRANCH   7   9
ATOM      9  C   UNL     1       0.242   0.020   2.481  0.00  0.00    +0.250 C 
ATOM     10  O   UNL     1       0.140   1.231   2.503  0.00  0.00    -0.270 OA
ATOM     11  N   UNL     1       0.460  -0.658   3.625  0.00  0.00    -0.259 N 
ATOM     12  C   UNL     1       0.567   0.027   4.830  0.00  0.00    +0.188 A 
ATOM     13  N   UNL     1       0.483   1.326   5.083  0.00  0.00    -0.125 NA
ATOM     14  N   UNL     1       0.606   1.785   6.251  0.00  0.00    -0.136 NA
ATOM     15  C   UNL     1       0.825   1.007   7.292  0.00  0.00    +0.206 A 
ATOM     16  S   UNL     1       0.850  -0.592   6.486  0.00  0.00    -0.027 S 
ATOM     17  H   UNL     1       0.541  -1.625   3.608  0.00  0.00    +0.157 HD
BRANCH  15  18
ATOM     18  C   UNL     1       0.999   1.361   8.746  0.00  0.00    +0.443 C 
ATOM     19  F   UNL     1       0.781   2.732   8.922  0.00  0.00    -0.164 F 
ATOM     20  F   UNL     1       0.078   0.640   9.515  0.00  0.00    -0.164 F 
ATOM     21  F   UNL     1       2.298   1.039   9.153  0.00  0.00    -0.164 F 
ENDBRANCH  15  18
ENDBRANCH   7   9
BRANCH   5  22
ATOM     22  S   UNL     1       0.584  -4.488  -0.114  0.00  0.00    +0.056 S 
ATOM     23  O   UNL     1       1.477  -4.698  -1.199  0.00  0.00    -0.153 OA
ATOM     24  O   UNL     1       0.887  -4.896   1.212  0.00  0.00    -0.153 OA
BRANCH  22  25
ATOM     25  N   UNL     1      -0.840  -5.228  -0.524  0.00  0.00    -0.204 NA
ATOM     26  H   UNL     1      -1.637  -4.697  -0.675  0.00  0.00    +0.144 HD
ATOM     27  H   UNL     1      -0.876  -6.193  -0.612  0.00  0.00    +0.144 HD
ENDBRANCH  22  25
ENDBRANCH   5  22
TORSDOF 4
