REMARK  Name = ZINC09911562
REMARK  9 active torsions:
REMARK  status: ('A' for Active; 'I' for Inactive)
REMARK    1  A    between atoms: C_1  and  C_2
REMARK    2  A    between atoms: C_2  and  N_60
REMARK    3  A    between atoms: C_3  and  C_4
REMARK    4  A    between atoms: C_3  and  N_60
REMARK    5  A    between atoms: N_10  and  C_11
REMARK    6  A    between atoms: C_16  and  C_17
REMARK    7  A    between atoms: C_19  and  C_20
REMARK    8  A    between atoms: C_19  and  N_60
REMARK    9  A    between atoms: N_22  and  C_23
REMARK                            x       y       z     vdW  Elec       q    Type
REMARK                         _______ _______ _______ _____ _____    ______ ____
ROOT
ATOM      1  C   UNL     1       6.145  -4.902   0.672  0.00  0.00    -0.000 C 
ENDROOT
BRANCH   1   2
ATOM      2  C   UNL     1       5.604  -6.263   1.026  0.00  0.00    +0.120 A 
ATOM      3  N   UNL     1       4.979  -6.445   2.176  0.00  0.00    -0.202 NA
ATOM      4  C   UNL     1       4.494  -7.644   2.491  0.00  0.00    +0.217 A 
ATOM      5  N   UNL     1       4.650  -8.662   1.651  0.00  0.00    -0.181 NA
ATOM      6  C   UNL     1       5.283  -8.477   0.498  0.00  0.00    +0.224 A 
ATOM      7  N   UNL     1       5.760  -7.273   0.189  0.00  0.00    -0.201 NA
ATOM      8  N   UNL     1       5.447  -9.532  -0.378  0.00  0.00    -0.283 N 
ATOM      9  N   UNL     1       3.837  -7.831   3.689  0.00  0.00    -0.327 N 
ATOM     10  H   UNL     1       5.833  -9.379  -1.255  0.00  0.00    +0.155 HD
ATOM     11  H   UNL     1       3.487  -8.706   3.919  0.00  0.00    +0.145 HD
ATOM     12  H   UNL     1       3.724  -7.088   4.302  0.00  0.00    +0.145 HD
BRANCH   8  13
ATOM     13  C   UNL     1       5.056 -10.820  -0.002  0.00  0.00    +0.036 A 
ATOM     14  C   UNL     1       5.103 -11.200   1.333  0.00  0.00    +0.023 A 
ATOM     15  C   UNL     1       4.710 -12.472   1.702  0.00  0.00    +0.002 A 
ATOM     16  C   UNL     1       4.281 -13.370   0.742  0.00  0.00    +0.000 A 
ATOM     17  C   UNL     1       4.238 -12.997  -0.588  0.00  0.00    +0.005 A 
ATOM     18  C   UNL     1       4.624 -11.725  -0.963  0.00  0.00    -0.029 A 
ATOM     19  C   UNL     1       4.577 -11.319  -2.414  0.00  0.00    +0.045 C 
ENDBRANCH   8  13
ENDBRANCH   1   2
BRANCH   1  20
ATOM     20  N   UNL     1       5.056  -4.097   0.081  0.00  0.00    +0.390 N 
ATOM     21  H   UNL     1       4.216  -4.192   0.665  0.00  0.00    -0.081 HD
BRANCH  20  23
ATOM     22  C   UNL     1       5.999  -4.521  -2.164  0.00  0.00    -0.017 C 
ATOM     23  C   UNL     1       4.751  -4.582  -1.282  0.00  0.00    -0.081 C 
ENDBRANCH  20  23
BRANCH  20  24
ATOM     24  C   UNL     1       5.449  -2.672   0.034  0.00  0.00    +0.019 C 
BRANCH  24  25
ATOM     25  C   UNL     1       4.250  -1.850  -0.362  0.00  0.00    +0.201 C 
ATOM     26  O   UNL     1       3.192  -2.395  -0.597  0.00  0.00    -0.278 OA
ATOM     27  N   UNL     1       4.353  -0.510  -0.457  0.00  0.00    -0.287 N 
ATOM     28  H   UNL     1       5.216  -0.081  -0.341  0.00  0.00    +0.155 HD
BRANCH  27  29
ATOM     29  C   UNL     1       3.216   0.264  -0.722  0.00  0.00    +0.037 A 
ATOM     30  C   UNL     1       1.981  -0.122  -0.218  0.00  0.00    +0.027 A 
ATOM     31  C   UNL     1       0.859   0.640  -0.480  0.00  0.00    +0.051 A 
ATOM     32  C   UNL     1       0.962   1.792  -1.246  0.00  0.00    +0.162 A 
ATOM     33  C   UNL     1       2.197   2.182  -1.749  0.00  0.00    +0.164 A 
ATOM     34  C   UNL     1       3.323   1.416  -1.487  0.00  0.00    +0.072 A 
ATOM     35  O   UNL     1       2.319   3.314  -2.495  0.00  0.00    -0.485 OA
ATOM     36  C   UNL     1       1.114   3.853  -3.050  0.00  0.00    +0.270 C 
ATOM     37  C   UNL     1       0.044   3.870  -1.950  0.00  0.00    +0.270 C 
ATOM     38  O   UNL     1      -0.157   2.526  -1.500  0.00  0.00    -0.485 OA
ENDBRANCH  27  29
ENDBRANCH  24  25
ENDBRANCH  20  24
ENDBRANCH   1  20
TORSDOF 7
