REMARK  Name = ZINC65190594
REMARK  11 active torsions:
REMARK  status: ('A' for Active; 'I' for Inactive)
REMARK    1  A    between atoms: C_1  and  C_2
REMARK    2  A    between atoms: C_2  and  C_3
REMARK    3  A    between atoms: C_3  and  N_4
REMARK    4  A    between atoms: C_8  and  S_24
REMARK    5  A    between atoms: C_12  and  C_13
REMARK    6  A    between atoms: C_13  and  C_14
REMARK    7  A    between atoms: C_14  and  C_15
REMARK    8  A    between atoms: N_17  and  N_18
REMARK    9  A    between atoms: N_21  and  C_22
REMARK   10  A    between atoms: C_22  and  C_23
REMARK   11  A    between atoms: S_24  and  N_27
REMARK                            x       y       z     vdW  Elec       q    Type
REMARK                         _______ _______ _______ _____ _____    ______ ____
ROOT
ATOM      1  N   UNL     1       0.738  -1.962  -1.265  0.00  0.00    -0.328 N 
ATOM      2  C   UNL     1       1.714  -2.770  -0.717  0.00  0.00    +0.069 A 
ATOM      3  C   UNL     1       2.900  -2.529  -0.036  0.00  0.00    +0.030 A 
ATOM      4  C   UNL     1       3.671  -3.589   0.390  0.00  0.00    +0.030 A 
ATOM      5  C   UNL     1       3.269  -4.894   0.143  0.00  0.00    +0.107 A 
ATOM      6  C   UNL     1       2.107  -5.151  -0.526  0.00  0.00    +0.058 A 
ATOM      7  C   UNL     1       1.309  -4.092  -0.967  0.00  0.00    +0.091 A 
ATOM      8  N   UNL     1       0.131  -4.024  -1.639  0.00  0.00    -0.232 NA
ATOM      9  C   UNL     1      -0.205  -2.779  -1.808  0.00  0.00    +0.111 A 
ENDROOT
BRANCH   5  10
ATOM     10  S   UNL     1       4.271  -6.234   0.698  0.00  0.00    +0.056 S 
ATOM     11  O   UNL     1       3.958  -7.345  -0.131  0.00  0.00    -0.153 OA
ATOM     12  O   UNL     1       5.592  -5.728   0.825  0.00  0.00    -0.153 OA
BRANCH  10  13
ATOM     13  N   UNL     1       3.764  -6.625   2.225  0.00  0.00    -0.204 NA
ATOM     14  H   UNL     1       3.036  -6.133   2.635  0.00  0.00    +0.144 HD
ATOM     15  H   UNL     1       4.195  -7.347   2.709  0.00  0.00    +0.144 HD
ENDBRANCH  10  13
ENDBRANCH   5  10
BRANCH   1  16
ATOM     16  C   UNL     1       0.718  -0.497  -1.257  0.00  0.00    +0.123 C 
BRANCH  16  18
ATOM     17  C   UNL     1      -0.019   1.526   0.010  0.00  0.00    +0.005 C 
ATOM     18  C   UNL     1       0.002  -0.004   0.002  0.00  0.00    +0.018 C 
ENDBRANCH  16  18
ENDBRANCH   1  16
BRANCH   9  19
ATOM     19  C   UNL     1      -1.455  -2.308  -2.507  0.00  0.00    +0.083 C 
BRANCH  19  20
ATOM     20  C   UNL     1      -1.169  -2.132  -3.999  0.00  0.00    +0.105 C 
BRANCH  20  21
ATOM     21  C   UNL     1      -2.419  -1.662  -4.698  0.00  0.00    +0.230 C 
ATOM     22  O   UNL     1      -3.438  -1.485  -4.064  0.00  0.00    -0.274 OA
ATOM     23  N   UNL     1      -2.404  -1.438  -6.027  0.00  0.00    -0.233 N 
ATOM     24  H   UNL     1      -1.589  -1.579  -6.534  0.00  0.00    +0.173 HD
BRANCH  23  25
ATOM     25  N   UNL     1      -3.566  -1.001  -6.676  0.00  0.00    -0.218 N 
ATOM     26  C   UNL     1      -3.551  -0.776  -8.005  0.00  0.00    +0.316 C 
ATOM     27  O   UNL     1      -4.560  -0.397  -8.569  0.00  0.00    -0.251 OA
ATOM     28  N   UNL     1      -2.419  -0.973  -8.709  0.00  0.00    -0.298 N 
ATOM     29  H   UNL     1      -4.381  -0.859  -6.170  0.00  0.00    +0.174 HD
ATOM     30  H   UNL     1      -1.615  -1.275  -8.260  0.00  0.00    +0.150 HD
BRANCH  28  31
ATOM     31  C   UNL     1      -2.403  -0.729 -10.154  0.00  0.00    +0.102 C 
ATOM     32  C   UNL     1      -1.007  -1.025 -10.706  0.00  0.00    +0.024 C 
ENDBRANCH  28  31
ENDBRANCH  23  25
ENDBRANCH  20  21
ENDBRANCH  19  20
ENDBRANCH   9  19
TORSDOF 9
