REMARK  Name = ZINC35359561
REMARK  3 active torsions:
REMARK  status: ('A' for Active; 'I' for Inactive)
REMARK    1  A    between atoms: C_2  and  C_9
REMARK    2  A    between atoms: C_9  and  C_11
REMARK    3  A    between atoms: C_9  and  N_22
REMARK                            x       y       z     vdW  Elec       q    Type
REMARK                         _______ _______ _______ _____ _____    ______ ____
ROOT
ATOM      1  C   UNL     1       1.149   3.595   0.010  0.00  0.00    -0.012 C 
ENDROOT
BRANCH   1   2
ATOM      2  C   UNL     1       1.375   4.108  -1.389  0.00  0.00    -0.039 A 
ATOM      3  C   UNL     1       2.650   4.453  -1.804  0.00  0.00    +0.009 A 
ATOM      4  C   UNL     1       2.853   4.921  -3.082  0.00  0.00    -0.017 A 
ATOM      5  C   UNL     1       1.791   5.054  -3.969  0.00  0.00    +0.038 A 
ATOM      6  C   UNL     1       0.510   4.705  -3.545  0.00  0.00    +0.043 A 
ATOM      7  C   UNL     1       0.310   4.230  -2.264  0.00  0.00    +0.045 A 
ATOM      8 CL   UNL     1      -1.288   3.791  -1.746  0.00  0.00    -0.083 Cl
ATOM      9  N   UNL     1       2.244   5.543  -5.194  0.00  0.00    -0.285 N 
ATOM     10  C   UNL     1       3.571   5.756  -5.198  0.00  0.00    +0.222 C 
ATOM     11  O   UNL     1       4.231   6.177  -6.125  0.00  0.00    -0.275 OA
ATOM     12  C   UNL     1       4.088   5.372  -3.828  0.00  0.00    +0.133 C 
ATOM     13  H   UNL     1       1.668   5.710  -5.957  0.00  0.00    +0.155 HD
ENDBRANCH   1   2
BRANCH   1  15
ATOM     14  C   UNL     1      -0.017   1.381   0.010  0.00  0.00    +0.040 A 
ATOM     15  C   UNL     1       1.170   2.088   0.002  0.00  0.00    -0.052 A 
ATOM     16  C   UNL     1       2.377   1.415  -0.013  0.00  0.00    +0.040 A 
ATOM     17  C   UNL     1       2.399   0.031  -0.021  0.00  0.00    +0.126 A 
ATOM     18  C   UNL     1       1.210  -0.679  -0.013  0.00  0.00    +0.076 A 
ATOM     19  C   UNL     1       0.002  -0.004   0.002  0.00  0.00    +0.126 A 
ATOM     20  F   UNL     1      -1.158  -0.696   0.010  0.00  0.00    -0.205 F 
ATOM     21  F   UNL     1       3.579  -0.627  -0.036  0.00  0.00    -0.205 F 
ENDBRANCH   1  15
BRANCH   1  22
ATOM     22  N   UNL     1       2.211   4.096   0.893  0.00  0.00    +0.385 N 
ATOM     23  H   UNL     1       2.059   3.752   1.829  0.00  0.00    -0.089 HD
ATOM     24  H   UNL     1       3.106   3.774   0.557  0.00  0.00    -0.089 HD
ATOM     25  H   UNL     1       2.196   5.104   0.898  0.00  0.00    -0.089 HD
ENDBRANCH   1  22
TORSDOF 3
