REMARK  Name = ZINC36227623
REMARK  4 active torsions:
REMARK  status: ('A' for Active; 'I' for Inactive)
REMARK    1  A    between atoms: C_3  and  C_18
REMARK    2  A    between atoms: C_8  and  C_10
REMARK    3  A    between atoms: C_13  and  O_17
REMARK    4  A    between atoms: C_18  and  O_19
REMARK                            x       y       z     vdW  Elec       q    Type
REMARK                         _______ _______ _______ _____ _____    ______ ____
ROOT
ATOM      1  C   UNL     1      -0.019   1.528   0.010  0.00  0.00    +0.019 C 
ATOM      2  C   UNL     1       1.419   2.053  -0.001  0.00  0.00    +0.009 C 
ATOM      3  C   UNL     1       2.124   1.587  -1.276  0.00  0.00    +0.032 C 
ATOM      4  C   UNL     1       2.170   0.056  -1.299  0.00  0.00    +0.113 C 
ATOM      5  N   UNL     1       0.803  -0.460  -1.143  0.00  0.00    -0.302 N 
ATOM      6  C   UNL     1       0.002  -0.004   0.002  0.00  0.00    +0.108 C 
ATOM      7  C   UNL     1       0.293  -1.334  -2.033  0.00  0.00    +0.202 C 
ATOM      8  O   UNL     1       0.964  -1.702  -2.973  0.00  0.00    -0.277 OA
ENDROOT
BRANCH   7   9
ATOM      9  C   UNL     1      -1.111  -1.854  -1.859  0.00  0.00    +0.019 C 
ATOM     10  C   UNL     1      -1.125  -2.989  -0.814  0.00  0.00    +0.023 C 
ATOM     11  C   UNL     1      -2.151  -3.994  -1.402  0.00  0.00    +0.097 C 
ATOM     12  C   UNL     1      -1.884  -3.859  -2.922  0.00  0.00    -0.050 C 
ATOM     13  N   UNL     1      -1.597  -2.420  -3.130  0.00  0.00    +0.388 N 
ATOM     14  H   UNL     1      -2.439  -1.942  -3.415  0.00  0.00    -0.085 HD
ATOM     15  H   UNL     1      -0.890  -2.314  -3.842  0.00  0.00    -0.085 HD
BRANCH  11  16
ATOM     16  O   UNL     1      -1.883  -5.322  -0.950  0.00  0.00    -0.394 OA
ATOM     17  H   UNL     1      -2.498  -5.985  -1.291  0.00  0.00    +0.210 HD
ENDBRANCH  11  16
ENDBRANCH   7   9
BRANCH   3  18
ATOM     18  C   UNL     1       3.550   2.141  -1.302  0.00  0.00    +0.160 C 
BRANCH  18  19
ATOM     19  O   UNL     1       3.506   3.566  -1.394  0.00  0.00    -0.395 OA
ATOM     20  H   UNL     1       4.377   3.986  -1.415  0.00  0.00    +0.209 HD
ENDBRANCH  18  19
ENDBRANCH   3  18
TORSDOF 4
