REMARK  Name = ZINC47263739
REMARK  5 active torsions:
REMARK  status: ('A' for Active; 'I' for Inactive)
REMARK    1  A    between atoms: C_1  and  C_2
REMARK    2  A    between atoms: C_2  and  C_4
REMARK    3  A    between atoms: C_2  and  N_15
REMARK    4  A    between atoms: N_9  and  C_10
REMARK    5  A    between atoms: C_19  and  C_22
REMARK                            x       y       z     vdW  Elec       q    Type
REMARK                         _______ _______ _______ _____ _____    ______ ____
ROOT
ATOM      1  N   UNL     1      -1.094  -0.938  -0.287  0.00  0.00    +0.388 N 
ATOM      2  C   UNL     1      -0.559  -2.300  -0.395  0.00  0.00    -0.078 C 
ATOM      3  C   UNL     1      -1.707  -3.288  -0.616  0.00  0.00    -0.018 C 
ATOM      4  C   UNL     1      -2.445  -2.924  -1.907  0.00  0.00    +0.009 C 
ATOM      5  C   UNL     1      -2.934  -1.476  -1.813  0.00  0.00    +0.059 C 
ATOM      6  C   UNL     1      -1.741  -0.556  -1.548  0.00  0.00    -0.065 C 
ATOM      7  H   UNL     1      -1.771  -0.903   0.461  0.00  0.00    -0.081 HD
ENDROOT
BRANCH   5   8
ATOM      8  C   UNL     1      -3.596  -1.083  -3.109  0.00  0.00    +0.220 C 
ATOM      9  O   UNL     1      -3.159  -0.155  -3.756  0.00  0.00    -0.275 OA
ATOM     10  N   UNL     1      -4.673  -1.763  -3.549  0.00  0.00    -0.265 N 
ATOM     11  C   UNL     1      -5.283  -1.401  -4.744  0.00  0.00    +0.164 A 
ATOM     12  N   UNL     1      -4.948  -0.436  -5.573  0.00  0.00    -0.233 NA
ATOM     13  C   UNL     1      -5.636  -0.217  -6.679  0.00  0.00    +0.120 A 
ATOM     14  C   UNL     1      -6.696  -1.028  -6.916  0.00  0.00    +0.068 A 
ATOM     15  S   UNL     1      -6.626  -2.094  -5.486  0.00  0.00    -0.061 S 
ATOM     16  H   UNL     1      -5.023  -2.505  -3.031  0.00  0.00    +0.157 HD
ENDBRANCH   5   8
BRANCH   1  18
ATOM     17  C   UNL     1      -0.557   1.414   0.134  0.00  0.00    -0.004 C 
ATOM     18  C   UNL     1       0.002  -0.004   0.002  0.00  0.00    +0.017 C 
BRANCH  18  19
ATOM     19  C   UNL     1       0.673  -0.401   1.292  0.00  0.00    +0.207 C 
ATOM     20  O   UNL     1       0.041  -0.974   2.153  0.00  0.00    -0.277 OA
ATOM     21  N   UNL     1       1.977  -0.120   1.487  0.00  0.00    -0.242 N 
ATOM     22  C   UNL     1       2.577  -0.475   2.640  0.00  0.00    +0.306 C 
ATOM     23  O   UNL     1       1.943  -1.049   3.504  0.00  0.00    -0.252 OA
ATOM     24  N   UNL     1       3.881  -0.194   2.836  0.00  0.00    -0.296 N 
ATOM     25  H   UNL     1       2.483   0.338   0.798  0.00  0.00    +0.159 HD
ATOM     26  H   UNL     1       4.387   0.264   2.146  0.00  0.00    +0.151 HD
BRANCH  24  27
ATOM     27  C   UNL     1       4.533  -0.581   4.089  0.00  0.00    +0.074 C 
ATOM     28  C   UNL     1       4.359   0.535   5.141  0.00  0.00    +0.022 C 
ATOM     29  C   UNL     1       5.703   0.543   5.911  0.00  0.00    +0.002 C 
ATOM     30  C   UNL     1       6.740   0.279   4.791  0.00  0.00    +0.002 C 
ATOM     31  C   UNL     1       6.047  -0.743   3.867  0.00  0.00    +0.022 C 
ENDBRANCH  24  27
ENDBRANCH  18  19
ENDBRANCH   1  18
TORSDOF 4
