REMARK  Name = ZINC26462687
REMARK  6 active torsions:
REMARK  status: ('A' for Active; 'I' for Inactive)
REMARK    1  A    between atoms: C_2  and  C_3
REMARK    2  A    between atoms: C_3  and  N_4
REMARK    3  A    between atoms: C_8  and  C_10
REMARK    4  A    between atoms: C_10  and  N_11
REMARK    5  A    between atoms: C_15  and  C_17
REMARK    6  A    between atoms: N_19  and  C_20
REMARK                            x       y       z     vdW  Elec       q    Type
REMARK                         _______ _______ _______ _____ _____    ______ ____
ROOT
ATOM      1  N   UNL     1       2.483   0.907   0.386  0.00  0.00    +0.393 N 
ATOM      2  C   UNL     1       1.831  -0.326  -0.127  0.00  0.00    -0.077 C 
ATOM      3  C   UNL     1       0.320  -0.076   0.067  0.00  0.00    -0.020 C 
ATOM      4  C   UNL     1       0.168   1.458   0.099  0.00  0.00    -0.008 C 
ATOM      5  C   UNL     1       1.600   2.007  -0.079  0.00  0.00    +0.020 C 
ATOM      6  H   UNL     1       2.612   0.897   1.478  0.00  0.00    -0.080 HD
ENDROOT
BRANCH   5   7
ATOM      7  C   UNL     1       1.801   3.236   0.770  0.00  0.00    +0.204 C 
ATOM      8  O   UNL     1       2.643   3.240   1.643  0.00  0.00    -0.277 OA
ATOM      9  N   UNL     1       1.045   4.332   0.559  0.00  0.00    -0.287 N 
ATOM     10  H   UNL     1       0.342   4.361  -0.287  0.00  0.00    +0.155 HD
BRANCH   9  11
ATOM     11  C   UNL     1       1.154   5.433   1.416  0.00  0.00    +0.036 A 
ATOM     12  C   UNL     1       1.428   5.240   2.764  0.00  0.00    +0.043 A 
ATOM     13  C   UNL     1       1.540   6.330   3.607  0.00  0.00    +0.044 A 
ATOM     14  C   UNL     1       1.369   7.611   3.112  0.00  0.00    +0.040 A 
ATOM     15  C   UNL     1       1.091   7.804   1.770  0.00  0.00    +0.044 A 
ATOM     16  C   UNL     1       0.983   6.719   0.921  0.00  0.00    +0.043 A 
ATOM     17 CL   UNL     1       0.877   9.413   1.153  0.00  0.00    -0.083 Cl
ATOM     18 CL   UNL     1       1.889   6.091   5.291  0.00  0.00    -0.083 Cl
ENDBRANCH   9  11
ENDBRANCH   5   7
BRANCH   1  19
ATOM     19  C   UNL     1       3.839   1.052  -0.162  0.00  0.00    +0.020 C 
BRANCH  19  24
ATOM     20  N   UNL     1       8.135  -1.066   0.245  0.00  0.00    -0.296 N 
ATOM     21  C   UNL     1       6.837  -1.006   0.604  0.00  0.00    +0.306 C 
ATOM     22  O   UNL     1       6.390  -1.803   1.406  0.00  0.00    -0.252 OA
ATOM     23  N   UNL     1       6.034  -0.063   0.073  0.00  0.00    -0.242 N 
ATOM     24  C   UNL     1       4.736  -0.003   0.432  0.00  0.00    +0.204 C 
ATOM     25  O   UNL     1       4.291  -0.797   1.232  0.00  0.00    -0.277 OA
ATOM     26  H   UNL     1       8.539  -0.345  -0.481  0.00  0.00    +0.151 HD
ATOM     27  H   UNL     1       6.438   0.658  -0.653  0.00  0.00    +0.159 HD
BRANCH  20  28
ATOM     28  C   UNL     1       9.007  -2.092   0.822  0.00  0.00    +0.132 C 
BRANCH  28  30
ATOM     29  C   UNL     1      11.419  -1.807   1.068  0.00  0.00    +0.005 C 
ATOM     30  C   UNL     1      10.398  -1.943   0.260  0.00  0.00    -0.016 C 
ENDBRANCH  28  30
ENDBRANCH  20  28
ENDBRANCH  19  24
ENDBRANCH   1  19
TORSDOF 6
