REMARK  Name = ZINC63907357
REMARK  6 active torsions:
REMARK  status: ('A' for Active; 'I' for Inactive)
REMARK    1  A    between atoms: C_1  and  C_2
REMARK    2  A    between atoms: C_2  and  C_4
REMARK    3  A    between atoms: C_2  and  N_12
REMARK    4  A    between atoms: N_6  and  C_7
REMARK    5  A    between atoms: C_15  and  C_20
REMARK    6  A    between atoms: C_20  and  C_21
REMARK                            x       y       z     vdW  Elec       q    Type
REMARK                         _______ _______ _______ _____ _____    ______ ____
ROOT
ATOM      1  N   UNL     1       0.688  -0.476  -1.203  0.00  0.00    -0.213 N 
ATOM      2  C   UNL     1       1.796  -1.244  -1.192  0.00  0.00    +0.244 C 
ATOM      3  O   UNL     1       2.390  -1.658  -0.220  0.00  0.00    -0.273 OA
ATOM      4  C   UNL     1       2.143  -1.483  -2.648  0.00  0.00    +0.165 C 
ATOM      5  N   UNL     1       1.092  -0.754  -3.379  0.00  0.00    -0.287 N 
ATOM      6  C   UNL     1       0.288  -0.204  -2.451  0.00  0.00    +0.310 C 
ATOM      7  O   UNL     1      -0.689   0.467  -2.716  0.00  0.00    -0.252 OA
ATOM      8  H   UNL     1       0.996  -0.685  -4.342  0.00  0.00    +0.151 HD
ENDROOT
BRANCH   1  10
ATOM      9  C   UNL     1      -0.019   1.526   0.010  0.00  0.00    +0.038 C 
ATOM     10  C   UNL     1       0.002  -0.004   0.002  0.00  0.00    +0.168 C 
BRANCH  10  11
ATOM     11  C   UNL     1      -1.412  -0.526   0.013  0.00  0.00    +0.234 C 
ATOM     12  O   UNL     1      -1.808  -1.223  -0.897  0.00  0.00    -0.274 OA
ATOM     13  N   UNL     1      -2.236  -0.217   1.033  0.00  0.00    -0.311 N 
ATOM     14  H   UNL     1      -1.920   0.341   1.761  0.00  0.00    +0.149 HD
BRANCH  13  15
ATOM     15  C   UNL     1      -3.611  -0.724   1.044  0.00  0.00    +0.073 C 
ATOM     16  C   UNL     1      -4.538   0.248   0.286  0.00  0.00    +0.022 C 
ATOM     17  C   UNL     1      -5.860   0.220   1.094  0.00  0.00    +0.002 C 
ATOM     18  C   UNL     1      -5.363   0.135   2.558  0.00  0.00    +0.002 C 
ATOM     19  C   UNL     1      -4.135  -0.796   2.488  0.00  0.00    +0.022 C 
ENDBRANCH  13  15
ENDBRANCH  10  11
ENDBRANCH   1  10
BRANCH   4  20
ATOM     20  C   UNL     1       2.094  -2.976  -2.976  0.00  0.00    +0.065 C 
BRANCH  20  21
ATOM     21  C   UNL     1       2.561  -3.196  -4.392  0.00  0.00    -0.039 C 
ATOM     22  C   UNL     1       3.810  -3.523  -4.794  0.00  0.00    -0.001 A 
ATOM     23  C   UNL     1       5.060  -3.762  -4.063  0.00  0.00    +0.010 A 
ATOM     24  C   UNL     1       6.176  -4.080  -4.757  0.00  0.00    +0.001 A 
ATOM     25  C   UNL     1       6.169  -4.186  -6.155  0.00  0.00    +0.002 A 
ATOM     26  C   UNL     1       5.060  -3.981  -6.896  0.00  0.00    +0.026 A 
ATOM     27  C   UNL     1       3.829  -3.642  -6.270  0.00  0.00    +0.043 A 
ATOM     28  N   UNL     1       2.638  -3.398  -6.760  0.00  0.00    -0.380 N 
ATOM     29  C   UNL     1       1.726  -3.102  -5.649  0.00  0.00    +0.144 C 
ATOM     30  H   UNL     1       2.398  -3.414  -7.700  0.00  0.00    +0.160 HD
ENDBRANCH  20  21
ENDBRANCH   4  20
TORSDOF 5
