REMARK  Name = ZINC23352673
REMARK  8 active torsions:
REMARK  status: ('A' for Active; 'I' for Inactive)
REMARK    1  A    between atoms: C_1  and  N_2
REMARK    2  A    between atoms: N_2  and  C_3
REMARK    3  A    between atoms: N_2  and  C_29
REMARK    4  A    between atoms: C_3  and  C_4
REMARK    5  A    between atoms: C_9  and  N_10
REMARK    6  A    between atoms: C_11  and  C_13
REMARK    7  A    between atoms: C_13  and  N_14
REMARK    8  A    between atoms: C_21  and  C_24
REMARK                            x       y       z     vdW  Elec       q    Type
REMARK                         _______ _______ _______ _____ _____    ______ ____
ROOT
ATOM      1  N   UNL     1      -3.989  -0.026   1.688  0.00  0.00    -0.284 N 
ATOM      2  C   UNL     1      -3.297   1.092   1.393  0.00  0.00    +0.237 C 
ATOM      3  O   UNL     1      -3.021   1.884   2.269  0.00  0.00    -0.274 OA
ATOM      4  H   UNL     1      -4.318  -0.698   0.882  0.00  0.00    +0.155 HD
ENDROOT
BRANCH   1  10
ATOM      5  C   UNL     1      -5.383  -1.131   3.322  0.00  0.00    -0.043 A 
ATOM      6  C   UNL     1      -5.671  -1.437   4.638  0.00  0.00    +0.003 A 
ATOM      7  C   UNL     1      -4.877  -0.940   5.655  0.00  0.00    +0.000 A 
ATOM      8  C   UNL     1      -3.788  -0.140   5.358  0.00  0.00    +0.002 A 
ATOM      9  C   UNL     1      -3.491   0.164   4.044  0.00  0.00    +0.023 A 
ATOM     10  C   UNL     1      -4.287  -0.333   3.020  0.00  0.00    +0.035 A 
BRANCH   5  11
ATOM     11  C   UNL     1      -6.252  -1.668   2.215  0.00  0.00    -0.041 C 
BRANCH  11  13
ATOM     12  C   UNL     1      -5.539  -3.954   2.571  0.00  0.00    -0.095 C 
ATOM     13  N   UNL     1      -5.609  -2.843   1.613  0.00  0.00    +0.382 N 
ATOM     14  H   UNL     1      -4.580  -2.564   1.343  0.00  0.00    -0.081 HD
BRANCH  13  15
ATOM     15  C   UNL     1      -6.303  -3.252   0.384  0.00  0.00    -0.069 C 
ATOM     16  C   UNL     1      -7.718  -3.720   0.729  0.00  0.00    -0.015 C 
ATOM     17  C   UNL     1      -8.440  -4.145  -0.551  0.00  0.00    -0.002 C 
ATOM     18  C   UNL     1      -7.672  -5.290  -1.214  0.00  0.00    -0.000 C 
ATOM     19  C   UNL     1      -6.257  -4.822  -1.559  0.00  0.00    -0.002 C 
ATOM     20  C   UNL     1      -5.534  -4.396  -0.279  0.00  0.00    -0.015 C 
ENDBRANCH  13  15
ENDBRANCH  11  13
ENDBRANCH   5  11
ENDBRANCH   1  10
BRANCH   2  21
ATOM     21  C   UNL     1      -2.868   1.360  -0.027  0.00  0.00    +0.222 C 
BRANCH  21  22
ATOM     22  N   UNL     1      -2.138   2.629  -0.085  0.00  0.00    -0.290 N 
ATOM     23  C   UNL     1      -0.791   2.631   0.087  0.00  0.00    +0.203 A 
ATOM     24  N   UNL     1      -0.106   3.741   0.036  0.00  0.00    -0.230 NA
ATOM     25  C   UNL     1      -0.706   4.909  -0.181  0.00  0.00    +0.116 A 
ATOM     26  C   UNL     1      -2.095   5.005  -0.365  0.00  0.00    +0.080 A 
ATOM     27  C   UNL     1      -2.817   3.771  -0.303  0.00  0.00    +0.263 A 
ATOM     28  O   UNL     1      -4.026   3.753  -0.452  0.00  0.00    -0.267 OA
ATOM     29  C   UNL     1      -2.596   6.356  -0.592  0.00  0.00    +0.010 A 
ATOM     30  C   UNL     1      -1.712   7.385  -0.609  0.00  0.00    +0.057 A 
ATOM     31  S   UNL     1      -0.145   6.586  -0.316  0.00  0.00    -0.076 S 
BRANCH  29  32
ATOM     32  C   UNL     1      -4.039   6.600  -0.801  0.00  0.00    +0.021 A 
ATOM     33  C   UNL     1      -4.859   7.506  -0.183  0.00  0.00    +0.016 A 
ATOM     34  C   UNL     1      -6.188   7.554  -0.549  0.00  0.00    +0.008 A 
ATOM     35  C   UNL     1      -6.643   6.699  -1.499  0.00  0.00    +0.046 A 
ATOM     36  S   UNL     1      -5.168   5.785  -1.918  0.00  0.00    -0.097 S 
ENDBRANCH  29  32
ENDBRANCH  21  22
ENDBRANCH   2  21
TORSDOF 7
