REMARK  Name = ZINC43408353
REMARK  3 active torsions:
REMARK  status: ('A' for Active; 'I' for Inactive)
REMARK    1  A    between atoms: C_6  and  C_7
REMARK    2  A    between atoms: C_7  and  N_9
REMARK    3  A    between atoms: N_10  and  C_11
REMARK                            x       y       z     vdW  Elec       q    Type
REMARK                         _______ _______ _______ _____ _____    ______ ____
ROOT
ATOM      1  C   UNL     1      -0.012   1.404   0.001  0.00  0.00    +0.019 A 
ATOM      2  C   UNL     1       1.201   2.074  -0.003  0.00  0.00    -0.025 A 
ATOM      3  C   UNL     1       2.381   1.352  -0.009  0.00  0.00    +0.047 A 
ATOM      4  N   UNL     1       2.363   0.029  -0.012  0.00  0.00    -0.236 NA
ATOM      5  C   UNL     1       1.235  -0.660  -0.009  0.00  0.00    +0.129 A 
ATOM      6  C   UNL     1      -0.004   0.005  -0.002  0.00  0.00    +0.043 A 
ATOM      7  N   UNL     1       1.274  -2.043  -0.013  0.00  0.00    -0.327 N 
ATOM      8  C   UNL     1       3.558   2.307  -0.011  0.00  0.00    +0.056 C 
ATOM      9  C   UNL     1       2.975   3.668  -0.448  0.00  0.00    +0.011 C 
ATOM     10  C   UNL     1       1.502   3.556  -0.001  0.00  0.00    +0.037 C 
ATOM     11  H   UNL     1       0.451  -2.551   0.066  0.00  0.00    +0.148 HD
ENDROOT
BRANCH   7  12
ATOM     12  C   UNL     1       2.557  -2.740  -0.135  0.00  0.00    +0.058 C 
ATOM     13  C   UNL     1       3.198  -2.879   1.248  0.00  0.00    -0.056 C 
ATOM     14  N   UNL     1       3.388  -4.295   1.572  0.00  0.00    +0.381 N 
ATOM     15  C   UNL     1       2.101  -4.992   1.614  0.00  0.00    -0.078 C 
ATOM     16  C   UNL     1       1.422  -4.922   0.244  0.00  0.00    -0.014 C 
ATOM     17  C   UNL     1       2.328  -4.139  -0.721  0.00  0.00    +0.004 C 
ATOM     18  C   UNL     1       3.681  -4.857  -0.802  0.00  0.00    -0.014 C 
ATOM     19  C   UNL     1       4.287  -4.929   0.605  0.00  0.00    -0.078 C 
ATOM     20  H   UNL     1       3.808  -4.359   2.487  0.00  0.00    -0.082 HD
ENDBRANCH   7  12
BRANCH   6  21
ATOM     21  C   UNL     1      -1.265  -0.755   0.002  0.00  0.00    +0.080 C 
ATOM     22  S   UNL     1      -1.941  -1.299  -1.474  0.00  0.00    -0.035 S 
BRANCH  21  23
ATOM     23  N   UNL     1      -1.887  -1.021   1.167  0.00  0.00    -0.352 N 
ATOM     24  H   UNL     1      -1.505  -0.713   2.003  0.00  0.00    +0.143 HD
ATOM     25  H   UNL     1      -2.719  -1.522   1.170  0.00  0.00    +0.143 HD
ENDBRANCH  21  23
ENDBRANCH   6  21
TORSDOF 3
