REMARK  Name = ZINC01665564
REMARK  8 active torsions:
REMARK  status: ('A' for Active; 'I' for Inactive)
REMARK    1  A    between atoms: C_3  and  O_10
REMARK    2  A    between atoms: C_6  and  C_7
REMARK    3  A    between atoms: O_10  and  C_11
REMARK    4  A    between atoms: C_11  and  C_12
REMARK    5  A    between atoms: C_12  and  C_13
REMARK    6  A    between atoms: C_13  and  O_14
REMARK    7  A    between atoms: O_14  and  C_15
REMARK    8  A    between atoms: C_18  and  C_21
REMARK                            x       y       z     vdW  Elec       q    Type
REMARK                         _______ _______ _______ _____ _____    ______ ____
ROOT
ATOM      1  C   UNL     1       5.955   2.303  -0.044  0.00  0.00    +0.082 C 
ENDROOT
BRANCH   1   2
ATOM      2  C   UNL     1       4.755   1.353  -0.037  0.00  0.00    +0.232 C 
BRANCH   2   3
ATOM      3  O   UNL     1       3.545   2.113  -0.021  0.00  0.00    -0.492 OA
BRANCH   3   6
ATOM      4  C   UNL     1      -0.017   1.392   0.010  0.00  0.00    +0.015 A 
ATOM      5  C   UNL     1       1.167   2.095   0.002  0.00  0.00    +0.046 A 
ATOM      6  C   UNL     1       2.380   1.417  -0.013  0.00  0.00    +0.121 A 
ATOM      7  C   UNL     1       2.403   0.028  -0.022  0.00  0.00    +0.046 A 
ATOM      8  C   UNL     1       1.223  -0.682  -0.014  0.00  0.00    +0.015 A 
ATOM      9  C   UNL     1       0.002  -0.004   0.002  0.00  0.00    +0.012 A 
BRANCH   9  10
ATOM     10  C   UNL     1      -1.266  -0.762   0.011  0.00  0.00    +0.094 C 
ATOM     11  N   UNL     1      -1.246  -2.094   0.003  0.00  0.00    -0.387 N 
ATOM     12  N   UNL     1      -2.430  -0.113   0.026  0.00  0.00    -0.345 N 
ATOM     13  H   UNL     1      -0.399  -2.567  -0.008  0.00  0.00    +0.157 HD
ATOM     14  H   UNL     1      -2.445   0.857   0.031  0.00  0.00    +0.144 HD
ATOM     15  H   UNL     1      -3.263  -0.611   0.031  0.00  0.00    +0.144 HD
ATOM     16  H   UNL     1      -2.079  -2.592   0.009  0.00  0.00    +0.157 HD
ENDBRANCH   9  10
ENDBRANCH   3   6
ENDBRANCH   2   3
ENDBRANCH   1   2
BRANCH   1  17
ATOM     17  C   UNL     1       7.250   1.489  -0.061  0.00  0.00    +0.232 C 
BRANCH  17  18
ATOM     18  O   UNL     1       8.370   2.377  -0.068  0.00  0.00    -0.492 OA
BRANCH  18  19
ATOM     19  C   UNL     1       9.604   1.812  -0.083  0.00  0.00    +0.121 A 
ATOM     20  C   UNL     1       9.732   0.428  -0.098  0.00  0.00    +0.046 A 
ATOM     21  C   UNL     1      10.983  -0.149  -0.113  0.00  0.00    +0.015 A 
ATOM     22  C   UNL     1      12.123   0.658  -0.114  0.00  0.00    +0.012 A 
ATOM     23  C   UNL     1      11.989   2.048  -0.100  0.00  0.00    +0.015 A 
ATOM     24  C   UNL     1      10.736   2.618  -0.090  0.00  0.00    +0.046 A 
BRANCH  22  25
ATOM     25  C   UNL     1      13.466   0.043  -0.130  0.00  0.00    +0.094 C 
ATOM     26  N   UNL     1      14.552   0.814  -0.131  0.00  0.00    -0.387 N 
ATOM     27  N   UNL     1      13.591  -1.284  -0.142  0.00  0.00    -0.345 N 
ATOM     28  H   UNL     1      14.461   1.780  -0.121  0.00  0.00    +0.157 HD
ATOM     29  H   UNL     1      12.800  -1.846  -0.142  0.00  0.00    +0.144 HD
ATOM     30  H   UNL     1      14.473  -1.688  -0.153  0.00  0.00    +0.144 HD
ATOM     31  H   UNL     1      15.434   0.410  -0.141  0.00  0.00    +0.157 HD
ENDBRANCH  22  25
ENDBRANCH  18  19
ENDBRANCH  17  18
ENDBRANCH   1  17
TORSDOF 8
