REMARK  Name = ZINC53115732
REMARK  7 active torsions:
REMARK  status: ('A' for Active; 'I' for Inactive)
REMARK    1  A    between atoms: C_1  and  C_2
REMARK    2  A    between atoms: C_7  and  C_9
REMARK    3  A    between atoms: C_7  and  N_11
REMARK    4  A    between atoms: C_9  and  O_10
REMARK    5  A    between atoms: N_11  and  C_12
REMARK    6  A    between atoms: C_12  and  C_13
REMARK    7  A    between atoms: C_18  and  O_19
REMARK                            x       y       z     vdW  Elec       q    Type
REMARK                         _______ _______ _______ _____ _____    ______ ____
ROOT
ATOM      1  N   UNL     1       1.482  -2.514   2.375  0.00  0.00    +0.387 N 
ATOM      2  H   UNL     1       1.570  -3.518   2.312  0.00  0.00    -0.085 HD
ATOM      3  H   UNL     1       2.401  -2.097   2.392  0.00  0.00    -0.085 HD
ENDROOT
BRANCH   1   9
ATOM      4  C   UNL     1      -0.101   1.564   0.065  0.00  0.00    +0.007 C 
ATOM      5  C   UNL     1      -0.068   0.035   0.032  0.00  0.00    -0.015 C 
ATOM      6  C   UNL     1      -1.499  -0.506   0.069  0.00  0.00    +0.003 C 
ATOM      7  C   UNL     1      -1.466  -2.036   0.036  0.00  0.00    -0.001 C 
ATOM      8  C   UNL     1      -0.692  -2.556   1.248  0.00  0.00    -0.010 C 
ATOM      9  C   UNL     1       0.739  -2.015   1.210  0.00  0.00    -0.044 C 
ATOM     10  C   UNL     1       0.706  -0.485   1.244  0.00  0.00    -0.007 C 
BRANCH   9  11
ATOM     11  C   UNL     1       1.427  -2.482  -0.073  0.00  0.00    +0.143 C 
BRANCH  11  12
ATOM     12  O   UNL     1       1.549  -3.906  -0.057  0.00  0.00    -0.396 OA
ATOM     13  H   UNL     1       1.977  -4.273  -0.843  0.00  0.00    +0.209 HD
ENDBRANCH  11  12
ENDBRANCH   9  11
ENDBRANCH   1   9
BRANCH   1  14
ATOM     14  C   UNL     1       0.761  -2.161   3.605  0.00  0.00    -0.042 C 
BRANCH  14  15
ATOM     15  C   UNL     1       1.586  -2.558   4.802  0.00  0.00    -0.020 A 
ATOM     16  C   UNL     1       1.305  -3.731   5.477  0.00  0.00    +0.025 A 
ATOM     17  C   UNL     1       2.061  -4.095   6.577  0.00  0.00    +0.043 A 
ATOM     18  C   UNL     1       3.100  -3.287   7.003  0.00  0.00    +0.043 A 
ATOM     19  C   UNL     1       3.384  -2.113   6.331  0.00  0.00    +0.084 A 
ATOM     20  C   UNL     1       2.630  -1.749   5.224  0.00  0.00    +0.136 A 
ATOM     21 CL   UNL     1       4.687  -1.099   6.867  0.00  0.00    -0.080 Cl
ATOM     22 CL   UNL     1       1.706  -5.569   7.423  0.00  0.00    -0.083 Cl
BRANCH  20  23
ATOM     23  O   UNL     1       2.911  -0.598   4.558  0.00  0.00    -0.505 OA
ATOM     24  H   UNL     1       2.438   0.176   4.893  0.00  0.00    +0.292 HD
ENDBRANCH  20  23
ENDBRANCH  14  15
ENDBRANCH   1  14
TORSDOF 6
