REMARK  Name = ZINC12374494
REMARK  9 active torsions:
REMARK  status: ('A' for Active; 'I' for Inactive)
REMARK    1  A    between atoms: C_3  and  N_8
REMARK    2  A    between atoms: C_6  and  N_7
REMARK    3  A    between atoms: N_8  and  C_9
REMARK    4  A    between atoms: C_9  and  N_20
REMARK    5  A    between atoms: C_10  and  C_11
REMARK    6  A    between atoms: C_10  and  N_17
REMARK    7  A    between atoms: C_12  and  N_13
REMARK    8  A    between atoms: N_20  and  C_21
REMARK    9  A    between atoms: C_24  and  N_27
REMARK                            x       y       z     vdW  Elec       q    Type
REMARK                         _______ _______ _______ _____ _____    ______ ____
ROOT
ATOM      1  C   UNL     1       2.436   4.351   0.663  0.00  0.00    +0.123 C 
ATOM      2  C   UNL     1       1.236   3.876  -0.048  0.00  0.00    +0.165 C 
ENDROOT
BRANCH   2   3
ATOM      3  C   UNL     1       1.341   3.402  -1.337  0.00  0.00    +0.081 C 
ATOM      4  C   UNL     1       0.263   3.509  -2.206  0.00  0.00    +0.194 C 
ATOM      5 CL   UNL     1       0.111   2.408  -3.539  0.00  0.00    -0.057 Cl
BRANCH   4   6
ATOM      6  N   UNL     1      -0.756   4.561  -1.995  0.00  0.00    +0.068 N 
ATOM      7  O   UNL     1      -0.576   5.475  -1.063  0.00  0.00    -0.125 OA
ATOM      8  O   UNL     1      -1.843   4.584  -2.738  0.00  0.00    -0.125 OA
ENDBRANCH   4   6
ENDBRANCH   2   3
BRANCH   2   9
ATOM      9  N   UNL     1      -0.083   3.907   0.624  0.00  0.00    +0.060 N 
ATOM     10  O   UNL     1      -0.203   4.460   1.813  0.00  0.00    -0.126 OA
ATOM     11  O   UNL     1      -1.136   3.383   0.032  0.00  0.00    -0.126 OA
ENDBRANCH   2   9
BRANCH   1  12
ATOM     12  N   UNL     1       2.313   4.984   1.842  0.00  0.00    -0.301 N 
ATOM     13  H   UNL     1       2.354   4.479   2.670  0.00  0.00    +0.153 HD
BRANCH  12  16
ATOM     14  C   UNL     1       2.490   8.479   2.944  0.00  0.00    +0.024 A 
ATOM     15  C   UNL     1       2.676   7.114   2.911  0.00  0.00    +0.025 A 
ATOM     16  C   UNL     1       2.125   6.361   1.876  0.00  0.00    +0.032 A 
ATOM     17  C   UNL     1       1.386   6.988   0.876  0.00  0.00    +0.025 A 
ATOM     18  C   UNL     1       1.200   8.353   0.911  0.00  0.00    +0.024 A 
ATOM     19  C   UNL     1       1.751   9.105   1.945  0.00  0.00    +0.025 A 
BRANCH  19  20
ATOM     20  N   UNL     1       1.563  10.486   1.979  0.00  0.00    -0.358 N 
ATOM     21  H   UNL     1       1.883  11.000   2.736  0.00  0.00    +0.142 HD
ATOM     22  H   UNL     1       1.111  10.932   1.246  0.00  0.00    +0.142 HD
ENDBRANCH  19  20
ENDBRANCH  12  16
ENDBRANCH   1  12
BRANCH   1  23
ATOM     23  N   UNL     1       3.655   4.152   0.131  0.00  0.00    -0.301 N 
ATOM     24  H   UNL     1       4.091   4.865  -0.361  0.00  0.00    +0.153 HD
BRANCH  23  25
ATOM     25  C   UNL     1       4.289   2.925   0.287  0.00  0.00    +0.032 A 
ATOM     26  C   UNL     1       3.556   1.744   0.187  0.00  0.00    +0.025 A 
ATOM     27  C   UNL     1       4.187   0.528   0.335  0.00  0.00    +0.024 A 
ATOM     28  C   UNL     1       5.553   0.479   0.597  0.00  0.00    +0.025 A 
ATOM     29  C   UNL     1       6.284   1.658   0.703  0.00  0.00    +0.024 A 
ATOM     30  C   UNL     1       5.656   2.875   0.549  0.00  0.00    +0.025 A 
BRANCH  28  31
ATOM     31  N   UNL     1       6.189  -0.752   0.752  0.00  0.00    -0.358 N 
ATOM     32  H   UNL     1       7.124  -0.786   1.006  0.00  0.00    +0.142 HD
ATOM     33  H   UNL     1       5.696  -1.574   0.607  0.00  0.00    +0.142 HD
ENDBRANCH  28  31
ENDBRANCH  23  25
ENDBRANCH   1  23
TORSDOF 9
