REMARK  Name = ZINC09882984
REMARK  11 active torsions:
REMARK  status: ('A' for Active; 'I' for Inactive)
REMARK    1  A    between atoms: C_1  and  C_2
REMARK    2  A    between atoms: C_2  and  C_4
REMARK    3  A    between atoms: C_2  and  S_20
REMARK    4  A    between atoms: N_6  and  C_7
REMARK    5  A    between atoms: C_7  and  C_8
REMARK    6  A    between atoms: C_7  and  C_14
REMARK    7  A    between atoms: S_20  and  C_21
REMARK    8  A    between atoms: C_24  and  C_27
REMARK    9  A    between atoms: N_25  and  N_26
REMARK   10  A    between atoms: C_30  and  O_33
REMARK   11  A    between atoms: O_33  and  C_34
REMARK                            x       y       z     vdW  Elec       q    Type
REMARK                         _______ _______ _______ _____ _____    ______ ____
ROOT
ATOM      1  C   UNL     1      -0.013   1.086   0.008  0.00  0.00    +0.029 C 
ATOM      2  C   UNL     1      -0.729   1.579   1.267  0.00  0.00    +0.137 C 
ENDROOT
BRANCH   2   3
ATOM      3  C   UNL     1      -2.143   1.058   1.278  0.00  0.00    +0.227 C 
ATOM      4  O   UNL     1      -2.427   0.089   1.950  0.00  0.00    -0.275 OA
ATOM      5  N   UNL     1      -3.091   1.667   0.539  0.00  0.00    -0.304 N 
ATOM      6  H   UNL     1      -2.864   2.442   0.002  0.00  0.00    +0.150 HD
BRANCH   5   7
ATOM      7  C   UNL     1      -4.466   1.160   0.550  0.00  0.00    +0.134 C 
BRANCH   7   8
ATOM      8  C   UNL     1      -5.208   1.745   1.724  0.00  0.00    -0.023 A 
ATOM      9  C   UNL     1      -5.014   3.067   2.076  0.00  0.00    +0.006 A 
ATOM     10  C   UNL     1      -5.699   3.605   3.150  0.00  0.00    +0.000 A 
ATOM     11  C   UNL     1      -6.569   2.817   3.878  0.00  0.00    +0.000 A 
ATOM     12  C   UNL     1      -6.759   1.492   3.530  0.00  0.00    +0.000 A 
ATOM     13  C   UNL     1      -6.079   0.957   2.453  0.00  0.00    +0.006 A 
ENDBRANCH   7   8
BRANCH   7  14
ATOM     14  C   UNL     1      -5.157   1.556  -0.729  0.00  0.00    -0.023 A 
ATOM     15  C   UNL     1      -4.953   2.815  -1.264  0.00  0.00    +0.006 A 
ATOM     16  C   UNL     1      -5.583   3.177  -2.440  0.00  0.00    +0.000 A 
ATOM     17  C   UNL     1      -6.426   2.284  -3.075  0.00  0.00    +0.000 A 
ATOM     18  C   UNL     1      -6.634   1.028  -2.538  0.00  0.00    +0.000 A 
ATOM     19  C   UNL     1      -6.000   0.664  -1.365  0.00  0.00    +0.006 A 
ENDBRANCH   7  14
ENDBRANCH   5   7
ENDBRANCH   2   3
BRANCH   2  20
ATOM     20  S   UNL     1       0.147   0.980   2.733  0.00  0.00    -0.072 S 
BRANCH  20  21
ATOM     21  C   UNL     1       1.675   1.838   2.550  0.00  0.00    +0.209 A 
ATOM     22  N   UNL     1       1.992   2.664   1.579  0.00  0.00    -0.121 NA
ATOM     23  N   UNL     1       3.184   3.113   1.754  0.00  0.00    -0.127 NA
ATOM     24  C   UNL     1       3.700   2.601   2.847  0.00  0.00    +0.182 A 
ATOM     25  N   UNL     1       2.747   1.772   3.393  0.00  0.00    -0.224 N 
BRANCH  24  26
ATOM     26  C   UNL     1       5.048   2.869   3.391  0.00  0.00    +0.021 A 
ATOM     27  C   UNL     1       5.582   2.038   4.378  0.00  0.00    +0.015 A 
ATOM     28  C   UNL     1       6.841   2.288   4.879  0.00  0.00    +0.046 A 
ATOM     29  C   UNL     1       7.574   3.372   4.412  0.00  0.00    +0.127 A 
ATOM     30  C   UNL     1       7.044   4.204   3.435  0.00  0.00    +0.046 A 
ATOM     31  C   UNL     1       5.788   3.957   2.924  0.00  0.00    +0.015 A 
BRANCH  29  32
ATOM     32  O   UNL     1       8.813   3.618   4.913  0.00  0.00    -0.434 OA
BRANCH  32  33
ATOM     33  C   UNL     1       9.297   2.723   5.916  0.00  0.00    +0.541 C 
ATOM     34  F   UNL     1       8.435   2.746   7.018  0.00  0.00    -0.166 F 
ATOM     35  F   UNL     1       9.354   1.426   5.395  0.00  0.00    -0.166 F 
ENDBRANCH  32  33
ENDBRANCH  29  32
ENDBRANCH  24  26
BRANCH  25  36
ATOM     36  N   UNL     1       2.853   1.036   4.539  0.00  0.00    -0.295 N 
ATOM     37  H   UNL     1       3.227   0.119   4.346  0.00  0.00    +0.163 HD
ATOM     38  H   UNL     1       3.411   1.516   5.228  0.00  0.00    +0.163 HD
ENDBRANCH  25  36
ENDBRANCH  20  21
ENDBRANCH   2  20
TORSDOF 10
