REMARK  Name = ZINC62326548
REMARK  8 active torsions:
REMARK  status: ('A' for Active; 'I' for Inactive)
REMARK    1  A    between atoms: C_1  and  N_2
REMARK    2  A    between atoms: C_6  and  C_7
REMARK    3  A    between atoms: C_7  and  N_8
REMARK    4  A    between atoms: N_8  and  C_9
REMARK    5  A    between atoms: N_8  and  S_10
REMARK    6  A    between atoms: S_10  and  C_13
REMARK    7  A    between atoms: C_18  and  N_19
REMARK    8  A    between atoms: N_19  and  N_20
REMARK                            x       y       z     vdW  Elec       q    Type
REMARK                         _______ _______ _______ _____ _____    ______ ____
ROOT
ATOM      1  S   UNL     1       2.200  -1.447   3.660  0.00  0.00    +0.064 S 
ATOM      2  O   UNL     1       1.583  -2.589   3.083  0.00  0.00    -0.153 OA
ATOM      3  O   UNL     1       3.600  -1.216   3.580  0.00  0.00    -0.153 OA
ENDROOT
BRANCH   1   4
ATOM      4  C   UNL     1       1.790  -1.465   5.374  0.00  0.00    +0.147 A 
ATOM      5  C   UNL     1       0.993  -2.469   5.893  0.00  0.00    +0.048 A 
ATOM      6  C   UNL     1       0.695  -2.444   7.250  0.00  0.00    +0.038 A 
ATOM      7  C   UNL     1       1.200  -1.425   8.034  0.00  0.00    +0.128 A 
ATOM      8  N   UNL     1       1.958  -0.480   7.510  0.00  0.00    -0.236 NA
ATOM      9  C   UNL     1       2.269  -0.473   6.223  0.00  0.00    +0.159 A 
ATOM     10 BR   UNL     1      -0.391  -3.790   8.014  0.00  0.00    -0.049 Br
BRANCH   9  11
ATOM     11  N   UNL     1       3.077   0.538   5.715  0.00  0.00    -0.266 N 
ATOM     12  H   UNL     1       3.250   0.588   4.762  0.00  0.00    +0.167 HD
BRANCH  11  13
ATOM     13  N   UNL     1       3.626   1.462   6.559  0.00  0.00    -0.255 NA
ATOM     14  H   UNL     1       4.236   1.020   7.231  0.00  0.00    +0.140 HD
ATOM     15  H   UNL     1       4.115   2.177   6.042  0.00  0.00    +0.140 HD
ENDBRANCH  11  13
ENDBRANCH   9  11
ENDBRANCH   1   4
BRANCH   1  16
ATOM     16  N   UNL     1       1.463  -0.122   2.994  0.00  0.00    -0.172 NA
ATOM     17  C   UNL     1       2.213   1.124   2.822  0.00  0.00    +0.132 C 
BRANCH  16  18
ATOM     18  C   UNL     1       0.060  -0.197   2.578  0.00  0.00    +0.181 C 
BRANCH  18  24
ATOM     19  C   UNL     1       0.211   1.803   0.216  0.00  0.00    +0.150 C 
ATOM     20  N   UNL     1       0.057   0.351   0.094  0.00  0.00    -0.338 N 
ATOM     21  C   UNL     1      -0.041  -0.360  -1.071  0.00  0.00    +0.104 A 
ATOM     22  C   UNL     1      -0.169  -1.656  -0.727  0.00  0.00    +0.101 A 
ATOM     23  N   UNL     1      -0.150  -1.733   0.612  0.00  0.00    -0.349 N 
ATOM     24  C   UNL     1      -0.011  -0.535   1.111  0.00  0.00    +0.103 A 
ATOM     25  H   UNL     1      -0.226  -2.551   1.129  0.00  0.00    +0.166 HD
ENDBRANCH  18  24
ENDBRANCH  16  18
ENDBRANCH   1  16
TORSDOF 6
