REMARK  Name = ZINC59170417
REMARK  12 active torsions:
REMARK  status: ('A' for Active; 'I' for Inactive)
REMARK    1  A    between atoms: C_1  and  C_2
REMARK    2  A    between atoms: C_2  and  N_3
REMARK    3  A    between atoms: N_3  and  C_4
REMARK    4  A    between atoms: N_3  and  C_6
REMARK    5  A    between atoms: C_4  and  C_5
REMARK    6  A    between atoms: C_11  and  C_28
REMARK    7  A    between atoms: N_13  and  N_14
REMARK    8  A    between atoms: N_14  and  S_15
REMARK    9  A    between atoms: S_15  and  C_18
REMARK   10  A    between atoms: C_21  and  C_24
REMARK   11  A    between atoms: N_30  and  C_31
REMARK   12  A    between atoms: C_34  and  C_37
REMARK                            x       y       z     vdW  Elec       q    Type
REMARK                         _______ _______ _______ _____ _____    ______ ____
ROOT
ATOM      1  C   UNL     1       2.049  -0.797   1.414  0.00  0.00    +0.033 A 
ATOM      2  C   UNL     1       2.597  -1.087   0.165  0.00  0.00    +0.024 A 
ATOM      3  C   UNL     1       3.942  -1.281   0.028  0.00  0.00    +0.013 A 
ATOM      4  C   UNL     1       4.777  -1.187   1.148  0.00  0.00    +0.018 A 
ATOM      5  C   UNL     1       6.222  -1.396   1.021  0.00  0.00    +0.030 A 
ATOM      6  C   UNL     1       6.947  -1.561   2.180  0.00  0.00    +0.099 A 
ATOM      7  C   UNL     1       6.201  -1.511   3.459  0.00  0.00    +0.225 A 
ATOM      8  N   UNL     1       6.640  -2.133   4.517  0.00  0.00    -0.260 N 
ATOM      9  O   UNL     1       5.041  -0.793   3.494  0.00  0.00    -0.437 OA
ATOM     10  C   UNL     1       4.229  -0.891   2.410  0.00  0.00    +0.139 A 
ATOM     11  C   UNL     1       2.866  -0.693   2.534  0.00  0.00    +0.070 A 
ATOM     12  H   UNL     1       7.496  -2.587   4.493  0.00  0.00    +0.189 HD
ENDROOT
BRANCH   6  13
ATOM     13  C   UNL     1       8.401  -1.778   2.149  0.00  0.00    +0.253 C 
ATOM     14  O   UNL     1       9.032  -1.818   3.188  0.00  0.00    -0.270 OA
ATOM     15  N   UNL     1       9.034  -1.932   0.969  0.00  0.00    -0.281 N 
ATOM     16  H   UNL     1       8.552  -1.798   0.138  0.00  0.00    +0.155 HD
BRANCH  15  17
ATOM     17  C   UNL     1      10.387  -2.286   0.943  0.00  0.00    +0.034 A 
ATOM     18  C   UNL     1      10.911  -3.107   1.933  0.00  0.00    +0.023 A 
ATOM     19  C   UNL     1      12.247  -3.454   1.904  0.00  0.00    +0.005 A 
ATOM     20  C   UNL     1      13.063  -2.986   0.891  0.00  0.00    -0.050 A 
ATOM     21  C   UNL     1      12.545  -2.168  -0.097  0.00  0.00    +0.005 A 
ATOM     22  C   UNL     1      11.208  -1.821  -0.077  0.00  0.00    +0.023 A 
ATOM     23  C   UNL     1      14.521  -3.367   0.862  0.00  0.00    +0.044 C 
ENDBRANCH  15  17
ENDBRANCH   6  13
BRANCH   8  24
ATOM     24  N   UNL     1       5.874  -2.144   5.690  0.00  0.00    -0.157 N 
ATOM     25  H   UNL     1       4.985  -1.755   5.693  0.00  0.00    +0.194 HD
BRANCH  24  26
ATOM     26  S   UNL     1       6.485  -2.823   7.071  0.00  0.00    +0.085 S 
ATOM     27  O   UNL     1       5.604  -2.461   8.126  0.00  0.00    -0.149 OA
ATOM     28  O   UNL     1       6.785  -4.177   6.760  0.00  0.00    -0.149 OA
BRANCH  26  29
ATOM     29  C   UNL     1       8.023  -2.030   7.405  0.00  0.00    +0.110 A 
ATOM     30  C   UNL     1       9.180  -2.484   6.800  0.00  0.00    +0.029 A 
ATOM     31  C   UNL     1      10.386  -1.862   7.061  0.00  0.00    +0.005 A 
ATOM     32  C   UNL     1      10.436  -0.786   7.928  0.00  0.00    -0.050 A 
ATOM     33  C   UNL     1       9.278  -0.332   8.533  0.00  0.00    +0.005 A 
ATOM     34  C   UNL     1       8.071  -0.951   8.268  0.00  0.00    +0.029 A 
ATOM     35  C   UNL     1      11.751  -0.109   8.214  0.00  0.00    +0.044 C 
ENDBRANCH  26  29
ENDBRANCH  24  26
ENDBRANCH   8  24
BRANCH   1  36
ATOM     36  N   UNL     1       0.677  -0.604   1.539  0.00  0.00    -0.330 N 
BRANCH  36  38
ATOM     37  C   UNL     1      -0.314   0.659  -0.306  0.00  0.00    +0.024 C 
ATOM     38  C   UNL     1      -0.188  -0.712   0.361  0.00  0.00    +0.102 C 
ENDBRANCH  36  38
BRANCH  36  39
ATOM     39  C   UNL     1       0.098  -0.292   2.847  0.00  0.00    +0.102 C 
ATOM     40  C   UNL     1      -0.279  -1.592   3.561  0.00  0.00    +0.024 C 
ENDBRANCH  36  39
ENDBRANCH   1  36
TORSDOF 8
