REMARK  Name = ZINC06221780
REMARK  6 active torsions:
REMARK  status: ('A' for Active; 'I' for Inactive)
REMARK    1  A    between atoms: C_3  and  S_19
REMARK    2  A    between atoms: C_6  and  N_7
REMARK    3  A    between atoms: N_7  and  N_8
REMARK    4  A    between atoms: N_8  and  S_9
REMARK    5  A    between atoms: S_9  and  C_12
REMARK    6  A    between atoms: S_19  and  N_22
REMARK                            x       y       z     vdW  Elec       q    Type
REMARK                         _______ _______ _______ _____ _____    ______ ____
ROOT
ATOM      1  N   UNL     1       1.162   3.483   0.009  0.00  0.00    -0.262 N 
ATOM      2  H   UNL     1       0.317   3.958   0.019  0.00  0.00    +0.168 HD
ENDROOT
BRANCH   1   8
ATOM      3  C   UNL     1      -0.017   1.377   0.010  0.00  0.00    +0.026 A 
ATOM      4  C   UNL     1       0.002  -0.004   0.002  0.00  0.00    +0.030 A 
ATOM      5  C   UNL     1       1.208  -0.681  -0.013  0.00  0.00    +0.105 A 
ATOM      6  C   UNL     1       2.399   0.022  -0.020  0.00  0.00    +0.030 A 
ATOM      7  C   UNL     1       2.387   1.403  -0.012  0.00  0.00    +0.026 A 
ATOM      8  C   UNL     1       1.178   2.086   0.002  0.00  0.00    +0.043 A 
BRANCH   5   9
ATOM      9  S   UNL     1       1.227  -2.443  -0.023  0.00  0.00    +0.056 S 
ATOM     10  O   UNL     1       2.482  -2.838   0.514  0.00  0.00    -0.153 OA
ATOM     11  O   UNL     1      -0.008  -2.865   0.538  0.00  0.00    -0.153 OA
BRANCH   9  12
ATOM     12  N   UNL     1       1.218  -2.924  -1.607  0.00  0.00    -0.204 NA
ATOM     13  H   UNL     1       1.204  -2.261  -2.315  0.00  0.00    +0.144 HD
ATOM     14  H   UNL     1       1.226  -3.868  -1.827  0.00  0.00    +0.144 HD
ENDBRANCH   9  12
ENDBRANCH   5   9
ENDBRANCH   1   8
BRANCH   1  15
ATOM     15  N   UNL     1       2.368   4.197   0.002  0.00  0.00    -0.110 NA
ATOM     16  H   UNL     1       3.037   4.026   0.683  0.00  0.00    +0.172 HD
BRANCH  15  17
ATOM     17  S   UNL     1       2.650   5.332  -1.170  0.00  0.00    +0.073 S 
ATOM     18  O   UNL     1       3.872   5.973  -0.828  0.00  0.00    -0.152 OA
ATOM     19  O   UNL     1       2.454   4.684  -2.420  0.00  0.00    -0.152 OA
BRANCH  17  20
ATOM     20  C   UNL     1       1.385   6.551  -1.030  0.00  0.00    +0.107 A 
ATOM     21  C   UNL     1       0.210   6.412  -1.745  0.00  0.00    +0.030 A 
ATOM     22  C   UNL     1      -0.785   7.364  -1.631  0.00  0.00    +0.022 A 
ATOM     23  C   UNL     1      -0.600   8.463  -0.811  0.00  0.00    +0.041 A 
ATOM     24  C   UNL     1       0.579   8.604  -0.101  0.00  0.00    +0.022 A 
ATOM     25  C   UNL     1       1.571   7.648  -0.211  0.00  0.00    +0.030 A 
ATOM     26 CL   UNL     1      -1.846   9.663  -0.673  0.00  0.00    -0.084 Cl
ENDBRANCH  17  20
ENDBRANCH  15  17
ENDBRANCH   1  15
TORSDOF 6
