REMARK  Name = ZINC03007033
REMARK  12 active torsions:
REMARK  status: ('A' for Active; 'I' for Inactive)
REMARK    1  A    between atoms: C_1  and  C_2
REMARK    2  A    between atoms: C_2  and  N_65
REMARK    3  A    between atoms: C_8  and  N_15
REMARK    4  A    between atoms: C_9  and  C_10
REMARK    5  A    between atoms: C_10  and  O_12
REMARK    6  A    between atoms: O_12  and  C_13
REMARK    7  A    between atoms: C_13  and  C_14
REMARK    8  A    between atoms: C_16  and  C_18
REMARK    9  A    between atoms: C_21  and  S_24
REMARK   10  A    between atoms: S_24  and  N_27
REMARK   11  A    between atoms: N_27  and  C_28
REMARK   12  A    between atoms: N_27  and  C_29
REMARK                            x       y       z     vdW  Elec       q    Type
REMARK                         _______ _______ _______ _____ _____    ______ ____
ROOT
ATOM      1  N   UNL     1       0.465   2.687   2.257  0.00  0.00    -0.275 N 
ATOM      2  C   UNL     1       1.312   3.136   3.204  0.00  0.00    +0.249 C 
ATOM      3  O   UNL     1       2.242   3.856   2.896  0.00  0.00    -0.270 OA
ATOM      4  H   UNL     1      -0.277   2.112   2.502  0.00  0.00    +0.156 HD
ENDROOT
BRANCH   1  10
ATOM      5  C   UNL     1       0.045   3.980  -3.802  0.00  0.00    -0.074 C 
ATOM      6  C   UNL     1      -0.407   2.931  -2.781  0.00  0.00    +0.018 C 
ATOM      7  C   UNL     1       0.309   3.211  -1.465  0.00  0.00    -0.025 A 
ATOM      8  C   UNL     1       1.409   3.997  -1.444  0.00  0.00    -0.021 A 
ATOM      9  S   UNL     1       1.895   4.049   0.256  0.00  0.00    -0.079 S 
ATOM     10  C   UNL     1       0.654   3.046   0.933  0.00  0.00    +0.086 A 
ATOM     11  C   UNL     1      -0.104   2.688  -0.176  0.00  0.00    +0.091 A 
ATOM     12  C   UNL     1       2.049   4.660  -2.623  0.00  0.00    -0.035 C 
ATOM     13  N   UNL     1       1.521   4.014  -3.849  0.00  0.00    +0.383 N 
ATOM     14  H   UNL     1       1.876   3.052  -3.900  0.00  0.00    -0.081 HD
BRANCH  13  16
ATOM     15  C   UNL     1       1.374   6.164  -5.059  0.00  0.00    -0.017 C 
ATOM     16  C   UNL     1       1.972   4.756  -5.046  0.00  0.00    -0.082 C 
ENDBRANCH  13  16
BRANCH  11  17
ATOM     17  C   UNL     1      -1.278   1.822  -0.047  0.00  0.00    +0.342 C 
ATOM     18  O   UNL     1      -1.157   0.616  -0.142  0.00  0.00    -0.245 OA
BRANCH  17  19
ATOM     19  O   UNL     1      -2.494   2.363   0.172  0.00  0.00    -0.461 OA
BRANCH  19  20
ATOM     20  C   UNL     1      -3.614   1.444   0.283  0.00  0.00    +0.229 C 
ATOM     21  C   UNL     1      -4.900   2.236   0.528  0.00  0.00    +0.048 C 
ENDBRANCH  19  20
ENDBRANCH  17  19
ENDBRANCH  11  17
ENDBRANCH   1  10
BRANCH   2  22
ATOM     22  C   UNL     1       1.111   2.752   4.617  0.00  0.00    +0.037 A 
ATOM     23  C   UNL     1       0.041   1.930   4.975  0.00  0.00    +0.015 A 
ATOM     24  C   UNL     1      -0.138   1.572   6.295  0.00  0.00    +0.029 A 
ATOM     25  C   UNL     1       0.733   2.034   7.265  0.00  0.00    +0.109 A 
ATOM     26  C   UNL     1       1.792   2.854   6.918  0.00  0.00    +0.029 A 
ATOM     27  C   UNL     1       1.986   3.216   5.601  0.00  0.00    +0.015 A 
BRANCH  25  28
ATOM     28  S   UNL     1       0.493   1.577   8.950  0.00  0.00    +0.074 S 
ATOM     29  O   UNL     1      -0.246   0.363   8.940  0.00  0.00    -0.150 OA
ATOM     30  O   UNL     1       1.758   1.695   9.587  0.00  0.00    -0.150 OA
BRANCH  28  31
ATOM     31  N   UNL     1      -0.489   2.723   9.632  0.00  0.00    -0.206 N 
ATOM     32  C   UNL     1      -1.944   2.615   9.498  0.00  0.00    +0.157 C 
BRANCH  31  33
ATOM     33  C   UNL     1       0.070   3.793  10.335  0.00  0.00    +0.051 A 
ATOM     34  C   UNL     1       0.853   3.555  11.457  0.00  0.00    +0.025 A 
ATOM     35  C   UNL     1       1.409   4.615  12.147  0.00  0.00    +0.002 A 
ATOM     36  C   UNL     1       1.176   5.912  11.729  0.00  0.00    +0.000 A 
ATOM     37  C   UNL     1       0.392   6.153  10.615  0.00  0.00    +0.002 A 
ATOM     38  C   UNL     1      -0.161   5.097   9.917  0.00  0.00    +0.025 A 
ENDBRANCH  31  33
ENDBRANCH  28  31
ENDBRANCH  25  28
ENDBRANCH   2  22
TORSDOF 9
