REMARK  Name = ZINC12200348
REMARK  10 active torsions:
REMARK  status: ('A' for Active; 'I' for Inactive)
REMARK    1  A    between atoms: C_1  and  C_2
REMARK    2  A    between atoms: C_4  and  C_38
REMARK    3  A    between atoms: N_5  and  C_7
REMARK    4  A    between atoms: C_7  and  C_8
REMARK    5  A    between atoms: C_8  and  C_9
REMARK    6  A    between atoms: N_11  and  C_12
REMARK    7  A    between atoms: N_11  and  C_31
REMARK    8  A    between atoms: C_12  and  C_13
REMARK    9  A    between atoms: C_21  and  N_22
REMARK   10  A    between atoms: C_31  and  C_32
REMARK                            x       y       z     vdW  Elec       q    Type
REMARK                         _______ _______ _______ _____ _____    ______ ____
ROOT
ATOM      1  C   UNL     1       1.882  -0.733  -0.770  0.00  0.00    +0.008 A 
ATOM      2  C   UNL     1       1.974  -0.044  -1.942  0.00  0.00    +0.018 A 
ATOM      3  C   UNL     1       2.503   1.262  -1.911  0.00  0.00    -0.001 A 
ATOM      4  C   UNL     1       2.627   2.028  -3.079  0.00  0.00    +0.014 A 
ATOM      5  C   UNL     1       3.142   3.290  -3.015  0.00  0.00    -0.043 A 
ATOM      6  C   UNL     1       3.548   3.832  -1.796  0.00  0.00    -0.042 A 
ATOM      7  C   UNL     1       3.439   3.111  -0.642  0.00  0.00    +0.030 A 
ATOM      8  C   UNL     1       2.916   1.809  -0.671  0.00  0.00    +0.048 A 
ATOM      9  C   UNL     1       2.309  -0.137   0.425  0.00  0.00    +0.104 A 
ATOM     10  C   UNL     1       4.074   5.235  -2.016  0.00  0.00    +0.036 C 
ATOM     11  C   UNL     1       4.360   5.329  -3.529  0.00  0.00    +0.009 C 
ATOM     12  C   UNL     1       3.374   4.300  -4.121  0.00  0.00    +0.036 C 
ATOM     13  N   UNL     1       2.825   1.115   0.515  0.00  0.00    -0.343 N 
ATOM     14  H   UNL     1       3.127   1.518   1.409  0.00  0.00    +0.167 HD
ENDROOT
BRANCH   9  15
ATOM     15  N   UNL     1       2.210  -0.850   1.610  0.00  0.00    -0.312 N 
ATOM     16  C   UNL     1       1.234  -0.229   2.518  0.00  0.00    +0.134 C 
ATOM     17  C   UNL     1       1.113  -1.079   3.786  0.00  0.00    +0.178 C 
ATOM     18  O   UNL     1       2.403  -1.214   4.388  0.00  0.00    -0.377 OA
ATOM     19  C   UNL     1       3.378  -1.815   3.532  0.00  0.00    +0.178 C 
ATOM     20  C   UNL     1       3.522  -0.973   2.262  0.00  0.00    +0.134 C 
ENDBRANCH   9  15
BRANCH   1  21
ATOM     21  C   UNL     1       1.322  -2.132  -0.758  0.00  0.00    +0.146 C 
BRANCH  21  24
ATOM     22  C   UNL     1       1.601  -2.886  -3.058  0.00  0.00    +0.218 C 
ATOM     23  O   UNL     1       2.788  -3.010  -2.842  0.00  0.00    -0.276 OA
ATOM     24  N   UNL     1       0.781  -2.453  -2.081  0.00  0.00    -0.295 N 
BRANCH  22  25
ATOM     25  C   UNL     1       1.044  -3.216  -4.419  0.00  0.00    +0.119 C 
BRANCH  25  26
ATOM     26  C   UNL     1       2.178  -3.681  -5.335  0.00  0.00    +0.153 C 
BRANCH  26  31
ATOM     27  C   UNL     1       0.176  -6.255  -9.151  0.00  0.00    +0.067 C 
ATOM     28  C   UNL     1       0.760  -5.147  -8.314  0.00  0.00    +0.060 A 
ATOM     29  C   UNL     1       0.969  -3.828  -8.729  0.00  0.00    +0.047 A 
ATOM     30  C   UNL     1       1.508  -3.145  -7.693  0.00  0.00    +0.036 A 
ATOM     31  N   UNL     1       1.636  -4.002  -6.658  0.00  0.00    -0.268 N 
ATOM     32  N   UNL     1       1.165  -5.254  -7.074  0.00  0.00    -0.176 NA
ATOM     33  C   UNL     1       1.896  -1.689  -7.693  0.00  0.00    +0.065 C 
ENDBRANCH  26  31
ENDBRANCH  25  26
ENDBRANCH  22  25
BRANCH  24  34
ATOM     34  C   UNL     1      -0.653  -2.302  -2.341  0.00  0.00    +0.139 C 
BRANCH  34  35
ATOM     35  C   UNL     1      -0.959  -0.843  -2.684  0.00  0.00    +0.136 C 
ATOM     36  C   UNL     1      -2.427  -0.706  -3.132  0.00  0.00    +0.035 C 
ATOM     37  C   UNL     1      -3.037   0.307  -2.134  0.00  0.00    +0.031 C 
ATOM     38  C   UNL     1      -1.776   1.031  -1.596  0.00  0.00    +0.160 C 
ATOM     39  O   UNL     1      -0.791  -0.021  -1.516  0.00  0.00    -0.375 OA
ENDBRANCH  34  35
ENDBRANCH  24  34
ENDBRANCH  21  24
ENDBRANCH   1  21
TORSDOF 8
