REMARK  Name = ZINC37012195
REMARK  5 active torsions:
REMARK  status: ('A' for Active; 'I' for Inactive)
REMARK    1  A    between atoms: C_4  and  S_18
REMARK    2  A    between atoms: C_5  and  N_7
REMARK    3  A    between atoms: C_8  and  C_10
REMARK    4  A    between atoms: C_13  and  O_17
REMARK    5  A    between atoms: S_18  and  C_19
REMARK                            x       y       z     vdW  Elec       q    Type
REMARK                         _______ _______ _______ _____ _____    ______ ____
ROOT
ATOM      1  N   UNL     1       1.233  -2.082  -0.021  0.00  0.00    -0.286 N 
ATOM      2  C   UNL     1       0.082  -2.774   0.088  0.00  0.00    +0.203 C 
ATOM      3  O   UNL     1      -0.980  -2.187   0.102  0.00  0.00    -0.277 OA
ATOM      4  H   UNL     1       2.076  -2.554  -0.113  0.00  0.00    +0.155 HD
ENDROOT
BRANCH   2   5
ATOM      5  C   UNL     1       0.113  -4.277   0.194  0.00  0.00    +0.019 C 
ATOM      6  C   UNL     1       0.243  -4.921  -1.210  0.00  0.00    +0.023 C 
ATOM      7  C   UNL     1      -0.355  -6.331  -1.000  0.00  0.00    +0.097 C 
ATOM      8  C   UNL     1      -1.255  -6.205   0.243  0.00  0.00    -0.050 C 
ATOM      9  N   UNL     1      -1.187  -4.795   0.690  0.00  0.00    +0.388 N 
ATOM     10  H   UNL     1      -1.220  -4.745   1.697  0.00  0.00    -0.085 HD
ATOM     11  H   UNL     1      -1.948  -4.268   0.289  0.00  0.00    -0.085 HD
BRANCH   7  12
ATOM     12  O   UNL     1       0.686  -7.282  -0.767  0.00  0.00    -0.394 OA
ATOM     13  H   UNL     1       0.370  -8.185  -0.628  0.00  0.00    +0.210 HD
ENDBRANCH   7  12
ENDBRANCH   2   5
BRANCH   1  18
ATOM     14  C   UNL     1       0.153   1.373   0.636  0.00  0.00    +0.002 A 
ATOM     15  C   UNL     1       1.172   2.090   0.036  0.00  0.00    +0.001 A 
ATOM     16  C   UNL     1       2.215   1.429  -0.586  0.00  0.00    +0.017 A 
ATOM     17  C   UNL     1       2.241   0.042  -0.608  0.00  0.00    +0.037 A 
ATOM     18  C   UNL     1       1.213  -0.681  -0.002  0.00  0.00    +0.047 A 
ATOM     19  C   UNL     1       0.171  -0.009   0.619  0.00  0.00    +0.024 A 
BRANCH  17  20
ATOM     20  S   UNL     1       3.568  -0.804  -1.400  0.00  0.00    -0.014 S 
BRANCH  20  21
ATOM     21  C   UNL     1       4.629   0.529  -2.023  0.00  0.00    +0.448 C 
ATOM     22  F   UNL     1       5.069   1.314  -0.952  0.00  0.00    -0.160 F 
ATOM     23  F   UNL     1       5.733  -0.023  -2.682  0.00  0.00    -0.160 F 
ATOM     24  F   UNL     1       3.902   1.323  -2.917  0.00  0.00    -0.160 F 
ENDBRANCH  20  21
ENDBRANCH  17  20
ENDBRANCH   1  18
TORSDOF 5
