REMARK  Name = ZINC61790081
REMARK  8 active torsions:
REMARK  status: ('A' for Active; 'I' for Inactive)
REMARK    1  A    between atoms: C_1  and  C_2
REMARK    2  A    between atoms: C_2  and  N_3
REMARK    3  A    between atoms: C_4  and  C_6
REMARK    4  A    between atoms: C_6  and  C_7
REMARK    5  A    between atoms: C_6  and  N_8
REMARK    6  A    between atoms: N_11  and  C_12
REMARK    7  A    between atoms: C_17  and  C_18
REMARK    8  A    between atoms: C_18  and  N_19
REMARK                            x       y       z     vdW  Elec       q    Type
REMARK                         _______ _______ _______ _____ _____    ______ ____
ROOT
ATOM      1  N   UNL     1      -2.129  -4.103   0.646  0.00  0.00    -0.288 N 
ATOM      2  C   UNL     1      -3.274  -4.673   1.069  0.00  0.00    +0.304 C 
ATOM      3  O   UNL     1      -3.944  -4.130   1.926  0.00  0.00    -0.252 OA
ATOM      4  N   UNL     1      -3.677  -5.847   0.543  0.00  0.00    -0.269 N 
ATOM      5  H   UNL     1      -1.595  -4.537  -0.038  0.00  0.00    +0.151 HD
ATOM      6  H   UNL     1      -3.182  -6.246  -0.188  0.00  0.00    +0.156 HD
ENDROOT
BRANCH   4   7
ATOM      7  C   UNL     1      -4.811  -6.490   1.053  0.00  0.00    +0.036 A 
ATOM      8  C   UNL     1      -5.883  -5.742   1.523  0.00  0.00    +0.023 A 
ATOM      9  C   UNL     1      -7.001  -6.379   2.025  0.00  0.00    +0.002 A 
ATOM     10  C   UNL     1      -7.053  -7.760   2.061  0.00  0.00    +0.000 A 
ATOM     11  C   UNL     1      -5.987  -8.508   1.594  0.00  0.00    +0.003 A 
ATOM     12  C   UNL     1      -4.869  -7.877   1.085  0.00  0.00    -0.043 A 
BRANCH  12  13
ATOM     13  C   UNL     1      -3.711  -8.692   0.572  0.00  0.00    -0.041 C 
BRANCH  13  14
ATOM     14  N   UNL     1      -2.639  -8.708   1.577  0.00  0.00    +0.383 N 
ATOM     15  C   UNL     1      -1.449  -9.336   0.999  0.00  0.00    -0.068 C 
ATOM     16  C   UNL     1      -0.226  -9.035   1.873  0.00  0.00    +0.050 C 
ATOM     17  S   UNL     1      -0.507  -9.762   3.518  0.00  0.00    -0.164 S 
ATOM     18  C   UNL     1      -2.169  -9.153   3.943  0.00  0.00    +0.050 C 
ATOM     19  C   UNL     1      -3.102  -9.436   2.760  0.00  0.00    -0.068 C 
ATOM     20  H   UNL     1      -2.418  -7.759   1.838  0.00  0.00    -0.081 HD
ENDBRANCH  13  14
ENDBRANCH  12  13
ENDBRANCH   4   7
BRANCH   1  21
ATOM     21  C   UNL     1      -1.691  -2.827   1.217  0.00  0.00    +0.157 C 
ATOM     22  C   UNL     1      -2.369  -1.675   0.473  0.00  0.00    +0.038 C 
BRANCH  21  24
ATOM     23  N   UNL     1       0.434  -1.603   1.540  0.00  0.00    -0.314 N 
ATOM     24  C   UNL     1      -0.196  -2.702   1.081  0.00  0.00    +0.233 C 
ATOM     25  O   UNL     1       0.442  -3.592   0.557  0.00  0.00    -0.274 OA
ATOM     26  H   UNL     1      -0.076  -0.891   1.959  0.00  0.00    +0.149 HD
BRANCH  23  28
ATOM     27  C   UNL     1       2.345  -0.149   2.005  0.00  0.00    +0.024 C 
ATOM     28  C   UNL     1       1.888  -1.482   1.407  0.00  0.00    +0.101 C 
ENDBRANCH  23  28
ENDBRANCH  21  24
ENDBRANCH   1  21
TORSDOF 6
