REMARK  Name = ZINC43401788
REMARK  4 active torsions:
REMARK  status: ('A' for Active; 'I' for Inactive)
REMARK    1  A    between atoms: C_1  and  C_2
REMARK    2  A    between atoms: C_5  and  C_19
REMARK    3  A    between atoms: C_6  and  S_8
REMARK    4  A    between atoms: S_8  and  C_9
REMARK                            x       y       z     vdW  Elec       q    Type
REMARK                         _______ _______ _______ _____ _____    ______ ____
ROOT
ATOM      1  C   UNL     1       0.097   1.489   0.217  0.00  0.00    +0.065 C 
ATOM      2  C   UNL     1       0.070  -0.016   0.157  0.00  0.00    +0.040 A 
ATOM      3  C   UNL     1      -0.152  -0.644  -1.057  0.00  0.00    +0.024 A 
ATOM      4  C   UNL     1      -0.177  -2.026  -1.115  0.00  0.00    +0.015 A 
ATOM      5  C   UNL     1       0.025  -2.745   0.068  0.00  0.00    +0.044 A 
ATOM      6  C   UNL     1       0.243  -2.037   1.261  0.00  0.00    +0.112 A 
ATOM      7  N   UNL     1       0.262  -0.712   1.260  0.00  0.00    -0.245 NA
ENDROOT
BRANCH   5   8
ATOM      8  C   UNL     1       0.007  -4.220   0.062  0.00  0.00    +0.097 C 
ATOM      9  N   UNL     1      -0.837  -4.880   0.857  0.00  0.00    -0.387 N 
ATOM     10  N   UNL     1       0.835  -4.894  -0.737  0.00  0.00    -0.344 N 
ATOM     11  H   UNL     1      -1.424  -4.391   1.453  0.00  0.00    +0.157 HD
ATOM     12  H   UNL     1       1.449  -4.414  -1.314  0.00  0.00    +0.144 HD
ATOM     13  H   UNL     1       0.824  -5.864  -0.740  0.00  0.00    +0.144 HD
ATOM     14  H   UNL     1      -0.863  -5.849   0.838  0.00  0.00    +0.157 HD
ENDBRANCH   5   8
BRANCH   6  15
ATOM     15  S   UNL     1       0.499  -2.915   2.767  0.00  0.00    -0.069 S 
BRANCH  15  16
ATOM     16  C   UNL     1       0.563  -1.650   3.993  0.00  0.00    +0.015 A 
ATOM     17  C   UNL     1       1.780  -1.012   4.268  0.00  0.00    +0.016 A 
ATOM     18  C   UNL     1       1.858  -0.034   5.208  0.00  0.00    +0.009 A 
ATOM     19  C   UNL     1       0.707   0.349   5.918  0.00  0.00    -0.018 A 
ATOM     20  C   UNL     1       0.758   1.358   6.895  0.00  0.00    +0.008 A 
ATOM     21  C   UNL     1      -0.374   1.707   7.565  0.00  0.00    +0.001 A 
ATOM     22  C   UNL     1      -1.589   1.077   7.298  0.00  0.00    +0.001 A 
ATOM     23  C   UNL     1      -1.677   0.097   6.359  0.00  0.00    +0.008 A 
ATOM     24  C   UNL     1      -0.529  -0.290   5.646  0.00  0.00    -0.017 A 
ATOM     25  C   UNL     1      -0.585  -1.294   4.666  0.00  0.00    +0.023 A 
ENDBRANCH  15  16
ENDBRANCH   6  15
TORSDOF 3
