REMARK  Name = ZINC38185597
REMARK  10 active torsions:
REMARK  status: ('A' for Active; 'I' for Inactive)
REMARK    1  A    between atoms: C_1  and  C_2
REMARK    2  A    between atoms: C_4  and  O_36
REMARK    3  A    between atoms: C_6  and  O_35
REMARK    4  A    between atoms: C_8  and  O_34
REMARK    5  A    between atoms: C_10  and  O_13
REMARK    6  A    between atoms: O_13  and  C_14
REMARK    7  A    between atoms: C_18  and  O_33
REMARK    8  A    between atoms: C_20  and  O_32
REMARK    9  A    between atoms: C_24  and  C_25
REMARK   10  A    between atoms: C_28  and  O_31
REMARK                            x       y       z     vdW  Elec       q    Type
REMARK                         _______ _______ _______ _____ _____    ______ ____
ROOT
ATOM      1  C   UNL     1      -1.401  -2.185   2.359  0.00  0.00    +0.214 A 
ATOM      2  C   UNL     1      -2.703  -2.750   2.398  0.00  0.00    +0.238 A 
ATOM      3  O   UNL     1      -3.059  -3.579   1.576  0.00  0.00    -0.283 OA
ATOM      4  C   UNL     1      -3.606  -2.297   3.468  0.00  0.00    +0.109 A 
ATOM      5  C   UNL     1      -4.907  -2.803   3.582  0.00  0.00    +0.135 A 
ATOM      6  C   UNL     1      -5.725  -2.353   4.602  0.00  0.00    +0.091 A 
ATOM      7  C   UNL     1      -5.258  -1.405   5.506  0.00  0.00    +0.124 A 
ATOM      8  C   UNL     1      -3.971  -0.900   5.399  0.00  0.00    +0.092 A 
ATOM      9  C   UNL     1      -3.135  -1.340   4.384  0.00  0.00    +0.147 A 
ATOM     10  O   UNL     1      -1.880  -0.859   4.267  0.00  0.00    -0.451 OA
ATOM     11  C   UNL     1      -1.042  -1.266   3.298  0.00  0.00    +0.181 A 
ENDROOT
BRANCH  11  12
ATOM     12  C   UNL     1       0.316  -0.693   3.247  0.00  0.00    +0.021 A 
ATOM     13  C   UNL     1       0.816  -0.180   2.046  0.00  0.00    +0.015 A 
ATOM     14  C   UNL     1       2.084   0.355   2.003  0.00  0.00    +0.046 A 
ATOM     15  C   UNL     1       2.867   0.386   3.150  0.00  0.00    +0.117 A 
ATOM     16  C   UNL     1       2.374  -0.122   4.346  0.00  0.00    +0.046 A 
ATOM     17  C   UNL     1       1.105  -0.654   4.400  0.00  0.00    +0.015 A 
BRANCH  15  18
ATOM     18  O   UNL     1       4.117   0.913   3.103  0.00  0.00    -0.507 OA
ATOM     19  H   UNL     1       4.152   1.861   3.292  0.00  0.00    +0.292 HD
ENDBRANCH  15  18
ENDBRANCH  11  12
BRANCH   7  20
ATOM     20  O   UNL     1      -6.069  -0.969   6.503  0.00  0.00    -0.507 OA
ATOM     21  H   UNL     1      -6.008  -1.489   7.316  0.00  0.00    +0.292 HD
ENDBRANCH   7  20
BRANCH   5  22
ATOM     22  O   UNL     1      -5.362  -3.727   2.699  0.00  0.00    -0.506 OA
ATOM     23  H   UNL     1      -5.197  -4.641   2.966  0.00  0.00    +0.292 HD
ENDBRANCH   5  22
BRANCH   1  24
ATOM     24  O   UNL     1      -0.518  -2.562   1.394  0.00  0.00    -0.453 OA
BRANCH  24  30
ATOM     25  C   UNL     1       2.880  -3.690   3.583  0.00  0.00    +0.041 C 
ATOM     26  C   UNL     1       1.984  -3.370   2.385  0.00  0.00    +0.150 C 
ATOM     27  C   UNL     1       2.739  -3.670   1.087  0.00  0.00    +0.174 C 
ATOM     28  C   UNL     1       1.815  -3.405  -0.105  0.00  0.00    +0.180 C 
ATOM     29  C   UNL     1       0.551  -4.257   0.043  0.00  0.00    +0.214 C 
ATOM     30  C   UNL     1      -0.120  -3.934   1.380  0.00  0.00    +0.339 C 
ATOM     31  O   UNL     1       0.803  -4.173   2.445  0.00  0.00    -0.334 OA
BRANCH  29  32
ATOM     32  O   UNL     1      -0.350  -3.965  -1.028  0.00  0.00    -0.383 OA
ATOM     33  H   UNL     1      -1.174  -4.470  -0.997  0.00  0.00    +0.210 HD
ENDBRANCH  29  32
BRANCH  28  34
ATOM     34  O   UNL     1       1.459  -2.021  -0.136  0.00  0.00    -0.386 OA
ATOM     35  H   UNL     1       0.874  -1.781  -0.867  0.00  0.00    +0.210 HD
ENDBRANCH  28  34
BRANCH  27  36
ATOM     36  O   UNL     1       3.889  -2.828   0.999  0.00  0.00    -0.387 OA
ATOM     37  H   UNL     1       4.516  -2.940   1.726  0.00  0.00    +0.210 HD
ENDBRANCH  27  36
ENDBRANCH  24  30
ENDBRANCH   1  24
TORSDOF 9
