REMARK  Name = ZINC09955592
REMARK  10 active torsions:
REMARK  status: ('A' for Active; 'I' for Inactive)
REMARK    1  A    between atoms: C_1  and  C_2
REMARK    2  A    between atoms: C_5  and  S_8
REMARK    3  A    between atoms: S_8  and  N_11
REMARK    4  A    between atoms: C_14  and  C_17
REMARK    5  A    between atoms: N_19  and  C_20
REMARK    6  A    between atoms: C_20  and  C_21
REMARK    7  A    between atoms: C_21  and  C_23
REMARK    8  A    between atoms: C_21  and  N_72
REMARK    9  A    between atoms: C_26  and  O_29
REMARK   10  A    between atoms: O_29  and  C_30
REMARK                            x       y       z     vdW  Elec       q    Type
REMARK                         _______ _______ _______ _____ _____    ______ ____
ROOT
ATOM      1  C   UNL     1      -0.018   1.215  -0.222  0.00  0.00    +0.216 C 
ATOM      2  O   UNL     1      -0.003   0.017  -0.411  0.00  0.00    -0.276 OA
ATOM      3  N   UNL     1       1.141   1.891  -0.093  0.00  0.00    -0.316 N 
ATOM      4  H   UNL     1       1.128   2.849   0.058  0.00  0.00    +0.149 HD
ENDROOT
BRANCH   1   8
ATOM      5  N   UNL     1      -3.875   2.476   0.985  0.00  0.00    -0.177 NA
ATOM      6  C   UNL     1      -3.815   1.708  -0.266  0.00  0.00    +0.110 C 
ATOM      7  C   UNL     1      -2.482   0.955  -0.320  0.00  0.00    +0.030 C 
ATOM      8  C   UNL     1      -1.332   1.947  -0.136  0.00  0.00    +0.077 C 
ATOM      9  C   UNL     1      -1.452   2.622   1.233  0.00  0.00    +0.030 C 
ATOM     10  C   UNL     1      -2.773   3.394   1.304  0.00  0.00    +0.110 C 
BRANCH   5  11
ATOM     11  S   UNL     1      -5.160   2.310   2.016  0.00  0.00    +0.061 S 
ATOM     12  O   UNL     1      -5.224   3.507   2.780  0.00  0.00    -0.153 OA
ATOM     13  O   UNL     1      -6.251   1.847   1.233  0.00  0.00    -0.153 OA
BRANCH  11  18
ATOM     14  C   UNL     1      -3.795  -2.126   5.871  0.00  0.00    +0.044 C 
ATOM     15  C   UNL     1      -4.136  -1.018   4.908  0.00  0.00    -0.050 A 
ATOM     16  C   UNL     1      -3.798   0.288   5.210  0.00  0.00    +0.005 A 
ATOM     17  C   UNL     1      -4.111   1.304   4.327  0.00  0.00    +0.029 A 
ATOM     18  C   UNL     1      -4.761   1.015   3.142  0.00  0.00    +0.105 A 
ATOM     19  C   UNL     1      -5.103  -0.291   2.842  0.00  0.00    +0.029 A 
ATOM     20  C   UNL     1      -4.787  -1.308   3.723  0.00  0.00    +0.005 A 
ENDBRANCH  11  18
ENDBRANCH   5  11
ENDBRANCH   1   8
BRANCH   3  21
ATOM     21  C   UNL     1       2.418   1.180  -0.183  0.00  0.00    +0.093 C 
BRANCH  21  22
ATOM     22  C   UNL     1       3.567   2.189  -0.146  0.00  0.00    -0.020 C 
BRANCH  22  28
ATOM     23  C   UNL     1       4.943   0.536   0.966  0.00  0.00    -0.078 C 
ATOM     24  C   UNL     1       6.222  -0.294   0.836  0.00  0.00    -0.019 C 
ATOM     25  C   UNL     1       7.434   0.642   0.823  0.00  0.00    -0.004 C 
ATOM     26  C   UNL     1       7.288   1.637  -0.331  0.00  0.00    -0.019 C 
ATOM     27  C   UNL     1       5.978   2.412  -0.168  0.00  0.00    -0.078 C 
ATOM     28  N   UNL     1       4.850   1.456  -0.188  0.00  0.00    +0.385 N 
ATOM     29  H   UNL     1       4.893   0.908  -1.055  0.00  0.00    -0.081 HD
ENDBRANCH  22  28
BRANCH  22  30
ATOM     30  C   UNL     1       3.482   3.092  -1.349  0.00  0.00    -0.059 A 
ATOM     31  C   UNL     1       3.955   2.657  -2.574  0.00  0.00    +0.005 A 
ATOM     32  C   UNL     1       3.872   3.481  -3.680  0.00  0.00    +0.046 A 
ATOM     33  C   UNL     1       3.325   4.750  -3.559  0.00  0.00    +0.120 A 
ATOM     34  C   UNL     1       2.856   5.186  -2.328  0.00  0.00    +0.046 A 
ATOM     35  C   UNL     1       2.935   4.356  -1.226  0.00  0.00    +0.005 A 
BRANCH  33  36
ATOM     36  O   UNL     1       3.248   5.564  -4.644  0.00  0.00    -0.495 OA
ATOM     37  C   UNL     1       3.751   5.049  -5.879  0.00  0.00    +0.277 C 
ENDBRANCH  33  36
ENDBRANCH  22  30
ENDBRANCH  21  22
ENDBRANCH   3  21
TORSDOF 8
