REMARK  Name = ZINC45118717
REMARK  9 active torsions:
REMARK  status: ('A' for Active; 'I' for Inactive)
REMARK    1  A    between atoms: C_1  and  C_2
REMARK    2  A    between atoms: C_2  and  C_3
REMARK    3  A    between atoms: C_2  and  N_4
REMARK    4  A    between atoms: C_7  and  C_10
REMARK    5  A    between atoms: C_10  and  N_11
REMARK    6  A    between atoms: N_11  and  C_12
REMARK    7  A    between atoms: C_14  and  N_22
REMARK    8  A    between atoms: C_16  and  S_18
REMARK    9  A    between atoms: S_18  and  N_21
REMARK                            x       y       z     vdW  Elec       q    Type
REMARK                         _______ _______ _______ _____ _____    ______ ____
ROOT
ATOM      1  C   UNL     1      -5.629  -2.280  -3.907  0.00  0.00    +0.031 A 
ATOM      2  C   UNL     1      -6.478  -1.185  -3.824  0.00  0.00    +0.045 A 
ATOM      3  C   UNL     1      -7.721  -1.227  -4.440  0.00  0.00    +0.028 A 
ATOM      4  C   UNL     1      -8.110  -2.363  -5.140  0.00  0.00    +0.051 A 
ATOM      5  C   UNL     1      -7.262  -3.450  -5.221  0.00  0.00    +0.108 A 
ATOM      6  C   UNL     1      -6.022  -3.410  -4.612  0.00  0.00    +0.051 A 
ENDROOT
BRANCH   5   7
ATOM      7  S   UNL     1      -7.759  -4.889  -6.108  0.00  0.00    +0.056 S 
ATOM      8  O   UNL     1      -7.011  -5.973  -5.576  0.00  0.00    -0.153 OA
ATOM      9  O   UNL     1      -9.180  -4.882  -6.129  0.00  0.00    -0.153 OA
BRANCH   7  10
ATOM     10  N   UNL     1      -7.262  -4.694  -7.675  0.00  0.00    -0.204 NA
ATOM     11  H   UNL     1      -6.789  -3.889  -7.938  0.00  0.00    +0.144 HD
ATOM     12  H   UNL     1      -7.442  -5.386  -8.331  0.00  0.00    +0.144 HD
ENDBRANCH   7  10
ENDBRANCH   5   7
BRANCH   3  13
ATOM     13  N   UNL     1      -8.579  -0.128  -4.359  0.00  0.00    -0.358 N 
ATOM     14  H   UNL     1      -8.307   0.665  -3.870  0.00  0.00    +0.142 HD
ATOM     15  H   UNL     1      -9.447  -0.157  -4.790  0.00  0.00    +0.142 HD
ENDBRANCH   3  13
BRANCH   1  16
ATOM     16  N   UNL     1      -4.378  -2.242  -3.287  0.00  0.00    -0.344 N 
ATOM     17  H   UNL     1      -3.783  -3.006  -3.349  0.00  0.00    +0.146 HD
BRANCH  16  18
ATOM     18  C   UNL     1      -3.964  -1.049  -2.544  0.00  0.00    +0.103 C 
BRANCH  18  22
ATOM     19  N   UNL     1      -1.376  -0.512   0.012  0.00  0.00    +0.381 N 
ATOM     20  C   UNL     1      -1.361  -1.991  -0.017  0.00  0.00    -0.078 C 
ATOM     21  C   UNL     1      -2.580  -2.381  -0.889  0.00  0.00    -0.015 C 
ATOM     22  C   UNL     1      -2.563  -1.267  -1.969  0.00  0.00    -0.012 C 
ATOM     23  C   UNL     1      -2.093  -0.026  -1.181  0.00  0.00    -0.074 C 
ATOM     24  H   UNL     1      -1.849  -0.196   0.846  0.00  0.00    -0.081 HD
BRANCH  19  26
ATOM     25  C   UNL     1      -0.019   1.526   0.010  0.00  0.00    -0.014 C 
ATOM     26  C   UNL     1       0.002  -0.004   0.002  0.00  0.00    -0.075 C 
ATOM     27  C   UNL     1       0.742  -0.511   1.242  0.00  0.00    -0.014 C 
ENDBRANCH  19  26
ENDBRANCH  18  22
ENDBRANCH  16  18
ENDBRANCH   1  16
TORSDOF 7
