REMARK  Name = ZINC12372796
REMARK  7 active torsions:
REMARK  status: ('A' for Active; 'I' for Inactive)
REMARK    1  A    between atoms: C_4  and  C_7
REMARK    2  A    between atoms: C_7  and  N_8
REMARK    3  A    between atoms: C_12  and  C_15
REMARK    4  A    between atoms: C_12  and  O_23
REMARK    5  A    between atoms: C_15  and  N_57
REMARK    6  A    between atoms: C_16  and  N_57
REMARK    7  A    between atoms: C_19  and  O_22
REMARK                            x       y       z     vdW  Elec       q    Type
REMARK                         _______ _______ _______ _____ _____    ______ ____
ROOT
ATOM      1  N   UNL     1      -0.644   3.869   2.264  0.00  0.00    -0.299 N 
ATOM      2  C   UNL     1      -0.219   3.395   3.575  0.00  0.00    +0.108 C 
ATOM      3  C   UNL     1      -0.503   1.899   3.721  0.00  0.00    +0.022 C 
ATOM      4  C   UNL     1       0.075   1.168   2.503  0.00  0.00    +0.044 C 
ATOM      5  C   UNL     1      -0.729   1.579   1.267  0.00  0.00    +0.127 C 
ATOM      6  C   UNL     1      -0.857   3.075   1.214  0.00  0.00    +0.245 C 
ATOM      7  O   UNL     1      -1.170   3.587   0.161  0.00  0.00    -0.273 OA
ENDROOT
BRANCH   5   8
ATOM      8  O   UNL     1      -2.031   0.994   1.333  0.00  0.00    -0.381 OA
ATOM      9  H   UNL     1      -2.597   1.208   0.579  0.00  0.00    +0.211 HD
ENDBRANCH   5   8
BRANCH   1  10
ATOM     10  C   UNL     1      -0.852   5.309   2.089  0.00  0.00    +0.111 C 
BRANCH  10  14
ATOM     11  C   UNL     1      -4.873   6.856   1.679  0.00  0.00    +0.000 C 
ATOM     12  C   UNL     1      -3.942   7.526   2.692  0.00  0.00    +0.000 C 
ATOM     13  C   UNL     1      -2.490   7.176   2.360  0.00  0.00    +0.005 C 
ATOM     14  C   UNL     1      -2.304   5.658   2.421  0.00  0.00    +0.006 C 
ATOM     15  C   UNL     1      -3.235   4.989   1.408  0.00  0.00    +0.005 C 
ATOM     16  C   UNL     1      -4.687   5.339   1.741  0.00  0.00    +0.000 C 
ENDBRANCH  10  14
ENDBRANCH   1  10
BRANCH   5  17
ATOM     17  C   UNL     1      -0.013   1.086   0.008  0.00  0.00    -0.037 C 
BRANCH  17  18
ATOM     18  N   UNL     1      -0.732   1.579  -1.182  0.00  0.00    +0.383 N 
ATOM     19  H   UNL     1      -0.746   2.605  -1.168  0.00  0.00    -0.085 HD
ATOM     20  H   UNL     1      -1.695   1.223  -1.167  0.00  0.00    -0.085 HD
BRANCH  18  21
ATOM     21  C   UNL     1      -0.062   1.117  -2.413  0.00  0.00    -0.072 C 
ATOM     22  C   UNL     1       1.067   2.084  -2.772  0.00  0.00    -0.013 C 
ATOM     23  C   UNL     1       1.756   1.610  -4.054  0.00  0.00    +0.030 C 
ATOM     24  C   UNL     1       0.737   1.569  -5.195  0.00  0.00    +0.114 C 
ATOM     25  C   UNL     1      -0.393   0.602  -4.835  0.00  0.00    +0.030 C 
ATOM     26  C   UNL     1      -1.081   1.076  -3.553  0.00  0.00    -0.013 C 
BRANCH  24  27
ATOM     27  O   UNL     1       1.380   1.126  -6.392  0.00  0.00    -0.392 OA
ATOM     28  H   UNL     1       2.108   1.693  -6.680  0.00  0.00    +0.210 HD
ENDBRANCH  24  27
ENDBRANCH  18  21
ENDBRANCH  17  18
ENDBRANCH   5  17
TORSDOF 7
