REMARK  Name = ZINC39685815
REMARK  12 active torsions:
REMARK  status: ('A' for Active; 'I' for Inactive)
REMARK    1  A    between atoms: C_1  and  C_2
REMARK    2  A    between atoms: C_2  and  C_3
REMARK    3  A    between atoms: C_2  and  C_4
REMARK    4  A    between atoms: C_4  and  C_6
REMARK    5  A    between atoms: C_4  and  N_13
REMARK    6  A    between atoms: N_8  and  C_9
REMARK    7  A    between atoms: C_9  and  C_10
REMARK    8  A    between atoms: C_9  and  C_11
REMARK    9  A    between atoms: C_9  and  C_12
REMARK   10  A    between atoms: C_14  and  C_16
REMARK   11  A    between atoms: C_27  and  C_29
REMARK   12  A    between atoms: N_33  and  C_34
REMARK                            x       y       z     vdW  Elec       q    Type
REMARK                         _______ _______ _______ _____ _____    ______ ____
ROOT
ATOM      1  C   UNL     1      -0.291  -4.435   1.238  0.00  0.00    +0.100 C 
ATOM      2  C   UNL     1       1.165  -4.518   0.730  0.00  0.00    +0.121 C 
ATOM      3  N   UNL     1       1.980  -3.965   1.837  0.00  0.00    -0.295 N 
ATOM      4  C   UNL     1       1.337  -4.489   3.066  0.00  0.00    +0.115 C 
ATOM      5  C   UNL     1      -0.175  -4.419   2.771  0.00  0.00    -0.004 C 
ATOM      6  C   UNL     1      -0.762  -3.128   3.332  0.00  0.00    -0.010 C 
ATOM      7  C   UNL     1      -0.686  -3.161   4.862  0.00  0.00    -0.082 C 
ATOM      8  N   UNL     1      -1.432  -4.320   5.365  0.00  0.00    +0.379 N 
ATOM      9  C   UNL     1      -0.805  -5.562   4.896  0.00  0.00    -0.082 C 
ATOM     10  C   UNL     1      -0.885  -5.630   3.368  0.00  0.00    -0.010 C 
ATOM     11  C   UNL     1       3.062  -3.166   1.748  0.00  0.00    +0.263 C 
ATOM     12  O   UNL     1       3.729  -2.932   2.738  0.00  0.00    -0.268 OA
ATOM     13  H   UNL     1      -1.432  -4.306   6.374  0.00  0.00    -0.086 HD
ATOM     14  H   UNL     1      -2.383  -4.278   5.031  0.00  0.00    -0.086 HD
ENDROOT
BRANCH  11  15
ATOM     15  C   UNL     1       3.434  -2.578   0.456  0.00  0.00    +0.104 A 
ATOM     16  C   UNL     1       2.621  -2.461  -0.651  0.00  0.00    +0.032 A 
ATOM     17  C   UNL     1       3.377  -1.845  -1.653  0.00  0.00    +0.020 A 
ATOM     18  C   UNL     1       4.611  -1.600  -1.151  0.00  0.00    +0.086 A 
ATOM     19  N   UNL     1       4.657  -2.036   0.132  0.00  0.00    -0.346 N 
ATOM     20  C   UNL     1       5.817  -1.948   1.023  0.00  0.00    +0.149 C 
ENDBRANCH  11  15
BRANCH   1  22
ATOM     21  N   UNL     1      -2.283  -3.123   0.578  0.00  0.00    -0.303 N 
ATOM     22  C   UNL     1      -0.946  -3.169   0.748  0.00  0.00    +0.219 C 
ATOM     23  O   UNL     1      -0.271  -2.191   0.507  0.00  0.00    -0.275 OA
ATOM     24  H   UNL     1      -2.823  -3.906   0.771  0.00  0.00    +0.149 HD
BRANCH  21  25
ATOM     25  C   UNL     1      -2.919  -1.893   0.103  0.00  0.00    +0.161 C 
BRANCH  25  26
ATOM     26  C   UNL     1      -4.354  -1.860   0.561  0.00  0.00    +0.234 C 
ATOM     27  O   UNL     1      -4.890  -2.876   0.949  0.00  0.00    -0.274 OA
ATOM     28  N   UNL     1      -5.042  -0.701   0.539  0.00  0.00    -0.309 N 
ATOM     29  H   UNL     1      -4.594   0.124   0.297  0.00  0.00    +0.149 HD
BRANCH  28  30
ATOM     30  C   UNL     1      -6.467  -0.689   0.881  0.00  0.00    +0.026 C 
ATOM     31  C   UNL     1      -6.653  -1.202   2.310  0.00  0.00    +0.031 C 
ATOM     32  C   UNL     1      -7.003   0.741   0.778  0.00  0.00    +0.031 C 
ATOM     33  C   UNL     1      -7.232  -1.591  -0.089  0.00  0.00    +0.031 C 
ENDBRANCH  28  30
ENDBRANCH  25  26
BRANCH  25  35
ATOM     34  C   UNL     1      -1.413  -1.836  -1.890  0.00  0.00    +0.009 C 
ATOM     35  C   UNL     1      -2.871  -1.852  -1.426  0.00  0.00    +0.012 C 
ATOM     36  C   UNL     1      -3.573  -3.088  -1.992  0.00  0.00    +0.009 C 
ENDBRANCH  25  35
ENDBRANCH  21  25
ENDBRANCH   1  22
TORSDOF 6
