REMARK  Name = ZINC60386186
REMARK  10 active torsions:
REMARK  status: ('A' for Active; 'I' for Inactive)
REMARK    1  A    between atoms: C_1  and  C_2
REMARK    2  A    between atoms: C_2  and  C_4
REMARK    3  A    between atoms: C_2  and  N_10
REMARK    4  A    between atoms: C_11  and  C_13
REMARK    5  A    between atoms: C_18  and  N_19
REMARK    6  A    between atoms: C_20  and  C_22
REMARK    7  A    between atoms: C_22  and  N_23
REMARK    8  A    between atoms: N_32  and  C_33
REMARK    9  A    between atoms: C_33  and  C_34
REMARK   10  A    between atoms: C_34  and  O_35
REMARK                            x       y       z     vdW  Elec       q    Type
REMARK                         _______ _______ _______ _____ _____    ______ ____
ROOT
ATOM      1  N   UNL     1      -1.224  -0.768   4.790  0.00  0.00    -0.283 N 
ATOM      2  C   UNL     1      -1.864  -0.713   5.974  0.00  0.00    +0.237 C 
ATOM      3  O   UNL     1      -1.258  -0.930   7.002  0.00  0.00    -0.274 OA
ATOM      4  H   UNL     1      -1.693  -0.536   3.973  0.00  0.00    +0.155 HD
ENDROOT
BRANCH   1  10
ATOM      5  C   UNL     1       0.551  -2.038   3.737  0.00  0.00    +0.058 A 
ATOM      6  C   UNL     1       1.894  -2.418   3.692  0.00  0.00    +0.015 A 
ATOM      7  C   UNL     1       2.777  -1.932   4.632  0.00  0.00    +0.001 A 
ATOM      8  C   UNL     1       2.340  -1.067   5.622  0.00  0.00    +0.002 A 
ATOM      9  C   UNL     1       1.015  -0.683   5.679  0.00  0.00    +0.024 A 
ATOM     10  C   UNL     1       0.112  -1.159   4.737  0.00  0.00    +0.046 A 
BRANCH   5  12
ATOM     11  N   UNL     1       0.046  -3.303   1.705  0.00  0.00    -0.305 N 
ATOM     12  C   UNL     1      -0.400  -2.555   2.734  0.00  0.00    +0.246 C 
ATOM     13  O   UNL     1      -1.585  -2.305   2.835  0.00  0.00    -0.270 OA
ATOM     14  H   UNL     1       0.992  -3.502   1.625  0.00  0.00    +0.150 HD
BRANCH  11  16
ATOM     15  C   UNL     1      -1.138  -2.750  -0.362  0.00  0.00    +0.033 C 
ATOM     16  C   UNL     1      -0.898  -3.816   0.709  0.00  0.00    +0.100 C 
BRANCH  16  17
ATOM     17  C   UNL     1      -0.328  -5.054   0.067  0.00  0.00    -0.027 A 
ATOM     18  C   UNL     1       1.019  -5.115  -0.240  0.00  0.00    +0.005 A 
ATOM     19  C   UNL     1       1.542  -6.251  -0.829  0.00  0.00    +0.000 A 
ATOM     20  C   UNL     1       0.719  -7.325  -1.111  0.00  0.00    +0.000 A 
ATOM     21  C   UNL     1      -0.627  -7.264  -0.803  0.00  0.00    +0.000 A 
ATOM     22  C   UNL     1      -1.150  -6.130  -0.210  0.00  0.00    +0.005 A 
ENDBRANCH  16  17
ENDBRANCH  11  16
ENDBRANCH   5  12
ENDBRANCH   1  10
BRANCH   2  23
ATOM     23  C   UNL     1      -3.333  -0.381   6.022  0.00  0.00    +0.221 C 
BRANCH  23  24
ATOM     24  N   UNL     1      -3.789  -0.384   7.414  0.00  0.00    -0.305 N 
ATOM     25  C   UNL     1      -4.287  -1.471   8.114  0.00  0.00    +0.068 A 
ATOM     26  C   UNL     1      -4.512  -2.801   7.791  0.00  0.00    +0.028 A 
ATOM     27  C   UNL     1      -5.035  -3.658   8.737  0.00  0.00    +0.002 A 
ATOM     28  C   UNL     1      -5.338  -3.199  10.011  0.00  0.00    +0.002 A 
ATOM     29  C   UNL     1      -5.121  -1.882  10.348  0.00  0.00    +0.028 A 
ATOM     30  C   UNL     1      -4.592  -1.001   9.401  0.00  0.00    +0.065 A 
ATOM     31  N   UNL     1      -4.274   0.320   9.430  0.00  0.00    -0.327 N 
ATOM     32  C   UNL     1      -3.797   0.683   8.266  0.00  0.00    +0.175 A 
ATOM     33  N   UNL     1      -3.369   1.955   7.947  0.00  0.00    -0.314 N 
ATOM     34  H   UNL     1      -3.030   2.143   7.058  0.00  0.00    +0.149 HD
ATOM     35  H   UNL     1      -4.381   0.904  10.198  0.00  0.00    +0.169 HD
BRANCH  33  36
ATOM     36  C   UNL     1      -3.427   3.021   8.950  0.00  0.00    +0.132 C 
BRANCH  36  37
ATOM     37  C   UNL     1      -2.898   4.322   8.343  0.00  0.00    +0.174 C 
BRANCH  37  38
ATOM     38  O   UNL     1      -3.767   4.745   7.291  0.00  0.00    -0.393 OA
ATOM     39  H   UNL     1      -3.492   5.566   6.860  0.00  0.00    +0.209 HD
ENDBRANCH  37  38
ENDBRANCH  36  37
ENDBRANCH  33  36
ENDBRANCH  23  24
ENDBRANCH   2  23
TORSDOF 9
