REMARK  Name = ZINC40687646
REMARK  6 active torsions:
REMARK  status: ('A' for Active; 'I' for Inactive)
REMARK    1  A    between atoms: C_1  and  C_2
REMARK    2  A    between atoms: C_5  and  O_8
REMARK    3  A    between atoms: O_8  and  C_9
REMARK    4  A    between atoms: C_10  and  N_22
REMARK    5  A    between atoms: C_11  and  N_15
REMARK    6  A    between atoms: N_15  and  C_16
REMARK                            x       y       z     vdW  Elec       q    Type
REMARK                         _______ _______ _______ _____ _____    ______ ____
ROOT
ATOM      1  C   UNL     1       0.204  -4.766   1.173  0.00  0.00    +0.246 A 
ATOM      2  C   UNL     1       0.312  -6.156   1.217  0.00  0.00    +0.128 A 
ATOM      3  C   UNL     1       0.456  -6.767   2.465  0.00  0.00    +0.151 A 
ATOM      4  N   UNL     1       0.484  -6.005   3.556  0.00  0.00    -0.218 NA
ATOM      5  C   UNL     1       0.378  -4.695   3.468  0.00  0.00    +0.227 A 
ATOM      6  N   UNL     1       0.246  -4.080   2.310  0.00  0.00    -0.199 NA
ENDROOT
BRANCH   2   7
ATOM      7  N   UNL     1       0.276  -6.920   0.040  0.00  0.00    -0.351 N 
ATOM      8  H   UNL     1       0.175  -6.481  -0.819  0.00  0.00    +0.143 HD
ATOM      9  H   UNL     1       0.353  -7.885   0.087  0.00  0.00    +0.143 HD
ENDBRANCH   2   7
BRANCH   3  10
ATOM     10  N   UNL     1       0.567  -8.149   2.566  0.00  0.00    -0.298 N 
ATOM     11  H   UNL     1       0.635  -8.690   1.764  0.00  0.00    +0.154 HD
BRANCH  10  12
ATOM     12  C   UNL     1       0.581  -8.757   3.819  0.00  0.00    +0.035 A 
ATOM     13  C   UNL     1      -0.036  -8.153   4.914  0.00  0.00    +0.041 A 
ATOM     14  C   UNL     1       0.000  -8.788   6.138  0.00  0.00    +0.084 A 
ATOM     15  N   UNL     1       0.608  -9.951   6.279  0.00  0.00    -0.367 N 
ATOM     16  C   UNL     1       1.204 -10.554   5.268  0.00  0.00    +0.084 A 
ATOM     17  C   UNL     1       1.207  -9.989   4.010  0.00  0.00    +0.041 A 
ATOM     18  H   UNL     1       0.618 -10.374   7.152  0.00  0.00    +0.165 HD
ENDBRANCH  10  12
ENDBRANCH   3  10
BRANCH   1  19
ATOM     19  O   UNL     1       0.063  -4.124  -0.014  0.00  0.00    -0.436 OA
BRANCH  19  24
ATOM     20  C   UNL     1       0.098   1.508   0.005  0.00  0.00    +0.044 C 
ATOM     21  C   UNL     1       0.089   0.001  -0.000  0.00  0.00    -0.050 A 
ATOM     22  C   UNL     1       1.228  -0.697   0.355  0.00  0.00    +0.007 A 
ATOM     23  C   UNL     1       1.222  -2.079   0.351  0.00  0.00    +0.046 A 
ATOM     24  C   UNL     1       0.071  -2.765  -0.009  0.00  0.00    +0.130 A 
ATOM     25  C   UNL     1      -1.071  -2.062  -0.365  0.00  0.00    +0.046 A 
ATOM     26  C   UNL     1      -1.061  -0.681  -0.355  0.00  0.00    +0.007 A 
ENDBRANCH  19  24
ENDBRANCH   1  19
TORSDOF 5
