REMARK  Name = ZINC40988424
REMARK  10 active torsions:
REMARK  status: ('A' for Active; 'I' for Inactive)
REMARK    1  A    between atoms: C_1  and  C_2
REMARK    2  A    between atoms: C_2  and  N_3
REMARK    3  A    between atoms: N_3  and  C_4
REMARK    4  A    between atoms: N_3  and  C_6
REMARK    5  A    between atoms: C_4  and  C_5
REMARK    6  A    between atoms: C_6  and  C_8
REMARK    7  A    between atoms: C_6  and  C_29
REMARK    8  A    between atoms: C_8  and  N_9
REMARK    9  A    between atoms: C_10  and  C_12
REMARK   10  A    between atoms: N_15  and  C_17
REMARK                            x       y       z     vdW  Elec       q    Type
REMARK                         _______ _______ _______ _____ _____    ______ ____
ROOT
ATOM      1  N   UNL     1       1.537  -2.367   1.080  0.00  0.00    -0.311 N 
ATOM      2  C   UNL     1       0.685  -3.409   1.146  0.00  0.00    +0.264 C 
ATOM      3  O   UNL     1      -0.448  -3.243   1.554  0.00  0.00    -0.268 OA
ATOM      4  H   UNL     1       2.416  -2.484   0.687  0.00  0.00    +0.149 HD
ENDROOT
BRANCH   2   5
ATOM      5  C   UNL     1       1.128  -4.753   0.723  0.00  0.00    +0.150 A 
ATOM      6  C   UNL     1       0.335  -5.910   0.639  0.00  0.00    +0.006 A 
ATOM      7  C   UNL     1       1.161  -6.897   0.211  0.00  0.00    +0.044 A 
ATOM      8  N   UNL     1       2.378  -6.354   0.048  0.00  0.00    -0.263 N 
ATOM      9  N   UNL     1       2.346  -5.101   0.345  0.00  0.00    -0.166 NA
ATOM     10  C   UNL     1       0.721  -8.321  -0.015  0.00  0.00    +0.055 C 
ATOM     11  C   UNL     1      -0.622  -8.530   0.697  0.00  0.00    +0.006 C 
ATOM     12  C   UNL     1      -1.590  -7.410   0.309  0.00  0.00    +0.005 C 
ATOM     13  C   UNL     1      -1.127  -6.090   0.941  0.00  0.00    +0.039 C 
BRANCH   8  14
ATOM     14  C   UNL     1       3.567  -7.079  -0.408  0.00  0.00    +0.130 C 
ATOM     15  C   UNL     1       4.094  -6.435  -1.700  0.00  0.00    +0.051 C 
ATOM     16  C   UNL     1       5.510  -7.010  -1.986  0.00  0.00    +0.168 C 
ATOM     17  S   UNL     1       6.215  -7.033  -0.283  0.00  0.00    -0.029 S 
ATOM     18  O   UNL     1       6.910  -5.815  -0.055  0.00  0.00    -0.174 OA
ATOM     19  O   UNL     1       6.883  -8.269  -0.076  0.00  0.00    -0.174 OA
ATOM     20  C   UNL     1       4.655  -7.022   0.691  0.00  0.00    +0.192 C 
ENDBRANCH   8  14
ENDBRANCH   2   5
BRANCH   1  21
ATOM     21  C   UNL     1       1.135  -1.058   1.601  0.00  0.00    +0.094 C 
BRANCH  21  22
ATOM     22  C   UNL     1       2.218  -0.026   1.277  0.00  0.00    -0.020 C 
BRANCH  22  23
ATOM     23  C   UNL     1       1.751   1.342   1.704  0.00  0.00    -0.059 A 
ATOM     24  C   UNL     1       0.771   1.467   2.670  0.00  0.00    +0.003 A 
ATOM     25  C   UNL     1       0.343   2.722   3.062  0.00  0.00    +0.020 A 
ATOM     26  C   UNL     1       0.896   3.852   2.487  0.00  0.00    +0.041 A 
ATOM     27  C   UNL     1       1.877   3.726   1.520  0.00  0.00    +0.020 A 
ATOM     28  C   UNL     1       2.308   2.471   1.133  0.00  0.00    +0.003 A 
ATOM     29 CL   UNL     1       0.358   5.428   2.978  0.00  0.00    -0.084 Cl
ENDBRANCH  22  23
BRANCH  22  30
ATOM     30  N   UNL     1       2.477  -0.026  -0.169  0.00  0.00    +0.385 N 
ATOM     31  H   UNL     1       2.346  -0.958  -0.534  0.00  0.00    -0.081 HD
BRANCH  30  33
ATOM     32  C   UNL     1       0.107   0.490  -0.507  0.00  0.00    -0.017 C 
ATOM     33  C   UNL     1       1.546   0.895  -0.834  0.00  0.00    -0.081 C 
ENDBRANCH  30  33
BRANCH  30  34
ATOM     34  C   UNL     1       3.858   0.409  -0.419  0.00  0.00    -0.081 C 
ATOM     35  C   UNL     1       4.829  -0.661   0.086  0.00  0.00    -0.017 C 
ENDBRANCH  30  34
ENDBRANCH  22  30
ENDBRANCH  21  22
ENDBRANCH   1  21
TORSDOF 8
