REMARK  Name = ZINC03827162
REMARK  4 active torsions:
REMARK  status: ('A' for Active; 'I' for Inactive)
REMARK    1  A    between atoms: N_9  and  C_10
REMARK    2  A    between atoms: C_13  and  N_21
REMARK    3  A    between atoms: C_15  and  O_20
REMARK    4  A    between atoms: C_17  and  O_19
REMARK                            x       y       z     vdW  Elec       q    Type
REMARK                         _______ _______ _______ _____ _____    ______ ____
ROOT
ATOM      1  C   UNL     1      -0.017   1.367   0.010  0.00  0.00    +0.103 A 
ATOM      2  C   UNL     1       1.241   1.839   0.000  0.00  0.00    +0.043 A 
ATOM      3  C   UNL     1       2.128   0.677  -0.015  0.00  0.00    +0.071 A 
ATOM      4  C   UNL     1       3.519   0.488  -0.029  0.00  0.00    +0.130 A 
ATOM      5  N   UNL     1       3.986  -0.756  -0.041  0.00  0.00    -0.220 NA
ATOM      6  C   UNL     1       3.166  -1.792  -0.039  0.00  0.00    +0.225 A 
ATOM      7  N   UNL     1       1.857  -1.662  -0.025  0.00  0.00    -0.218 NA
ATOM      8  C   UNL     1       1.293  -0.455  -0.013  0.00  0.00    +0.147 A 
ATOM      9  N   UNL     1       0.002  -0.004   0.002  0.00  0.00    -0.325 N 
ATOM     10  N   UNL     1       4.381   1.570  -0.032  0.00  0.00    -0.343 N 
ATOM     11  I   UNL     1       1.820   3.853   0.005  0.00  0.00    -0.041 I 
ATOM     12  H   UNL     1       4.027   2.473  -0.024  0.00  0.00    +0.144 HD
ATOM     13  H   UNL     1       5.340   1.425  -0.042  0.00  0.00    +0.144 HD
ENDROOT
BRANCH   9  14
ATOM     14  C   UNL     1      -1.187  -0.860   0.009  0.00  0.00    +0.118 C 
ATOM     15  C   UNL     1      -2.116  -0.519  -1.181  0.00  0.00    +0.014 C 
ATOM     16  C   UNL     1      -3.509  -1.002  -0.725  0.00  0.00    -0.041 C 
ATOM     17  C   UNL     1      -3.484  -1.023   0.814  0.00  0.00    +0.131 C 
ATOM     18  C   UNL     1      -2.075  -0.555   1.241  0.00  0.00    +0.164 C 
BRANCH  16  19
ATOM     19  N   UNL     1      -4.544  -0.075  -1.200  0.00  0.00    +0.382 N 
ATOM     20  H   UNL     1      -4.521  -0.033  -2.208  0.00  0.00    -0.090 HD
ATOM     21  H   UNL     1      -5.450  -0.398  -0.897  0.00  0.00    -0.090 HD
ATOM     22  H   UNL     1      -4.371   0.845  -0.821  0.00  0.00    -0.090 HD
ENDBRANCH  16  19
BRANCH  18  23
ATOM     23  O   UNL     1      -1.623  -1.292   2.379  0.00  0.00    -0.387 OA
ATOM     24  H   UNL     1      -2.144  -1.139   3.179  0.00  0.00    +0.210 HD
ENDBRANCH  18  23
BRANCH  17  25
ATOM     25  O   UNL     1      -3.721  -2.349   1.289  0.00  0.00    -0.391 OA
ATOM     26  H   UNL     1      -3.718  -2.428   2.253  0.00  0.00    +0.210 HD
ENDBRANCH  17  25
ENDBRANCH   9  14
TORSDOF 4
