REMARK  Name = ZINC16569964
REMARK  7 active torsions:
REMARK  status: ('A' for Active; 'I' for Inactive)
REMARK    1  A    between atoms: C_1  and  C_2
REMARK    2  A    between atoms: C_6  and  N_9
REMARK    3  A    between atoms: C_7  and  C_8
REMARK    4  A    between atoms: N_12  and  C_13
REMARK    5  A    between atoms: N_12  and  C_37
REMARK    6  A    between atoms: C_13  and  C_14
REMARK    7  A    between atoms: C_28  and  C_30
REMARK                            x       y       z     vdW  Elec       q    Type
REMARK                         _______ _______ _______ _____ _____    ______ ____
ROOT
ATOM      1  C   UNL     1       0.080   1.487   3.264  0.00  0.00    +0.238 C 
ATOM      2  O   UNL     1       1.051   2.130   2.927  0.00  0.00    -0.273 OA
ATOM      3  N   UNL     1       0.028   0.939   4.495  0.00  0.00    -0.255 N 
ATOM      4  C   UNL     1       1.053   1.191   5.417  0.00  0.00    +0.061 A 
ATOM      5  C   UNL     1       1.764   2.380   5.372  0.00  0.00    +0.025 A 
ATOM      6  C   UNL     1       2.780   2.611   6.281  0.00  0.00    +0.002 A 
ATOM      7  C   UNL     1       3.093   1.662   7.237  0.00  0.00    +0.002 A 
ATOM      8  C   UNL     1       2.386   0.473   7.293  0.00  0.00    +0.028 A 
ATOM      9  C   UNL     1       1.368   0.238   6.391  0.00  0.00    +0.068 A 
ATOM     10  N   UNL     1       0.608  -0.940   6.423  0.00  0.00    -0.316 N 
ATOM     11  C   UNL     1       0.827  -2.103   7.082  0.00  0.00    +0.092 A 
ATOM     12  C   UNL     1      -0.187  -2.949   6.793  0.00  0.00    +0.020 A 
ATOM     13  C   UNL     1      -1.069  -2.274   5.920  0.00  0.00    +0.025 A 
ATOM     14  C   UNL     1      -0.566  -1.053   5.710  0.00  0.00    +0.049 A 
ATOM     15  C   UNL     1      -1.109   0.083   4.870  0.00  0.00    +0.159 C 
ENDROOT
BRANCH  15  16
ATOM     16  C   UNL     1      -2.109   0.881   5.667  0.00  0.00    -0.021 A 
ATOM     17  C   UNL     1      -1.671   1.789   6.613  0.00  0.00    +0.008 A 
ATOM     18  C   UNL     1      -2.586   2.526   7.340  0.00  0.00    +0.038 A 
ATOM     19  C   UNL     1      -3.943   2.345   7.130  0.00  0.00    +0.123 A 
ATOM     20  C   UNL     1      -4.380   1.431   6.187  0.00  0.00    +0.038 A 
ATOM     21  C   UNL     1      -3.463   0.700   5.456  0.00  0.00    +0.008 A 
ATOM     22  F   UNL     1      -4.839   3.060   7.845  0.00  0.00    -0.205 F 
ENDBRANCH  15  16
BRANCH   1  23
ATOM     23  C   UNL     1      -1.069   1.299   2.307  0.00  0.00    +0.205 C 
BRANCH  23  27
ATOM     24  N   UNL     1      -0.834   3.737  -0.433  0.00  0.00    -0.269 N 
ATOM     25  C   UNL     1      -1.047   3.202   0.785  0.00  0.00    +0.307 C 
ATOM     26  O   UNL     1      -1.519   3.884   1.674  0.00  0.00    -0.252 OA
ATOM     27  N   UNL     1      -0.735   1.912   1.018  0.00  0.00    -0.274 N 
ATOM     28  H   UNL     1      -0.508   3.180  -1.158  0.00  0.00    +0.156 HD
BRANCH  24  34
ATOM     29  C   UNL     1       0.146   7.872  -2.905  0.00  0.00    +0.044 C 
ATOM     30  C   UNL     1      -0.622   7.125  -1.846  0.00  0.00    -0.046 A 
ATOM     31  C   UNL     1      -1.575   7.784  -1.090  0.00  0.00    +0.004 A 
ATOM     32  C   UNL     1      -2.282   7.102  -0.117  0.00  0.00    +0.002 A 
ATOM     33  C   UNL     1      -2.039   5.761   0.103  0.00  0.00    +0.023 A 
ATOM     34  C   UNL     1      -1.083   5.096  -0.654  0.00  0.00    +0.038 A 
ATOM     35  C   UNL     1      -0.371   5.785  -1.627  0.00  0.00    -0.026 A 
ATOM     36  C   UNL     1       0.672   5.070  -2.447  0.00  0.00    +0.046 C 
ENDBRANCH  24  34
BRANCH  27  37
ATOM     37  C   UNL     1      -0.064   1.122  -0.017  0.00  0.00    +0.078 C 
ATOM     38  C   UNL     1       0.509  -0.237   0.392  0.00  0.00    +0.024 C 
ATOM     39  C   UNL     1      -0.748  -0.167  -0.477  0.00  0.00    +0.024 C 
ENDBRANCH  27  37
ENDBRANCH  23  27
ENDBRANCH   1  23
TORSDOF 5
