REMARK  Name = ZINC40679762
REMARK  6 active torsions:
REMARK  status: ('A' for Active; 'I' for Inactive)
REMARK    1  A    between atoms: C_1  and  C_2
REMARK    2  A    between atoms: C_2  and  N_3
REMARK    3  A    between atoms: N_3  and  C_4
REMARK    4  A    between atoms: C_11  and  N_24
REMARK    5  A    between atoms: C_12  and  N_16
REMARK    6  A    between atoms: C_20  and  C_23
REMARK                            x       y       z     vdW  Elec       q    Type
REMARK                         _______ _______ _______ _____ _____    ______ ____
ROOT
ATOM      1  N   UNL     1      -1.454  -0.564  -0.070  0.00  0.00    -0.285 N 
ATOM      2  C   UNL     1      -2.064  -0.791   1.159  0.00  0.00    +0.129 A 
ATOM      3  C   UNL     1      -3.313  -1.414   1.226  0.00  0.00    +0.104 A 
ATOM      4  C   UNL     1      -3.880  -1.618   2.485  0.00  0.00    +0.150 A 
ATOM      5  N   UNL     1      -3.215  -1.215   3.565  0.00  0.00    -0.221 NA
ATOM      6  C   UNL     1      -2.038  -0.631   3.458  0.00  0.00    +0.200 A 
ATOM      7  N   UNL     1      -1.465  -0.424   2.289  0.00  0.00    -0.332 N 
ATOM      8  H   UNL     1      -0.596   0.005   2.252  0.00  0.00    +0.168 HD
ENDROOT
BRANCH   4   9
ATOM      9  N   UNL     1      -5.122  -2.233   2.609  0.00  0.00    -0.283 N 
ATOM     10  C   UNL     1      -5.629  -2.528   3.871  0.00  0.00    +0.124 A 
ATOM     11  C   UNL     1      -6.820  -3.238   3.986  0.00  0.00    +0.044 A 
ATOM     12  C   UNL     1      -7.312  -3.526   5.246  0.00  0.00    +0.008 A 
ATOM     13  C   UNL     1      -6.595  -3.091   6.353  0.00  0.00    -0.032 A 
ATOM     14  C   UNL     1      -5.420  -2.391   6.165  0.00  0.00    +0.116 A 
ATOM     15  N   UNL     1      -4.971  -2.136   4.951  0.00  0.00    -0.240 NA
ATOM     16  C   UNL     1      -7.093  -3.381   7.745  0.00  0.00    +0.045 C 
ATOM     17  H   UNL     1      -5.634  -2.455   1.816  0.00  0.00    +0.155 HD
ENDBRANCH   4   9
BRANCH   1  18
ATOM     18  C   UNL     1      -1.601   0.672  -0.704  0.00  0.00    +0.035 A 
ATOM     19  C   UNL     1      -2.443   1.637  -0.164  0.00  0.00    +0.023 A 
ATOM     20  C   UNL     1      -2.586   2.858  -0.794  0.00  0.00    +0.002 A 
ATOM     21  C   UNL     1      -1.893   3.120  -1.962  0.00  0.00    +0.000 A 
ATOM     22  C   UNL     1      -1.055   2.162  -2.502  0.00  0.00    +0.002 A 
ATOM     23  C   UNL     1      -0.902   0.942  -1.874  0.00  0.00    +0.023 A 
ENDBRANCH   1  18
BRANCH   3  24
ATOM     24  N   UNL     1      -3.979  -1.822   0.060  0.00  0.00    -0.353 N 
ATOM     25  H   UNL     1      -3.542  -1.740  -0.802  0.00  0.00    +0.143 HD
ATOM     26  H   UNL     1      -4.876  -2.186   0.117  0.00  0.00    +0.143 HD
ENDBRANCH   3  24
BRANCH   1  28
ATOM     27  C   UNL     1       0.798  -1.501  -0.243  0.00  0.00    +0.025 C 
ATOM     28  C   UNL     1      -0.658  -1.620  -0.699  0.00  0.00    +0.109 C 
ENDBRANCH   1  28
TORSDOF 4
