REMARK  Name = ZINC47692201
REMARK  5 active torsions:
REMARK  status: ('A' for Active; 'I' for Inactive)
REMARK    1  A    between atoms: C_2  and  C_7
REMARK    2  A    between atoms: C_7  and  N_8
REMARK    3  A    between atoms: N_11  and  C_12
REMARK    4  A    between atoms: N_15  and  C_17
REMARK    5  A    between atoms: C_17  and  C_18
REMARK                            x       y       z     vdW  Elec       q    Type
REMARK                         _______ _______ _______ _____ _____    ______ ____
ROOT
ATOM      1  N   UNL     1       1.222   4.027   1.393  0.00  0.00    -0.295 N 
ATOM      2  C   UNL     1       1.242   5.350   1.645  0.00  0.00    +0.304 C 
ATOM      3  O   UNL     1       1.243   6.145   0.725  0.00  0.00    -0.252 OA
ATOM      4  N   UNL     1       1.260   5.793   2.918  0.00  0.00    -0.267 N 
ATOM      5  H   UNL     1       1.221   3.393   2.127  0.00  0.00    +0.151 HD
ATOM      6  H   UNL     1       1.258   5.159   3.652  0.00  0.00    +0.156 HD
ENDROOT
BRANCH   4   7
ATOM      7  C   UNL     1       1.280   7.176   3.182  0.00  0.00    +0.072 A 
ATOM      8  C   UNL     1       1.278   8.200   2.224  0.00  0.00    +0.157 A 
ATOM      9  N   UNL     1       1.300   9.349   2.849  0.00  0.00    -0.177 NA
ATOM     10  N   UNL     1       1.317   9.101   4.228  0.00  0.00    -0.261 N 
ATOM     11  C   UNL     1       1.299   7.755   4.410  0.00  0.00    +0.132 A 
BRANCH  10  12
ATOM     12  C   UNL     1       1.344  10.114   5.286  0.00  0.00    +0.238 C 
BRANCH  12  13
ATOM     13  C   UNL     1       2.515  11.037   5.068  0.00  0.00    +0.232 C 
ATOM     14  O   UNL     1       3.255  10.866   4.122  0.00  0.00    -0.274 OA
ATOM     15  N   UNL     1       2.741  12.053   5.924  0.00  0.00    -0.328 N 
ATOM     16  H   UNL     1       2.150  12.191   6.681  0.00  0.00    +0.145 HD
ATOM     17  H   UNL     1       3.495  12.648   5.784  0.00  0.00    +0.145 HD
ENDBRANCH  12  13
ENDBRANCH  10  12
ENDBRANCH   4   7
BRANCH   1  18
ATOM     18  C   UNL     1       1.203   3.545   0.009  0.00  0.00    +0.141 C 
BRANCH  18  20
ATOM     19  C   UNL     1      -0.016   1.352   0.009  0.00  0.00    +0.028 A 
ATOM     20  C   UNL     1       1.184   2.038   0.002  0.00  0.00    -0.022 A 
ATOM     21  C   UNL     1       2.343   1.336  -0.013  0.00  0.00    +0.051 A 
ATOM     22  S   UNL     1       1.754  -0.349  -0.017  0.00  0.00    -0.090 S 
ATOM     23  C   UNL     1       0.002  -0.004   0.002  0.00  0.00    +0.055 A 
ATOM     24 BR   UNL     1      -1.450  -1.215   0.010  0.00  0.00    -0.043 Br
ENDBRANCH  18  20
ENDBRANCH   1  18
TORSDOF 5
