REMARK  Name = ZINC13757964
REMARK  9 active torsions:
REMARK  status: ('A' for Active; 'I' for Inactive)
REMARK    1  A    between atoms: C_1  and  C_2
REMARK    2  A    between atoms: C_2  and  C_3
REMARK    3  A    between atoms: C_3  and  C_5
REMARK    4  A    between atoms: C_3  and  C_6
REMARK    5  A    between atoms: C_6  and  C_8
REMARK    6  A    between atoms: C_6  and  N_44
REMARK    7  A    between atoms: N_10  and  N_11
REMARK    8  A    between atoms: C_12  and  C_13
REMARK    9  A    between atoms: C_18  and  C_24
REMARK                            x       y       z     vdW  Elec       q    Type
REMARK                         _______ _______ _______ _____ _____    ______ ____
ROOT
ATOM      1  N   UNL     1      -0.017   1.397   0.010  0.00  0.00    -0.188 NA
ATOM      2  C   UNL     1       1.098   2.061   0.003  0.00  0.00    +0.141 C 
ENDROOT
BRANCH   2   3
ATOM      3  C   UNL     1       1.078   3.535   0.011  0.00  0.00    +0.032 A 
ATOM      4  C   UNL     1       2.269   4.252   0.003  0.00  0.00    +0.022 A 
ATOM      5  C   UNL     1       2.194   5.655   0.012  0.00  0.00    +0.001 A 
ATOM      6  C   UNL     1       3.355   6.447   0.005  0.00  0.00    +0.010 A 
ATOM      7  C   UNL     1       3.245   7.804   0.014  0.00  0.00    +0.004 A 
ATOM      8  C   UNL     1       1.995   8.419   0.029  0.00  0.00    -0.048 A 
ATOM      9  C   UNL     1       0.850   7.683   0.035  0.00  0.00    +0.031 A 
ATOM     10  C   UNL     1       0.921   6.279   0.027  0.00  0.00    +0.073 A 
ATOM     11  N   UNL     1      -0.193   5.537   0.034  0.00  0.00    -0.235 NA
ATOM     12  C   UNL     1      -0.148   4.229   0.020  0.00  0.00    +0.139 A 
ATOM     13 CL   UNL     1      -1.632   3.329   0.022  0.00  0.00    -0.061 Cl
ATOM     14  C   UNL     1       1.909   9.923   0.037  0.00  0.00    +0.044 C 
ENDBRANCH   2   3
BRANCH   1  17
ATOM     15  C   UNL     1      -1.156  -0.694   0.009  0.00  0.00    +0.218 C 
ATOM     16  O   UNL     1      -2.215  -0.102   0.023  0.00  0.00    -0.276 OA
ATOM     17  N   UNL     1       0.002  -0.004   0.002  0.00  0.00    -0.208 N 
ATOM     18  H   UNL     1       0.849  -0.478  -0.009  0.00  0.00    +0.177 HD
BRANCH  15  19
ATOM     19  C   UNL     1      -1.135  -2.201   0.001  0.00  0.00    +0.017 C 
BRANCH  19  22
ATOM     20  H   UNL     1      -2.580  -2.448   1.446  0.00  0.00    -0.089 HD
ATOM     21  H   UNL     1      -3.182  -2.394  -0.103  0.00  0.00    -0.089 HD
ATOM     22  N   UNL     1      -2.421  -2.735   0.482  0.00  0.00    +0.386 N 
ATOM     23  H   UNL     1      -2.399  -3.761   0.437  0.00  0.00    -0.089 HD
ENDBRANCH  19  22
BRANCH  19  24
ATOM     24  C   UNL     1      -0.892  -2.700  -1.425  0.00  0.00    -0.020 C 
ATOM     25  C   UNL     1      -2.012  -2.200  -2.338  0.00  0.00    +0.006 C 
BRANCH  24  27
ATOM     26  C   UNL     1      -0.504  -4.727  -2.833  0.00  0.00    +0.004 C 
ATOM     27  C   UNL     1      -0.871  -4.229  -1.433  0.00  0.00    -0.001 C 
ENDBRANCH  24  27
ENDBRANCH  19  24
ENDBRANCH  15  19
ENDBRANCH   1  17
TORSDOF 6
