REMARK  Name = ZINC35776334
REMARK  2 active torsions:
REMARK  status: ('A' for Active; 'I' for Inactive)
REMARK    1  A    between atoms: C_1  and  C_2
REMARK    2  A    between atoms: C_12  and  C_15
REMARK                            x       y       z     vdW  Elec       q    Type
REMARK                         _______ _______ _______ _____ _____    ______ ____
ROOT
ATOM      1  C   UNL     1      -0.154   1.533   0.138  0.00  0.00    +0.030 C 
ATOM      2  C   UNL     1      -0.071   0.007   0.063  0.00  0.00    +0.097 C 
ATOM      3  C   UNL     1      -1.467  -0.596   0.256  0.00  0.00    +0.182 C 
ATOM      4  O   UNL     1      -1.355  -2.016   0.370  0.00  0.00    -0.376 OA
ATOM      5  C   UNL     1      -0.598  -2.454   1.501  0.00  0.00    +0.179 C 
ATOM      6  C   UNL     1       0.842  -1.947   1.372  0.00  0.00    +0.135 C 
ATOM      7  N   UNL     1       0.804  -0.495   1.134  0.00  0.00    -0.308 N 
ATOM      8  C   UNL     1       1.568   0.373   1.896  0.00  0.00    +0.122 A 
ATOM      9  C   UNL     1       2.853   0.709   1.473  0.00  0.00    +0.044 A 
ATOM     10  C   UNL     1       3.606   1.567   2.229  0.00  0.00    +0.016 A 
ATOM     11  C   UNL     1       3.051   2.081   3.411  0.00  0.00    +0.030 A 
ATOM     12  C   UNL     1       1.758   1.702   3.773  0.00  0.00    +0.124 A 
ATOM     13  N   UNL     1       1.066   0.877   3.014  0.00  0.00    -0.240 NA
ENDROOT
BRANCH  11  14
ATOM     14  C   UNL     1       3.824   3.010   4.259  0.00  0.00    +0.096 C 
ATOM     15  N   UNL     1       3.288   3.492   5.380  0.00  0.00    -0.387 N 
ATOM     16  N   UNL     1       5.058   3.366   3.905  0.00  0.00    -0.345 N 
ATOM     17  H   UNL     1       2.389   3.233   5.638  0.00  0.00    +0.157 HD
ATOM     18  H   UNL     1       5.449   3.015   3.089  0.00  0.00    +0.144 HD
ATOM     19  H   UNL     1       5.566   3.976   4.462  0.00  0.00    +0.144 HD
ATOM     20  H   UNL     1       3.795   4.102   5.937  0.00  0.00    +0.157 HD
ENDBRANCH  11  14
TORSDOF 1
