REMARK  Name = ZINC09466075
REMARK  8 active torsions:
REMARK  status: ('A' for Active; 'I' for Inactive)
REMARK    1  A    between atoms: C_6  and  C_7
REMARK    2  A    between atoms: C_10  and  N_24
REMARK    3  A    between atoms: N_13  and  C_14
REMARK    4  A    between atoms: C_17  and  S_20
REMARK    5  A    between atoms: S_20  and  N_23
REMARK    6  A    between atoms: N_24  and  C_25
REMARK    7  A    between atoms: C_28  and  S_31
REMARK    8  A    between atoms: S_31  and  N_34
REMARK                            x       y       z     vdW  Elec       q    Type
REMARK                         _______ _______ _______ _____ _____    ______ ____
ROOT
ATOM      1  C   UNL     1       1.024   2.581  -0.327  0.00  0.00    +0.137 C 
ATOM      2  C   UNL     1       0.003   1.486  -0.119  0.00  0.00    +0.029 C 
ATOM      3  C   UNL     1      -1.199   2.067  -0.134  0.00  0.00    +0.093 C 
ATOM      4  C   UNL     1      -1.045   3.516  -0.335  0.00  0.00    +0.265 C 
ATOM      5  O   UNL     1      -1.962   4.313  -0.392  0.00  0.00    -0.268 OA
ATOM      6  N   UNL     1       0.259   3.828  -0.452  0.00  0.00    -0.255 N 
ENDROOT
BRANCH   1  12
ATOM      7  C   UNL     1       1.258   2.621  -2.818  0.00  0.00    +0.007 A 
ATOM      8  C   UNL     1       1.980   2.391  -3.974  0.00  0.00    +0.020 A 
ATOM      9  C   UNL     1       3.254   1.855  -3.898  0.00  0.00    +0.041 A 
ATOM     10  C   UNL     1       3.805   1.555  -2.665  0.00  0.00    +0.020 A 
ATOM     11  C   UNL     1       3.083   1.790  -1.510  0.00  0.00    +0.007 A 
ATOM     12  C   UNL     1       1.811   2.325  -1.586  0.00  0.00    -0.023 A 
ATOM     13 CL   UNL     1       4.159   1.559  -5.349  0.00  0.00    -0.084 Cl
ENDBRANCH   1  12
BRANCH   6  14
ATOM     14  C   UNL     1       0.788   5.106  -0.657  0.00  0.00    +0.038 A 
ATOM     15  C   UNL     1       2.162   5.282  -0.755  0.00  0.00    +0.025 A 
ATOM     16  C   UNL     1       2.681   6.545  -0.962  0.00  0.00    +0.030 A 
ATOM     17  C   UNL     1       1.835   7.635  -1.062  0.00  0.00    +0.105 A 
ATOM     18  C   UNL     1       0.467   7.463  -0.960  0.00  0.00    +0.030 A 
ATOM     19  C   UNL     1      -0.059   6.202  -0.758  0.00  0.00    +0.025 A 
BRANCH  17  20
ATOM     20  S   UNL     1       2.502   9.245  -1.319  0.00  0.00    +0.056 S 
ATOM     21  O   UNL     1       3.775   9.066  -1.925  0.00  0.00    -0.153 OA
ATOM     22  O   UNL     1       1.474  10.019  -1.921  0.00  0.00    -0.153 OA
BRANCH  20  23
ATOM     23  N   UNL     1       2.778   9.905   0.175  0.00  0.00    -0.204 NA
ATOM     24  H   UNL     1       2.569   9.398   0.975  0.00  0.00    +0.144 HD
ATOM     25  H   UNL     1       3.148  10.798   0.250  0.00  0.00    +0.144 HD
ENDBRANCH  20  23
ENDBRANCH  17  20
ENDBRANCH   6  14
BRANCH   3  26
ATOM     26  N   UNL     1      -2.419   1.399   0.020  0.00  0.00    -0.311 N 
ATOM     27  H   UNL     1      -2.672   0.701  -0.604  0.00  0.00    +0.152 HD
BRANCH  26  28
ATOM     28  C   UNL     1      -3.272   1.737   1.073  0.00  0.00    +0.032 A 
ATOM     29  C   UNL     1      -2.840   2.607   2.067  0.00  0.00    +0.025 A 
ATOM     30  C   UNL     1      -3.688   2.944   3.104  0.00  0.00    +0.030 A 
ATOM     31  C   UNL     1      -4.962   2.407   3.159  0.00  0.00    +0.105 A 
ATOM     32  C   UNL     1      -5.393   1.537   2.175  0.00  0.00    +0.030 A 
ATOM     33  C   UNL     1      -4.552   1.200   1.132  0.00  0.00    +0.025 A 
BRANCH  31  34
ATOM     34  S   UNL     1      -6.038   2.834   4.488  0.00  0.00    +0.056 S 
ATOM     35  O   UNL     1      -5.592   4.089   4.984  0.00  0.00    -0.153 OA
ATOM     36  O   UNL     1      -7.363   2.627   4.019  0.00  0.00    -0.153 OA
BRANCH  34  37
ATOM     37  N   UNL     1      -5.785   1.730   5.696  0.00  0.00    -0.204 NA
ATOM     38  H   UNL     1      -5.135   1.020   5.577  0.00  0.00    +0.144 HD
ATOM     39  H   UNL     1      -6.288   1.793   6.523  0.00  0.00    +0.144 HD
ENDBRANCH  34  37
ENDBRANCH  31  34
ENDBRANCH  26  28
ENDBRANCH   3  26
TORSDOF 8
