REMARK  Name = ZINC09970486
REMARK  14 active torsions:
REMARK  status: ('A' for Active; 'I' for Inactive)
REMARK    1  A    between atoms: C_1  and  C_2
REMARK    2  A    between atoms: C_2  and  C_3
REMARK    3  A    between atoms: C_2  and  S_4
REMARK    4  A    between atoms: S_4  and  C_5
REMARK    5  A    between atoms: C_5  and  C_20
REMARK    6  A    between atoms: C_6  and  C_18
REMARK    7  A    between atoms: C_6  and  O_19
REMARK    8  A    between atoms: C_7  and  C_16
REMARK    9  A    between atoms: C_7  and  O_17
REMARK   10  A    between atoms: C_8  and  C_14
REMARK   11  A    between atoms: C_8  and  O_15
REMARK   12  A    between atoms: C_9  and  C_11
REMARK   13  A    between atoms: C_9  and  C_12
REMARK   14  A    between atoms: C_12  and  O_13
REMARK                            x       y       z     vdW  Elec       q    Type
REMARK                         _______ _______ _______ _____ _____    ______ ____
ROOT
ATOM      1  C   UNL     1       2.009   1.747   0.699  0.00  0.00    +0.144 C 
ATOM      2  C   UNL     1       0.949   2.476  -0.120  0.00  0.00    +0.132 C 
ATOM      3  C   UNL     1      -0.422   1.829  -0.050  0.00  0.00    +0.126 C 
ATOM      4  C   UNL     1      -0.418   0.314  -0.155  0.00  0.00    +0.125 C 
ATOM      5  C   UNL     1       0.695  -0.350   0.645  0.00  0.00    +0.122 C 
ATOM      6  O   UNL     1       1.912   0.348   0.604  0.00  0.00    -0.349 OA
ATOM      7  C   UNL     1       0.224  -0.572   2.089  0.00  0.00    +0.047 C 
ATOM      8  C   UNL     1      -0.335  -0.132  -1.620  0.00  0.00    +0.047 C 
ATOM      9  C   UNL     1      -1.281   2.391  -1.203  0.00  0.00    +0.047 C 
ATOM     10  C   UNL     1       1.423   2.604  -1.573  0.00  0.00    +0.048 C 
ATOM     11  C   UNL     1       1.923   2.208   2.162  0.00  0.00    +0.057 C 
ENDROOT
BRANCH   4  12
ATOM     12  O   UNL     1      -1.677  -0.169   0.364  0.00  0.00    -0.383 OA
ATOM     13  H   UNL     1      -1.770  -1.131   0.339  0.00  0.00    +0.210 HD
ENDBRANCH   4  12
BRANCH   3  14
ATOM     14  O   UNL     1      -1.065   2.214   1.178  0.00  0.00    -0.383 OA
ATOM     15  H   UNL     1      -1.106   3.170   1.318  0.00  0.00    +0.210 HD
ENDBRANCH   3  14
BRANCH   2  16
ATOM     16  O   UNL     1       0.836   3.816   0.409  0.00  0.00    -0.382 OA
ATOM     17  H   UNL     1       1.666   4.312   0.406  0.00  0.00    +0.210 HD
ENDBRANCH   2  16
BRANCH   1  18
ATOM     18  S   UNL     1       3.648   2.252   0.067  0.00  0.00    -0.121 S 
BRANCH  18  20
ATOM     19  C   UNL     1       4.635  -0.207   0.744  0.00  0.00    +0.019 C 
ATOM     20  C   UNL     1       4.818   1.280   1.054  0.00  0.00    +0.043 C 
ATOM     21  C   UNL     1       6.249   1.700   0.709  0.00  0.00    +0.019 C 
ENDBRANCH  18  20
ENDBRANCH   1  18
BRANCH   5  22
ATOM     22  C   UNL     1       0.930  -1.752   0.032  0.00  0.00    +0.193 C 
BRANCH  22  23
ATOM     23  O   UNL     1       1.886  -2.463   0.821  0.00  0.00    -0.392 OA
ATOM     24  H   UNL     1       2.083  -3.352   0.495  0.00  0.00    +0.210 HD
ENDBRANCH  22  23
ENDBRANCH   5  22
TORSDOF 7
