REMARK  Name = ZINC63572839
REMARK  7 active torsions:
REMARK  status: ('A' for Active; 'I' for Inactive)
REMARK    1  A    between atoms: C_1  and  C_2
REMARK    2  A    between atoms: C_2  and  O_3
REMARK    3  A    between atoms: O_3  and  C_4
REMARK    4  A    between atoms: C_4  and  C_6
REMARK    5  A    between atoms: C_10  and  N_12
REMARK    6  A    between atoms: C_28  and  C_30
REMARK    7  A    between atoms: C_33  and  C_36
REMARK                            x       y       z     vdW  Elec       q    Type
REMARK                         _______ _______ _______ _____ _____    ______ ____
ROOT
ATOM      1  N   UNL     1      -4.054  -6.372  -0.284  0.00  0.00    -0.269 N 
ATOM      2  C   UNL     1      -5.350  -6.625  -0.016  0.00  0.00    +0.307 C 
ATOM      3  O   UNL     1      -6.128  -5.705   0.146  0.00  0.00    -0.252 OA
ATOM      4  N   UNL     1      -5.784  -7.898   0.073  0.00  0.00    -0.276 N 
ATOM      5  C   UNL     1      -4.819  -9.000   0.003  0.00  0.00    +0.114 C 
ATOM      6  C   UNL     1      -5.195  -9.937  -1.160  0.00  0.00    +0.052 C 
ATOM      7  C   UNL     1      -6.683 -10.167  -1.066  0.00  0.00    -0.035 C 
ATOM      8  C   UNL     1      -7.398 -11.285  -1.045  0.00  0.00    +0.001 A 
ATOM      9  C   UNL     1      -7.016 -12.696  -1.217  0.00  0.00    +0.030 A 
ATOM     10  C   UNL     1      -8.021 -13.606  -1.115  0.00  0.00    +0.042 A 
ATOM     11  C   UNL     1      -9.353 -13.257  -0.863  0.00  0.00    +0.022 A 
ATOM     12  C   UNL     1      -9.794 -11.985  -0.700  0.00  0.00    +0.027 A 
ATOM     13  C   UNL     1      -8.831 -10.938  -0.794  0.00  0.00    +0.043 A 
ATOM     14  N   UNL     1      -8.977  -9.650  -0.705  0.00  0.00    -0.375 N 
ATOM     15  C   UNL     1      -7.679  -9.020  -0.948  0.00  0.00    +0.131 C 
ATOM     16  C   UNL     1      -7.221  -8.167   0.246  0.00  0.00    +0.134 C 
ATOM     17 CL   UNL     1      -7.633 -15.287  -1.308  0.00  0.00    -0.084 Cl
ATOM     18  H   UNL     1      -3.448  -7.103  -0.481  0.00  0.00    +0.156 HD
ATOM     19  H   UNL     1      -9.806  -9.185  -0.510  0.00  0.00    +0.160 HD
ENDROOT
BRANCH  16  20
ATOM     20  C   UNL     1      -7.448  -8.919   1.532  0.00  0.00    -0.025 A 
ATOM     21  C   UNL     1      -6.700 -10.047   1.815  0.00  0.00    +0.006 A 
ATOM     22  C   UNL     1      -6.909 -10.736   2.994  0.00  0.00    +0.004 A 
ATOM     23  C   UNL     1      -7.864 -10.298   3.892  0.00  0.00    -0.050 A 
ATOM     24  C   UNL     1      -8.611  -9.169   3.610  0.00  0.00    +0.004 A 
ATOM     25  C   UNL     1      -8.400  -8.477   2.432  0.00  0.00    +0.006 A 
ATOM     26  C   UNL     1      -8.092 -11.050   5.178  0.00  0.00    +0.044 C 
ENDBRANCH  16  20
BRANCH   1  31
ATOM     27  C   UNL     1      -1.766  -3.487  -0.086  0.00  0.00    +0.061 A 
ATOM     28  C   UNL     1      -2.665  -2.433  -0.266  0.00  0.00    +0.015 A 
ATOM     29  C   UNL     1      -4.007  -2.695  -0.450  0.00  0.00    +0.003 A 
ATOM     30  C   UNL     1      -4.468  -3.998  -0.456  0.00  0.00    +0.023 A 
ATOM     31  C   UNL     1      -3.582  -5.054  -0.277  0.00  0.00    +0.036 A 
ATOM     32  C   UNL     1      -2.231  -4.803  -0.098  0.00  0.00    +0.038 A 
BRANCH  27  33
ATOM     33  C   UNL     1      -0.328  -3.210   0.109  0.00  0.00    +0.339 C 
ATOM     34  O   UNL     1       0.452  -4.129   0.261  0.00  0.00    -0.245 OA
BRANCH  33  35
ATOM     35  O   UNL     1       0.118  -1.939   0.120  0.00  0.00    -0.461 OA
BRANCH  35  37
ATOM     36  C   UNL     1       1.835  -0.248   0.296  0.00  0.00    +0.048 C 
ATOM     37  C   UNL     1       1.520  -1.745   0.314  0.00  0.00    +0.229 C 
ENDBRANCH  35  37
ENDBRANCH  33  35
ENDBRANCH  27  33
ENDBRANCH   1  31
TORSDOF 5
