REMARK  Name = ZINC45624318
REMARK  4 active torsions:
REMARK  status: ('A' for Active; 'I' for Inactive)
REMARK    1  A    between atoms: C_4  and  C_8
REMARK    2  A    between atoms: C_6  and  N_7
REMARK    3  A    between atoms: N_14  and  C_17
REMARK    4  A    between atoms: C_17  and  C_18
REMARK                            x       y       z     vdW  Elec       q    Type
REMARK                         _______ _______ _______ _____ _____    ______ ____
ROOT
ATOM      1  C   UNL     1       3.973  -0.632   0.038  0.00  0.00    +0.248 C 
ATOM      2  O   UNL     1       5.077  -0.123   0.010  0.00  0.00    -0.270 OA
ATOM      3  N   UNL     1       3.850  -1.973   0.078  0.00  0.00    -0.299 N 
ATOM      4  C   UNL     1       2.500  -2.567  -0.012  0.00  0.00    +0.106 C 
ATOM      5  C   UNL     1       2.502  -3.809  -0.921  0.00  0.00    +0.000 C 
ATOM      6  C   UNL     1       3.390  -3.556  -2.119  0.00  0.00    -0.077 C 
ATOM      7  N   UNL     1       4.734  -4.057  -1.837  0.00  0.00    +0.386 N 
ATOM      8  C   UNL     1       5.591  -3.135  -1.197  0.00  0.00    -0.059 C 
ATOM      9  C   UNL     1       5.046  -2.781   0.200  0.00  0.00    +0.089 C 
ATOM     10  H   UNL     1       4.652  -4.875  -1.252  0.00  0.00    -0.081 HD
ENDROOT
BRANCH   1  14
ATOM     11  C   UNL     1       0.503   1.827   0.005  0.00  0.00    +0.024 A 
ATOM     12  C   UNL     1       1.469   1.983  -0.970  0.00  0.00    +0.018 A 
ATOM     13  C   UNL     1       2.598   1.188  -0.965  0.00  0.00    +0.030 A 
ATOM     14  C   UNL     1       2.766   0.222   0.030  0.00  0.00    +0.053 A 
ATOM     15  C   UNL     1       1.790   0.064   1.014  0.00  0.00    +0.037 A 
ATOM     16  C   UNL     1       0.661   0.868   0.999  0.00  0.00    +0.025 A 
ATOM     17 BR   UNL     1       3.916   1.407  -2.303  0.00  0.00    -0.050 Br
BRANCH  16  18
ATOM     18  N   UNL     1      -0.319   0.714   1.984  0.00  0.00    -0.358 N 
ATOM     19  H   UNL     1      -1.109   1.276   1.974  0.00  0.00    +0.142 HD
ATOM     20  H   UNL     1      -0.209   0.045   2.677  0.00  0.00    +0.142 HD
ENDBRANCH  16  18
ENDBRANCH   1  14
BRANCH   7  21
ATOM     21  C   UNL     1       5.353  -4.462  -3.106  0.00  0.00    +0.018 C 
BRANCH  21  22
ATOM     22  C   UNL     1       4.620  -5.655  -3.664  0.00  0.00    +0.194 C 
ATOM     23  O   UNL     1       3.748  -6.190  -3.013  0.00  0.00    -0.278 OA
ATOM     24  N   UNL     1       4.932  -6.126  -4.888  0.00  0.00    -0.331 N 
ATOM     25  H   UNL     1       5.630  -5.697  -5.409  0.00  0.00    +0.145 HD
ATOM     26  H   UNL     1       4.460  -6.893  -5.247  0.00  0.00    +0.145 HD
ENDBRANCH  21  22
ENDBRANCH   7  21
TORSDOF 4
