REMARK  Name = ZINC31154896
REMARK  14 active torsions:
REMARK  status: ('A' for Active; 'I' for Inactive)
REMARK    1  A    between atoms: C_1  and  C_2
REMARK    2  A    between atoms: C_7  and  C_32
REMARK    3  A    between atoms: C_7  and  C_33
REMARK    4  A    between atoms: C_8  and  C_9
REMARK    5  A    between atoms: C_8  and  O_31
REMARK    6  A    between atoms: C_10  and  C_11
REMARK    7  A    between atoms: C_11  and  C_13
REMARK    8  A    between atoms: C_11  and  O_14
REMARK    9  A    between atoms: O_14  and  C_15
REMARK   10  A    between atoms: C_17  and  O_30
REMARK   11  A    between atoms: C_19  and  O_29
REMARK   12  A    between atoms: C_21  and  O_28
REMARK   13  A    between atoms: C_23  and  C_26
REMARK   14  A    between atoms: C_26  and  O_27
REMARK                            x       y       z     vdW  Elec       q    Type
REMARK                         _______ _______ _______ _____ _____    ______ ____
ROOT
ATOM      1  C   UNL     1       1.251   1.261   4.367  0.00  0.00    +0.141 C 
ATOM      2  C   UNL     1       1.279   0.533   5.712  0.00  0.00    +0.042 C 
ENDROOT
BRANCH   1   4
ATOM      3  C   UNL     1       0.892   0.039   2.284  0.00  0.00    +0.010 C 
ATOM      4  C   UNL     1       0.383   0.498   3.400  0.00  0.00    +0.003 C 
BRANCH   3  12
ATOM      5  C   UNL     1      -0.018   1.503   0.010  0.00  0.00    +0.042 C 
ATOM      6  C   UNL     1       0.002  -0.004   0.002  0.00  0.00    -0.034 C 
ATOM      7  C   UNL     1       0.005  -0.629  -1.169  0.00  0.00    +0.048 C 
ATOM      8  C   UNL     1       0.034  -2.094  -1.234  0.00  0.00    +0.157 C 
ATOM      9  O   UNL     1       0.242  -2.672  -2.280  0.00  0.00    -0.293 OA
ATOM     10  C   UNL     1      -0.205  -2.861   0.050  0.00  0.00    +0.088 C 
ATOM     11  C   UNL     1       0.569  -2.141   1.163  0.00  0.00    +0.008 C 
ATOM     12  C   UNL     1       0.024  -0.725   1.317  0.00  0.00    +0.111 C 
ATOM     13  C   UNL     1       0.400  -2.902   2.480  0.00  0.00    +0.015 C 
ATOM     14  C   UNL     1       2.053  -2.076   0.795  0.00  0.00    +0.015 C 
BRANCH  12  15
ATOM     15  O   UNL     1      -1.305  -0.793   1.837  0.00  0.00    -0.380 OA
ATOM     16  H   UNL     1      -1.713   0.071   1.988  0.00  0.00    +0.211 HD
ENDBRANCH  12  15
ENDBRANCH   3  12
ENDBRANCH   1   4
BRANCH   1  17
ATOM     17  O   UNL     1       0.720   2.576   4.548  0.00  0.00    -0.342 OA
BRANCH  17  18
ATOM     18  C   UNL     1       1.707   3.566   4.844  0.00  0.00    +0.282 C 
ATOM     19  C   UNL     1       1.047   4.946   4.894  0.00  0.00    +0.201 C 
ATOM     20  C   UNL     1       2.100   5.993   5.270  0.00  0.00    +0.179 C 
ATOM     21  C   UNL     1       2.736   5.604   6.608  0.00  0.00    +0.177 C 
ATOM     22  C   UNL     1       3.331   4.198   6.492  0.00  0.00    +0.178 C 
ATOM     23  O   UNL     1       2.306   3.279   6.109  0.00  0.00    -0.341 OA
BRANCH  21  24
ATOM     24  O   UNL     1       3.769   6.535   6.934  0.00  0.00    -0.386 OA
ATOM     25  H   UNL     1       3.463   7.449   7.020  0.00  0.00    +0.210 HD
ENDBRANCH  21  24
BRANCH  20  26
ATOM     26  O   UNL     1       1.478   7.274   5.390  0.00  0.00    -0.386 OA
ATOM     27  H   UNL     1       1.049   7.580   4.579  0.00  0.00    +0.210 HD
ENDBRANCH  20  26
BRANCH  19  28
ATOM     28  O   UNL     1       0.496   5.259   3.613  0.00  0.00    -0.384 OA
ATOM     29  H   UNL     1      -0.175   4.633   3.310  0.00  0.00    +0.210 HD
ENDBRANCH  19  28
BRANCH  22  30
ATOM     30  C   UNL     1       3.916   3.778   7.841  0.00  0.00    +0.190 C 
BRANCH  30  31
ATOM     31  O   UNL     1       4.574   2.517   7.704  0.00  0.00    -0.392 OA
ATOM     32  H   UNL     1       4.969   2.188   8.523  0.00  0.00    +0.210 HD
ENDBRANCH  30  31
ENDBRANCH  22  30
ENDBRANCH  17  18
ENDBRANCH   1  17
TORSDOF 10
