REMARK  Name = ZINC43286992
REMARK  10 active torsions:
REMARK  status: ('A' for Active; 'I' for Inactive)
REMARK    1  A    between atoms: C_1  and  C_2
REMARK    2  A    between atoms: C_2  and  N_3
REMARK    3  A    between atoms: C_4  and  C_6
REMARK    4  A    between atoms: C_6  and  N_7
REMARK    5  A    between atoms: N_7  and  C_8
REMARK    6  A    between atoms: N_7  and  C_9
REMARK    7  A    between atoms: C_9  and  C_11
REMARK    8  A    between atoms: C_9  and  C_17
REMARK    9  A    between atoms: C_17  and  C_19
REMARK   10  A    between atoms: C_17  and  N_20
REMARK                            x       y       z     vdW  Elec       q    Type
REMARK                         _______ _______ _______ _____ _____    ______ ____
ROOT
ATOM      1  C   UNL     1       2.461  -4.214   3.709  0.00  0.00    +0.079 C 
ENDROOT
BRANCH   1   2
ATOM      2  C   UNL     1       2.754  -5.675   3.479  0.00  0.00    +0.006 A 
ATOM      3  C   UNL     1       3.934  -6.334   3.578  0.00  0.00    +0.028 A 
ATOM      4  C   UNL     1       3.967  -7.692   3.319  0.00  0.00    +0.025 A 
ATOM      5  C   UNL     1       2.818  -8.323   2.973  0.00  0.00    +0.060 A 
ATOM      6  S   UNL     1       1.635  -6.986   3.014  0.00  0.00    -0.099 S 
ATOM      7 BR   UNL     1       5.590  -8.653   3.443  0.00  0.00    -0.050 Br
ENDBRANCH   1   2
BRANCH   1   8
ATOM      8  N   UNL     1       1.692  -3.685   2.574  0.00  0.00    -0.291 NA
ATOM      9  C   UNL     1       2.485  -3.724   1.338  0.00  0.00    +0.106 C 
BRANCH   8  10
ATOM     10  C   UNL     1       0.426  -4.411   2.411  0.00  0.00    +0.180 C 
BRANCH  10  12
ATOM     11  N   UNL     1      -1.780  -4.026   1.360  0.00  0.00    -0.315 N 
ATOM     12  C   UNL     1      -0.544  -3.561   1.632  0.00  0.00    +0.227 C 
ATOM     13  O   UNL     1      -0.213  -2.458   1.250  0.00  0.00    -0.274 OA
ATOM     14  H   UNL     1      -2.045  -4.907   1.665  0.00  0.00    +0.149 HD
BRANCH  11  16
ATOM     15  C   UNL     1      -4.042  -3.955   0.433  0.00  0.00    +0.024 C 
ATOM     16  C   UNL     1      -2.723  -3.199   0.602  0.00  0.00    +0.101 C 
ENDBRANCH  11  16
ENDBRANCH  10  12
ENDBRANCH   8  10
ENDBRANCH   1   8
BRANCH   1  17
ATOM     17  C   UNL     1       1.648  -4.053   4.995  0.00  0.00    -0.056 C 
ATOM     18  C   UNL     1       2.509  -4.449   6.196  0.00  0.00    -0.012 C 
BRANCH  17  19
ATOM     19  N   UNL     1       1.225  -2.653   5.135  0.00  0.00    +0.381 N 
ATOM     20  H   UNL     1       0.590  -2.417   4.388  0.00  0.00    -0.090 HD
ATOM     21  H   UNL     1       0.761  -2.529   6.022  0.00  0.00    -0.090 HD
ATOM     22  H   UNL     1       2.034  -2.052   5.092  0.00  0.00    -0.090 HD
ENDBRANCH  17  19
ENDBRANCH   1  17
TORSDOF 7
