REMARK  Name = ZINC65494597
REMARK  7 active torsions:
REMARK  status: ('A' for Active; 'I' for Inactive)
REMARK    1  A    between atoms: C_1  and  C_2
REMARK    2  A    between atoms: C_4  and  C_8
REMARK    3  A    between atoms: C_5  and  C_7
REMARK    4  A    between atoms: C_8  and  C_9
REMARK    5  A    between atoms: C_8  and  N_10
REMARK    6  A    between atoms: N_13  and  N_14
REMARK    7  A    between atoms: C_15  and  C_17
REMARK                            x       y       z     vdW  Elec       q    Type
REMARK                         _______ _______ _______ _____ _____    ______ ____
ROOT
ATOM      1  N   UNL     1      -2.752  -3.099  -0.586  0.00  0.00    -0.292 N 
ATOM      2  C   UNL     1      -3.473  -4.086  -1.154  0.00  0.00    +0.316 C 
ATOM      3  O   UNL     1      -3.031  -5.219  -1.188  0.00  0.00    -0.251 OA
ATOM      4  N   UNL     1      -4.682  -3.818  -1.684  0.00  0.00    -0.218 N 
ATOM      5  H   UNL     1      -3.105  -2.196  -0.558  0.00  0.00    +0.151 HD
ATOM      6  H   UNL     1      -5.201  -4.529  -2.093  0.00  0.00    +0.174 HD
ENDROOT
BRANCH   4   7
ATOM      7  N   UNL     1      -5.191  -2.514  -1.644  0.00  0.00    -0.228 N 
ATOM      8  C   UNL     1      -6.401  -2.246  -2.174  0.00  0.00    +0.276 C 
ATOM      9  O   UNL     1      -7.051  -3.138  -2.687  0.00  0.00    -0.267 OA
ATOM     10  H   UNL     1      -4.673  -1.803  -1.235  0.00  0.00    +0.173 HD
BRANCH   8  11
ATOM     11  C   UNL     1      -6.934  -0.880  -2.133  0.00  0.00    +0.104 A 
ATOM     12  C   UNL     1      -8.152  -0.465  -2.628  0.00  0.00    +0.047 A 
ATOM     13  C   UNL     1      -8.252   0.907  -2.376  0.00  0.00    +0.036 A 
ATOM     14  C   UNL     1      -7.119   1.298  -1.746  0.00  0.00    +0.098 A 
ATOM     15  N   UNL     1      -6.311   0.220  -1.587  0.00  0.00    -0.356 N 
ATOM     16  H   UNL     1      -5.439   0.223  -1.162  0.00  0.00    +0.166 HD
ATOM     17 BR   UNL     1      -9.711   2.019  -2.835  0.00  0.00    -0.049 Br
ENDBRANCH   8  11
ENDBRANCH   4   7
BRANCH   1  18
ATOM     18  C   UNL     1      -1.437  -3.390  -0.009  0.00  0.00    +0.105 C 
ATOM     19  C   UNL     1      -1.609  -3.892   1.426  0.00  0.00    +0.033 C 
BRANCH  18  23
ATOM     20  C   UNL     1      -0.018   1.503   0.010  0.00  0.00    +0.086 C 
ATOM     21  C   UNL     1       0.002  -0.004   0.002  0.00  0.00    +0.103 A 
ATOM     22  C   UNL     1      -1.078  -0.805   0.003  0.00  0.00    +0.050 A 
ATOM     23  C   UNL     1      -0.601  -2.136  -0.007  0.00  0.00    +0.013 A 
ATOM     24  C   UNL     1       0.742  -2.069  -0.013  0.00  0.00    +0.107 A 
ATOM     25  O   UNL     1       1.102  -0.775  -0.013  0.00  0.00    -0.465 OA
ATOM     26  C   UNL     1       1.684  -3.245  -0.023  0.00  0.00    +0.086 C 
ENDBRANCH  18  23
ENDBRANCH   1  18
TORSDOF 4
