REMARK  Name = ZINC55283368
REMARK  8 active torsions:
REMARK  status: ('A' for Active; 'I' for Inactive)
REMARK    1  A    between atoms: C_1  and  S_2
REMARK    2  A    between atoms: S_2  and  C_3
REMARK    3  A    between atoms: C_3  and  C_4
REMARK    4  A    between atoms: C_4  and  C_5
REMARK    5  A    between atoms: C_5  and  C_7
REMARK    6  A    between atoms: C_5  and  N_25
REMARK    7  A    between atoms: N_9  and  C_10
REMARK    8  A    between atoms: C_15  and  C_16
REMARK                            x       y       z     vdW  Elec       q    Type
REMARK                         _______ _______ _______ _____ _____    ______ ____
ROOT
ATOM      1  C   UNL     1       3.003  -5.767  -2.389  0.00  0.00    +0.046 A 
ATOM      2  C   UNL     1       2.144  -6.509  -3.189  0.00  0.00    +0.024 A 
ATOM      3  C   UNL     1       2.229  -7.886  -3.202  0.00  0.00    +0.002 A 
ATOM      4  C   UNL     1       3.169  -8.539  -2.421  0.00  0.00    +0.001 A 
ATOM      5  C   UNL     1       4.031  -7.819  -1.622  0.00  0.00    +0.015 A 
ATOM      6  C   UNL     1       3.960  -6.424  -1.602  0.00  0.00    +0.058 A 
ENDROOT
BRANCH   6   7
ATOM      7  C   UNL     1       4.883  -5.647  -0.753  0.00  0.00    +0.249 C 
ATOM      8  O   UNL     1       5.564  -4.767  -1.244  0.00  0.00    -0.270 OA
ATOM      9  N   UNL     1       4.972  -5.912   0.565  0.00  0.00    -0.287 N 
ATOM     10  C   UNL     1       5.959  -5.231   1.419  0.00  0.00    +0.127 C 
ATOM     11  C   UNL     1       5.202  -4.441   2.488  0.00  0.00    +0.123 C 
ATOM     12  N   UNL     1       4.160  -5.259   3.094  0.00  0.00    -0.313 N 
ATOM     13  C   UNL     1       3.616  -6.335   2.525  0.00  0.00    +0.230 C 
ATOM     14  O   UNL     1       2.699  -6.890   3.093  0.00  0.00    -0.274 OA
ATOM     15  C   UNL     1       4.082  -6.889   1.210  0.00  0.00    +0.203 C 
ATOM     16  H   UNL     1       3.840  -5.004   3.973  0.00  0.00    +0.149 HD
ENDBRANCH   6   7
BRANCH   1  19
ATOM     17  C   UNL     1       2.405  -3.721  -3.433  0.00  0.00    +0.203 C 
ATOM     18  O   UNL     1       2.112  -4.330  -4.440  0.00  0.00    -0.277 OA
ATOM     19  N   UNL     1       2.919  -4.377  -2.374  0.00  0.00    -0.286 N 
ATOM     20  H   UNL     1       3.231  -3.881  -1.601  0.00  0.00    +0.155 HD
BRANCH  17  21
ATOM     21  C   UNL     1       2.193  -2.230  -3.366  0.00  0.00    +0.014 C 
BRANCH  21  22
ATOM     22  N   UNL     1       2.093  -1.688  -4.727  0.00  0.00    +0.386 N 
ATOM     23  H   UNL     1       1.314  -2.117  -5.204  0.00  0.00    -0.089 HD
ATOM     24  H   UNL     1       1.951  -0.690  -4.682  0.00  0.00    -0.089 HD
ATOM     25  H   UNL     1       2.945  -1.884  -5.231  0.00  0.00    -0.089 HD
ENDBRANCH  21  22
BRANCH  21  26
ATOM     26  C   UNL     1       0.901  -1.933  -2.602  0.00  0.00    +0.003 C 
BRANCH  26  27
ATOM     27  C   UNL     1       0.749  -0.420  -2.426  0.00  0.00    +0.068 C 
BRANCH  27  29
ATOM     28  C   UNL     1      -0.812   1.742  -1.397  0.00  0.00    +0.084 C 
ATOM     29  S   UNL     1      -0.783  -0.068  -1.521  0.00  0.00    -0.164 S 
ENDBRANCH  27  29
ENDBRANCH  26  27
ENDBRANCH  21  26
ENDBRANCH  17  21
ENDBRANCH   1  19
TORSDOF 7
