REMARK  Name = ZINC63280081
REMARK  5 active torsions:
REMARK  status: ('A' for Active; 'I' for Inactive)
REMARK    1  A    between atoms: C_6  and  C_11
REMARK    2  A    between atoms: N_13  and  C_14
REMARK    3  A    between atoms: C_14  and  C_15
REMARK    4  A    between atoms: C_15  and  C_16
REMARK    5  A    between atoms: N_18  and  C_19
REMARK                            x       y       z     vdW  Elec       q    Type
REMARK                         _______ _______ _______ _____ _____    ______ ____
ROOT
ATOM      1  C   UNL     1       3.809  -4.725  -2.700  0.00  0.00    +0.113 C 
ENDROOT
BRANCH   1   4
ATOM      2  C   UNL     1       3.631  -2.749  -1.285  0.00  0.00    +0.239 C 
ATOM      3  O   UNL     1       4.291  -2.141  -2.101  0.00  0.00    -0.273 OA
ATOM      4  N   UNL     1       3.335  -4.048  -1.491  0.00  0.00    -0.313 N 
ATOM      5  H   UNL     1       2.807  -4.534  -0.838  0.00  0.00    +0.149 HD
BRANCH   2  11
ATOM      6  C   UNL     1      -0.016   1.348   0.009  0.00  0.00    +0.001 A 
ATOM      7  C   UNL     1       1.166   2.101   0.002  0.00  0.00    +0.002 A 
ATOM      8  C   UNL     1       2.391   1.535  -0.013  0.00  0.00    +0.026 A 
ATOM      9  C   UNL     1       2.529   0.120  -0.022  0.00  0.00    +0.043 A 
ATOM     10  N   UNL     1       3.587  -0.654  -0.037  0.00  0.00    -0.370 N 
ATOM     11  C   UNL     1       3.143  -2.053  -0.041  0.00  0.00    +0.190 C 
ATOM     12  C   UNL     1       1.631  -2.008  -0.025  0.00  0.00    +0.016 C 
ATOM     13  C   UNL     1       1.295  -0.698  -0.014  0.00  0.00    -0.004 A 
ATOM     14  C   UNL     1       0.002  -0.004   0.002  0.00  0.00    +0.010 A 
ATOM     15  H   UNL     1       4.509  -0.353  -0.045  0.00  0.00    +0.161 HD
ENDBRANCH   2  11
ENDBRANCH   1   4
BRANCH   1  16
ATOM     16  C   UNL     1       3.338  -6.180  -2.688  0.00  0.00    +0.114 C 
BRANCH  16  17
ATOM     17  C   UNL     1       3.827  -6.877  -3.932  0.00  0.00    +0.216 C 
ATOM     18  O   UNL     1       4.486  -6.268  -4.748  0.00  0.00    -0.276 OA
ATOM     19  N   UNL     1       3.530  -8.175  -4.138  0.00  0.00    -0.288 N 
ATOM     20  H   UNL     1       3.003  -8.662  -3.485  0.00  0.00    +0.151 HD
BRANCH  19  21
ATOM     21  C   UNL     1       4.005  -8.852  -5.348  0.00  0.00    +0.224 C 
ATOM     22  N   UNL     1       3.815 -10.306  -5.249  0.00  0.00    -0.316 N 
ATOM     23  C   UNL     1       2.970 -10.909  -6.179  0.00  0.00    +0.043 A 
ATOM     24  C   UNL     1       2.668 -12.282  -6.240  0.00  0.00    +0.024 A 
ATOM     25  C   UNL     1       1.819 -12.782  -7.200  0.00  0.00    +0.002 A 
ATOM     26  C   UNL     1       1.232 -11.952  -8.137  0.00  0.00    +0.001 A 
ATOM     27  C   UNL     1       1.510 -10.596  -8.100  0.00  0.00    +0.016 A 
ATOM     28  C   UNL     1       2.361 -10.096  -7.140  0.00  0.00    +0.032 A 
ATOM     29  S   UNL     1       2.941  -8.450  -6.791  0.00  0.00    -0.082 S 
ATOM     30  H   UNL     1       4.261 -10.826  -4.562  0.00  0.00    +0.149 HD
ENDBRANCH  19  21
ENDBRANCH  16  17
ENDBRANCH   1  16
TORSDOF 5
