REMARK  Name = ZINC31958822
REMARK  9 active torsions:
REMARK  status: ('A' for Active; 'I' for Inactive)
REMARK    1  A    between atoms: C_1  and  C_2
REMARK    2  A    between atoms: C_2  and  C_3
REMARK    3  A    between atoms: C_4  and  C_17
REMARK    4  A    between atoms: C_9  and  N_12
REMARK    5  A    between atoms: C_13  and  C_15
REMARK    6  A    between atoms: C_15  and  N_16
REMARK    7  A    between atoms: C_20  and  O_23
REMARK    8  A    between atoms: O_23  and  C_24
REMARK    9  A    between atoms: C_24  and  C_25
REMARK                            x       y       z     vdW  Elec       q    Type
REMARK                         _______ _______ _______ _____ _____    ______ ____
ROOT
ATOM      1  C   UNL     1      -0.759   3.021   1.244  0.00  0.00    +0.051 A 
ATOM      2  C   UNL     1       0.033   3.826   2.007  0.00  0.00    +0.093 A 
ATOM      3  N   UNL     1      -0.367   5.095   1.835  0.00  0.00    -0.228 NA
ATOM      4  C   UNL     1      -1.391   5.118   0.994  0.00  0.00    +0.139 A 
ATOM      5  N   UNL     1      -1.658   3.830   0.608  0.00  0.00    -0.301 N 
ATOM      6  C   UNL     1      -2.676   3.566  -0.265  0.00  0.00    +0.116 A 
ATOM      7  C   UNL     1      -3.438   4.572  -0.760  0.00  0.00    +0.050 A 
ATOM      8  C   UNL     1      -3.184   5.905  -0.379  0.00  0.00    +0.028 A 
ATOM      9  C   UNL     1      -2.173   6.176   0.488  0.00  0.00    +0.048 A 
ENDROOT
BRANCH   2  10
ATOM     10  C   UNL     1       1.147   3.375   2.877  0.00  0.00    +0.002 A 
ATOM     11  C   UNL     1       0.990   2.254   3.690  0.00  0.00    +0.013 A 
ATOM     12  C   UNL     1       2.030   1.835   4.494  0.00  0.00    +0.046 A 
ATOM     13  C   UNL     1       3.228   2.535   4.501  0.00  0.00    +0.121 A 
ATOM     14  C   UNL     1       3.386   3.655   3.697  0.00  0.00    +0.046 A 
ATOM     15  C   UNL     1       2.352   4.076   2.887  0.00  0.00    +0.013 A 
BRANCH  13  16
ATOM     16  O   UNL     1       4.249   2.123   5.298  0.00  0.00    -0.492 OA
BRANCH  16  17
ATOM     17  C   UNL     1       4.018   0.962   6.100  0.00  0.00    +0.225 C 
ATOM     18  C   UNL     1       5.271   0.654   6.923  0.00  0.00    +0.048 C 
ENDBRANCH  16  17
ENDBRANCH  13  16
ENDBRANCH   2  10
BRANCH   7  19
ATOM     19  N   UNL     1      -4.479   4.286  -1.655  0.00  0.00    -0.286 N 
ATOM     20  C   UNL     1      -5.597   5.039  -1.650  0.00  0.00    +0.200 C 
ATOM     21  O   UNL     1      -5.744   5.902  -0.811  0.00  0.00    -0.278 OA
ATOM     22  H   UNL     1      -4.384   3.447  -2.361  0.00  0.00    +0.155 HD
BRANCH  20  23
ATOM     23  C   UNL     1      -6.666   4.807  -2.687  0.00  0.00    +0.011 C 
BRANCH  23  24
ATOM     24  N   UNL     1      -7.773   5.748  -2.468  0.00  0.00    +0.384 N 
ATOM     25  H   UNL     1      -8.553   5.579  -3.225  0.00  0.00    -0.089 HD
ATOM     26  H   UNL     1      -7.399   6.779  -2.551  0.00  0.00    -0.089 HD
ATOM     27  H   UNL     1      -8.195   5.590  -1.465  0.00  0.00    -0.089 HD
ENDBRANCH  23  24
ENDBRANCH  20  23
ENDBRANCH   7  19
BRANCH   1  29
ATOM     28  C   UNL     1       0.179   1.157  -0.096  0.00  0.00    +0.010 C 
ATOM     29  C   UNL     1      -0.664   1.522   1.127  0.00  0.00    +0.052 C 
ENDBRANCH   1  29
TORSDOF 7
