REMARK  Name = ZINC66240569
REMARK  9 active torsions:
REMARK  status: ('A' for Active; 'I' for Inactive)
REMARK    1  A    between atoms: C_3  and  N_22
REMARK    2  A    between atoms: C_6  and  C_7
REMARK    3  A    between atoms: N_9  and  C_10
REMARK    4  A    between atoms: C_13  and  O_16
REMARK    5  A    between atoms: O_16  and  C_17
REMARK    6  A    between atoms: C_17  and  C_18
REMARK    7  A    between atoms: C_18  and  C_19
REMARK    8  A    between atoms: C_23  and  N_29
REMARK    9  A    between atoms: C_24  and  C_27
REMARK                            x       y       z     vdW  Elec       q    Type
REMARK                         _______ _______ _______ _____ _____    ______ ____
ROOT
ATOM      1  C   UNL     1      -1.265  -0.761   0.013  0.00  0.00    +0.248 C 
ATOM      2  O   UNL     1      -2.327  -0.169   0.035  0.00  0.00    -0.270 OA
ATOM      3  N   UNL     1      -1.245  -2.109   0.003  0.00  0.00    -0.281 N 
ATOM      4  H   UNL     1      -0.402  -2.581  -0.082  0.00  0.00    +0.155 HD
ENDROOT
BRANCH   1  10
ATOM      5  C   UNL     1      -0.017   1.393   0.006  0.00  0.00    +0.015 A 
ATOM      6  C   UNL     1       1.167   2.096  -0.010  0.00  0.00    +0.028 A 
ATOM      7  C   UNL     1       2.381   1.417  -0.035  0.00  0.00    +0.067 A 
ATOM      8  C   UNL     1       2.404   0.026  -0.045  0.00  0.00    +0.028 A 
ATOM      9  C   UNL     1       1.223  -0.683  -0.029  0.00  0.00    +0.015 A 
ATOM     10  C   UNL     1       0.002  -0.004  -0.004  0.00  0.00    +0.037 A 
BRANCH   7  11
ATOM     11  N   UNL     1       3.581   2.134  -0.051  0.00  0.00    -0.218 N 
ATOM     12  C   UNL     1       4.739   1.760   0.553  0.00  0.00    +0.137 A 
ATOM     13  C   UNL     1       5.676   2.755   0.287  0.00  0.00    +0.111 A 
ATOM     14  C   UNL     1       5.028   3.734  -0.502  0.00  0.00    +0.155 A 
ATOM     15  N   UNL     1       3.796   3.355  -0.698  0.00  0.00    -0.172 NA
BRANCH  12  16
ATOM     16  N   UNL     1       4.946   0.613   1.293  0.00  0.00    -0.342 N 
ATOM     17  H   UNL     1       4.222  -0.020   1.420  0.00  0.00    +0.144 HD
ATOM     18  H   UNL     1       5.816   0.439   1.685  0.00  0.00    +0.144 HD
ENDBRANCH  12  16
BRANCH  13  19
ATOM     19  C   UNL     1       7.038   2.781   0.727  0.00  0.00    +0.104 C 
ATOM     20  N   UNL     1       8.118   2.802   1.077  0.00  0.00    -0.191 NA
ENDBRANCH  13  19
ENDBRANCH   7  11
ENDBRANCH   1  10
BRANCH   3  21
ATOM     21  C   UNL     1      -2.441  -2.828   0.117  0.00  0.00    +0.034 A 
ATOM     22  C   UNL     1      -2.466  -4.029   0.812  0.00  0.00    +0.027 A 
ATOM     23  C   UNL     1      -3.647  -4.737   0.924  0.00  0.00    +0.047 A 
ATOM     24  C   UNL     1      -4.807  -4.249   0.342  0.00  0.00    +0.121 A 
ATOM     25  C   UNL     1      -4.783  -3.048  -0.353  0.00  0.00    +0.047 A 
ATOM     26  C   UNL     1      -3.605  -2.336  -0.461  0.00  0.00    +0.027 A 
BRANCH  24  27
ATOM     27  O   UNL     1      -5.969  -4.947   0.452  0.00  0.00    -0.491 OA
BRANCH  27  28
ATOM     28  C   UNL     1      -7.125  -4.385  -0.172  0.00  0.00    +0.238 C 
BRANCH  28  29
ATOM     29  C   UNL     1      -8.326  -5.304   0.057  0.00  0.00    +0.136 C 
BRANCH  29  30
ATOM     30  C   UNL     1      -9.545  -4.712  -0.601  0.00  0.00    +0.214 C 
ATOM     31  O   UNL     1      -9.462  -3.657  -1.194  0.00  0.00    -0.276 OA
ATOM     32  N   UNL     1     -10.729  -5.353  -0.529  0.00  0.00    -0.329 N 
ATOM     33  H   UNL     1     -10.795  -6.196  -0.054  0.00  0.00    +0.145 HD
ATOM     34  H   UNL     1     -11.513  -4.971  -0.953  0.00  0.00    +0.145 HD
ENDBRANCH  29  30
ENDBRANCH  28  29
ENDBRANCH  27  28
ENDBRANCH  24  27
ENDBRANCH   3  21
TORSDOF 9
