REMARK  Name = ZINC39638655
REMARK  11 active torsions:
REMARK  status: ('A' for Active; 'I' for Inactive)
REMARK    1  A    between atoms: C_1  and  C_2
REMARK    2  A    between atoms: C_2  and  O_3
REMARK    3  A    between atoms: O_3  and  C_4
REMARK    4  A    between atoms: C_9  and  C_10
REMARK    5  A    between atoms: C_10  and  N_11
REMARK    6  A    between atoms: C_12  and  C_14
REMARK    7  A    between atoms: C_25  and  C_27
REMARK    8  A    between atoms: C_31  and  O_34
REMARK    9  A    between atoms: C_32  and  C_33
REMARK   10  A    between atoms: O_34  and  C_35
REMARK   11  A    between atoms: C_35  and  C_37
REMARK                            x       y       z     vdW  Elec       q    Type
REMARK                         _______ _______ _______ _____ _____    ______ ____
ROOT
ATOM      1  C   UNL     1      -5.972   0.418  -3.320  0.00  0.00    +0.100 C 
ATOM      2  C   UNL     1      -4.773   1.340  -3.639  0.00  0.00    +0.121 C 
ATOM      3  N   UNL     1      -5.346   2.424  -4.472  0.00  0.00    -0.296 N 
ATOM      4  C   UNL     1      -6.665   2.705  -3.855  0.00  0.00    +0.115 C 
ATOM      5  C   UNL     1      -7.211   1.318  -3.462  0.00  0.00    -0.004 C 
ATOM      6  C   UNL     1      -7.958   1.403  -2.134  0.00  0.00    -0.010 C 
ATOM      7  C   UNL     1      -9.217   2.255  -2.316  0.00  0.00    -0.082 C 
ATOM      8  N   UNL     1     -10.074   1.653  -3.344  0.00  0.00    +0.379 N 
ATOM      9  C   UNL     1      -9.382   1.660  -4.639  0.00  0.00    -0.082 C 
ATOM     10  C   UNL     1      -8.130   0.783  -4.556  0.00  0.00    -0.010 C 
ATOM     11  C   UNL     1      -4.793   3.018  -5.547  0.00  0.00    +0.247 C 
ATOM     12  O   UNL     1      -5.349   3.963  -6.072  0.00  0.00    -0.270 OA
ATOM     13  H   UNL     1     -10.290   0.702  -3.085  0.00  0.00    -0.086 HD
ATOM     14  H   UNL     1     -10.930   2.181  -3.419  0.00  0.00    -0.086 HD
ENDROOT
BRANCH  11  15
ATOM     15  C   UNL     1      -3.510   2.522  -6.089  0.00  0.00    +0.043 A 
ATOM     16  C   UNL     1      -2.524   2.042  -5.224  0.00  0.00    +0.013 A 
ATOM     17  C   UNL     1      -1.328   1.579  -5.733  0.00  0.00    +0.004 A 
ATOM     18  C   UNL     1      -1.101   1.589  -7.097  0.00  0.00    +0.047 A 
ATOM     19  C   UNL     1      -2.075   2.065  -7.964  0.00  0.00    +0.135 A 
ATOM     20  C   UNL     1      -3.282   2.527  -7.465  0.00  0.00    +0.004 A 
ATOM     21  C   UNL     1      -4.343   3.039  -8.405  0.00  0.00    +0.048 C 
BRANCH  19  22
ATOM     22  O   UNL     1      -1.847   2.073  -9.304  0.00  0.00    -0.426 OA
BRANCH  22  23
ATOM     23  C   UNL     1      -1.350   3.193  -9.852  0.00  0.00    +0.309 C 
ATOM     24  O   UNL     1      -1.031   4.121  -9.147  0.00  0.00    -0.251 OA
ATOM     25  C   UNL     1      -1.188   3.293 -11.347  0.00  0.00    +0.136 C 
ENDBRANCH  22  23
ENDBRANCH  19  22
ENDBRANCH  11  15
BRANCH   1  27
ATOM     26  N   UNL     1      -6.433  -1.291  -1.592  0.00  0.00    -0.311 N 
ATOM     27  C   UNL     1      -5.867  -0.111  -1.912  0.00  0.00    +0.218 C 
ATOM     28  O   UNL     1      -5.272   0.525  -1.068  0.00  0.00    -0.275 OA
ATOM     29  H   UNL     1      -6.909  -1.800  -2.267  0.00  0.00    +0.149 HD
BRANCH  26  30
ATOM     30  C   UNL     1      -6.331  -1.805  -0.224  0.00  0.00    +0.143 C 
BRANCH  30  36
ATOM     31  C   UNL     1      -6.418  -4.287  -0.576  0.00  0.00    +0.125 A 
ATOM     32  C   UNL     1      -7.074  -5.506  -0.484  0.00  0.00    +0.046 A 
ATOM     33  C   UNL     1      -8.349  -5.564   0.045  0.00  0.00    +0.004 A 
ATOM     34  C   UNL     1      -8.972  -4.410   0.482  0.00  0.00    +0.001 A 
ATOM     35  C   UNL     1      -8.320  -3.194   0.391  0.00  0.00    +0.009 A 
ATOM     36  C   UNL     1      -7.043  -3.130  -0.131  0.00  0.00    +0.011 A 
BRANCH  31  37
ATOM     37  O   UNL     1      -5.164  -4.226  -1.095  0.00  0.00    -0.492 OA
BRANCH  37  39
ATOM     38  C   UNL     1      -3.180  -5.191  -2.082  0.00  0.00    +0.048 C 
ATOM     39  C   UNL     1      -4.583  -5.456  -1.532  0.00  0.00    +0.225 C 
ENDBRANCH  37  39
ENDBRANCH  31  37
ENDBRANCH  30  36
ENDBRANCH  26  30
ENDBRANCH   1  27
TORSDOF 8
