REMARK  Name = ZINC58094530
REMARK  7 active torsions:
REMARK  status: ('A' for Active; 'I' for Inactive)
REMARK    1  A    between atoms: C_1  and  C_2
REMARK    2  A    between atoms: C_4  and  C_14
REMARK    3  A    between atoms: C_11  and  C_13
REMARK    4  A    between atoms: C_14  and  C_16
REMARK    5  A    between atoms: C_14  and  N_19
REMARK    6  A    between atoms: C_16  and  C_17
REMARK    7  A    between atoms: C_16  and  C_18
REMARK                            x       y       z     vdW  Elec       q    Type
REMARK                         _______ _______ _______ _____ _____    ______ ____
ROOT
ATOM      1  C   UNL     1      -0.018   1.503   0.010  0.00  0.00    +0.045 C 
ATOM      2  C   UNL     1       0.002  -0.004   0.002  0.00  0.00    -0.029 A 
ATOM      3  C   UNL     1       0.006  -0.686  -1.198  0.00  0.00    +0.007 A 
ATOM      4  C   UNL     1       0.024  -2.068  -1.216  0.00  0.00    -0.061 A 
ATOM      5  C   UNL     1       0.039  -2.773  -0.024  0.00  0.00    +0.008 A 
ATOM      6  C   UNL     1       0.036  -2.095   1.174  0.00  0.00    -0.014 A 
ATOM      7  C   UNL     1       0.023  -0.706   1.206  0.00  0.00    +0.040 A 
ATOM      8  N   UNL     1       0.029  -0.253   2.525  0.00  0.00    -0.285 N 
ATOM      9  C   UNL     1       0.052  -1.264   3.410  0.00  0.00    +0.224 C 
ATOM     10  O   UNL     1       0.062  -1.164   4.619  0.00  0.00    -0.275 OA
ATOM     11  C   UNL     1       0.049  -2.553   2.614  0.00  0.00    +0.104 C 
ATOM     12  C   UNL     1      -1.197  -3.386   2.923  0.00  0.00    +0.022 C 
ATOM     13  H   UNL     1       0.019   0.684   2.776  0.00  0.00    +0.155 HD
ENDROOT
BRANCH   4  14
ATOM     14  C   UNL     1       0.027  -2.807  -2.530  0.00  0.00    -0.042 C 
BRANCH  14  15
ATOM     15  N   UNL     1      -0.877  -2.134  -3.471  0.00  0.00    +0.383 N 
ATOM     16  H   UNL     1      -0.876  -2.628  -4.351  0.00  0.00    -0.089 HD
ATOM     17  H   UNL     1      -1.812  -2.125  -3.092  0.00  0.00    -0.089 HD
ATOM     18  H   UNL     1      -0.565  -1.185  -3.618  0.00  0.00    -0.089 HD
ENDBRANCH  14  15
BRANCH  14  19
ATOM     19  C   UNL     1       1.445  -2.819  -3.104  0.00  0.00    -0.028 C 
ATOM     20  C   UNL     1       2.386  -3.520  -2.123  0.00  0.00    +0.006 C 
ATOM     21  C   UNL     1       1.448  -3.569  -4.438  0.00  0.00    +0.006 C 
ENDBRANCH  14  19
ENDBRANCH   4  14
TORSDOF 3
