REMARK  Name = ZINC42690867
REMARK  10 active torsions:
REMARK  status: ('A' for Active; 'I' for Inactive)
REMARK    1  A    between atoms: C_1  and  C_2
REMARK    2  A    between atoms: C_2  and  C_3
REMARK    3  A    between atoms: C_2  and  C_4
REMARK    4  A    between atoms: C_4  and  N_5
REMARK    5  A    between atoms: N_5  and  C_6
REMARK    6  A    between atoms: N_5  and  C_10
REMARK    7  A    between atoms: C_6  and  C_7
REMARK    8  A    between atoms: C_10  and  C_11
REMARK    9  A    between atoms: N_13  and  C_14
REMARK   10  A    between atoms: C_16  and  N_21
REMARK                            x       y       z     vdW  Elec       q    Type
REMARK                         _______ _______ _______ _____ _____    ______ ____
ROOT
ATOM      1  C   UNL     1       0.945  -2.564  -0.023  0.00  0.00    +0.201 C 
ATOM      2  O   UNL     1       1.244  -1.435  -0.351  0.00  0.00    -0.278 OA
ATOM      3  N   UNL     1       1.858  -3.357   0.572  0.00  0.00    -0.286 N 
ATOM      4  H   UNL     1       1.645  -4.285   0.761  0.00  0.00    +0.155 HD
ENDROOT
BRANCH   3   5
ATOM      5  C   UNL     1       3.113  -2.843   0.916  0.00  0.00    +0.054 A 
ATOM      6  C   UNL     1       3.262  -1.488   1.171  0.00  0.00    +0.047 A 
ATOM      7  C   UNL     1       4.508  -0.982   1.513  0.00  0.00    +0.026 A 
ATOM      8  C   UNL     1       5.603  -1.833   1.599  0.00  0.00    +0.024 A 
ATOM      9  C   UNL     1       5.452  -3.183   1.344  0.00  0.00    +0.023 A 
ATOM     10  C   UNL     1       4.210  -3.691   1.010  0.00  0.00    +0.062 A 
ATOM     11 CL   UNL     1       4.024  -5.389   0.698  0.00  0.00    -0.082 Cl
BRANCH   7  12
ATOM     12  N   UNL     1       4.662   0.383   1.770  0.00  0.00    -0.358 N 
ATOM     13  H   UNL     1       3.898   0.977   1.710  0.00  0.00    +0.142 HD
ATOM     14  H   UNL     1       5.534   0.737   2.009  0.00  0.00    +0.142 HD
ENDBRANCH   7  12
ENDBRANCH   3   5
BRANCH   1  15
ATOM     15  C   UNL     1      -0.447  -3.080  -0.282  0.00  0.00    +0.020 C 
BRANCH  15  16
ATOM     16  N   UNL     1      -1.269  -2.005  -0.855  0.00  0.00    +0.391 N 
ATOM     17  H   UNL     1      -0.819  -1.642  -1.681  0.00  0.00    -0.080 HD
BRANCH  16  18
ATOM     18  C   UNL     1      -1.423  -0.928   0.132  0.00  0.00    -0.075 C 
BRANCH  18  20
ATOM     19  C   UNL     1      -2.595   1.225   0.618  0.00  0.00    +0.005 C 
ATOM     20  C   UNL     1      -2.275   0.194  -0.466  0.00  0.00    -0.034 C 
ATOM     21  C   UNL     1      -1.503   0.870  -1.601  0.00  0.00    +0.005 C 
ENDBRANCH  18  20
ENDBRANCH  16  18
BRANCH  16  22
ATOM     22  C   UNL     1      -2.592  -2.537  -1.210  0.00  0.00    +0.019 C 
BRANCH  22  23
ATOM     23  C   UNL     1      -2.933  -2.132  -2.621  0.00  0.00    +0.194 C 
ATOM     24  O   UNL     1      -2.110  -1.560  -3.304  0.00  0.00    -0.278 OA
ATOM     25  N   UNL     1      -4.154  -2.405  -3.124  0.00  0.00    -0.331 N 
ATOM     26  H   UNL     1      -4.812  -2.862  -2.577  0.00  0.00    +0.145 HD
ATOM     27  H   UNL     1      -4.373  -2.144  -4.032  0.00  0.00    +0.145 HD
ENDBRANCH  22  23
ENDBRANCH  16  22
ENDBRANCH  15  16
ENDBRANCH   1  15
TORSDOF 8
