REMARK  Name = ZINC23339537
REMARK  10 active torsions:
REMARK  status: ('A' for Active; 'I' for Inactive)
REMARK    1  A    between atoms: C_1  and  C_2
REMARK    2  A    between atoms: C_8  and  C_10
REMARK    3  A    between atoms: C_10  and  C_11
REMARK    4  A    between atoms: C_11  and  C_12
REMARK    5  A    between atoms: N_15  and  C_36
REMARK    6  A    between atoms: C_18  and  N_20
REMARK    7  A    between atoms: N_23  and  C_26
REMARK    8  A    between atoms: C_30  and  C_32
REMARK    9  A    between atoms: C_36  and  C_37
REMARK   10  A    between atoms: C_36  and  C_38
REMARK                            x       y       z     vdW  Elec       q    Type
REMARK                         _______ _______ _______ _____ _____    ______ ____
ROOT
ATOM      1  C   UNL     1       6.342  -1.243   2.256  0.00  0.00    -0.010 C 
ATOM      2  C   UNL     1       7.655  -2.027   2.308  0.00  0.00    +0.086 C 
ATOM      3  N   UNL     1       7.731  -2.934   1.155  0.00  0.00    -0.300 NA
ATOM      4  C   UNL     1       7.722  -2.187  -0.109  0.00  0.00    +0.083 C 
ATOM      5  C   UNL     1       6.411  -1.408  -0.234  0.00  0.00    +0.000 C 
ATOM      6  C   UNL     1       6.281  -0.445   0.950  0.00  0.00    -0.063 C 
ENDROOT
BRANCH   6   7
ATOM      7  N   UNL     1       4.997   0.264   0.867  0.00  0.00    +0.384 N 
ATOM      8  C   UNL     1       4.870   1.252   1.948  0.00  0.00    -0.059 C 
ATOM      9  C   UNL     1       3.491   1.911   1.874  0.00  0.00    +0.086 C 
ATOM     10  N   UNL     1       3.325   2.548   0.560  0.00  0.00    -0.333 N 
ATOM     11  C   UNL     1       3.451   1.560  -0.520  0.00  0.00    +0.086 C 
ATOM     12  C   UNL     1       4.831   0.901  -0.447  0.00  0.00    -0.059 C 
ATOM     13  H   UNL     1       4.194  -0.478   0.989  0.00  0.00    -0.081 HD
BRANCH  10  14
ATOM     14  C   UNL     1       2.104   3.222   0.482  0.00  0.00    +0.030 A 
ATOM     15  C   UNL     1       1.238   3.223   1.569  0.00  0.00    +0.023 A 
ATOM     16  C   UNL     1       0.032   3.891   1.488  0.00  0.00    +0.002 A 
ATOM     17  C   UNL     1      -0.314   4.558   0.327  0.00  0.00    +0.012 A 
ATOM     18  C   UNL     1       0.548   4.564  -0.754  0.00  0.00    +0.057 A 
ATOM     19  C   UNL     1       1.753   3.893  -0.682  0.00  0.00    +0.035 A 
BRANCH  18  20
ATOM     20  C   UNL     1       0.169   5.297  -2.015  0.00  0.00    +0.417 C 
ATOM     21  F   UNL     1      -0.527   4.433  -2.866  0.00  0.00    -0.166 F 
ATOM     22  F   UNL     1      -0.643   6.390  -1.693  0.00  0.00    -0.166 F 
ATOM     23  F   UNL     1       1.327   5.751  -2.656  0.00  0.00    -0.166 F 
ENDBRANCH  18  20
ENDBRANCH  10  14
ENDBRANCH   6   7
BRANCH   3  24
ATOM     24  C   UNL     1       8.912  -3.802   1.246  0.00  0.00    +0.050 C 
ATOM     25  C   UNL     1       8.888  -4.817   0.101  0.00  0.00    +0.024 C 
ATOM     26  C   UNL     1      10.180  -2.951   1.145  0.00  0.00    +0.024 C 
ENDBRANCH   3  24
BRANCH   1  27
ATOM     27  C   UNL     1       5.163  -2.216   2.315  0.00  0.00    +0.012 C 
BRANCH  27  28
ATOM     28  C   UNL     1       5.140  -2.907   3.680  0.00  0.00    +0.096 C 
BRANCH  28  36
ATOM     29  C   UNL     1       1.877  -4.933   8.654  0.00  0.00    +0.007 C 
ATOM     30  C   UNL     1       2.709  -5.221   7.403  0.00  0.00    -0.011 C 
ATOM     31  C   UNL     1       1.801  -5.207   6.171  0.00  0.00    +0.022 C 
ATOM     32  C   UNL     1       2.631  -5.530   4.925  0.00  0.00    +0.108 C 
ATOM     33  N   UNL     1       3.760  -4.591   4.853  0.00  0.00    -0.301 N 
ATOM     34  C   UNL     1       4.647  -4.463   6.017  0.00  0.00    +0.108 C 
ATOM     35  C   UNL     1       3.791  -4.148   7.252  0.00  0.00    +0.022 C 
ATOM     36  C   UNL     1       3.979  -3.866   3.739  0.00  0.00    +0.216 C 
ATOM     37  O   UNL     1       3.242  -3.985   2.783  0.00  0.00    -0.276 OA
ENDBRANCH  28  36
ENDBRANCH  27  28
ENDBRANCH   1  27
TORSDOF 7
