REMARK  Name = ZINC39351930
REMARK  4 active torsions:
REMARK  status: ('A' for Active; 'I' for Inactive)
REMARK    1  A    between atoms: C_4  and  O_7
REMARK    2  A    between atoms: O_7  and  C_8
REMARK    3  A    between atoms: C_13  and  C_18
REMARK    4  A    between atoms: C_22  and  C_25
REMARK                            x       y       z     vdW  Elec       q    Type
REMARK                         _______ _______ _______ _____ _____    ______ ____
ROOT
ATOM      1  C   UNL     1       3.657  -1.988  -0.011  0.00  0.00    +0.129 A 
ATOM      2  C   UNL     1       2.465  -2.732  -0.048  0.00  0.00    +0.048 A 
ATOM      3  C   UNL     1       2.449  -4.082  -0.026  0.00  0.00    +0.029 A 
ATOM      4  C   UNL     1       3.712  -4.824   0.039  0.00  0.00    +0.043 A 
ATOM      5  N   UNL     1       3.974  -6.107   0.071  0.00  0.00    -0.375 N 
ATOM      6  C   UNL     1       5.429  -6.286   0.134  0.00  0.00    +0.131 C 
ATOM      7  C   UNL     1       6.019  -4.893   0.135  0.00  0.00    +0.009 C 
ATOM      8  C   UNL     1       4.969  -4.042   0.077  0.00  0.00    -0.000 A 
ATOM      9  C   UNL     1       4.876  -2.578   0.043  0.00  0.00    +0.056 A 
ATOM     10  H   UNL     1       3.316  -6.819   0.057  0.00  0.00    +0.160 HD
ENDROOT
BRANCH   6  11
ATOM     11  C   UNL     1       5.814  -7.024   1.418  0.00  0.00    +0.154 C 
ATOM     12  N   UNL     1       5.289  -8.425   1.421  0.00  0.00    -0.240 NA
ATOM     13  N   UNL     1       6.059  -9.244   2.350  0.00  0.00    -0.237 NA
ATOM     14  C   UNL     1       7.525  -9.097   2.134  0.00  0.00    +0.176 C 
ATOM     15  S   UNL     1       7.625  -7.378   1.474  0.00  0.00    -0.112 S 
ATOM     16  H   UNL     1       5.306  -8.820   0.493  0.00  0.00    +0.142 HD
ATOM     17  H   UNL     1       5.780 -10.212   2.296  0.00  0.00    +0.142 HD
BRANCH  14  18
ATOM     18  C   UNL     1       8.280  -9.223   3.432  0.00  0.00    +0.069 A 
ATOM     19  C   UNL     1       7.790 -10.044   4.430  0.00  0.00    +0.026 A 
ATOM     20  C   UNL     1       8.491 -10.152   5.621  0.00  0.00    +0.003 A 
ATOM     21  C   UNL     1       9.665  -9.427   5.764  0.00  0.00    +0.020 A 
ATOM     22  C   UNL     1      10.093  -8.627   4.722  0.00  0.00    +0.111 A 
ATOM     23  N   UNL     1       9.402  -8.552   3.601  0.00  0.00    -0.257 NA
ENDBRANCH  14  18
ENDBRANCH   6  11
BRANCH   1  24
ATOM     24  O   UNL     1       3.586  -0.631  -0.037  0.00  0.00    -0.456 OA
BRANCH  24  28
ATOM     25  C   UNL     1       3.287   1.361   3.563  0.00  0.00    +0.000 A 
ATOM     26  C   UNL     1       3.366  -0.020   3.543  0.00  0.00    +0.004 A 
ATOM     27  C   UNL     1       3.466  -0.689   2.338  0.00  0.00    +0.046 A 
ATOM     28  C   UNL     1       3.487   0.025   1.149  0.00  0.00    +0.128 A 
ATOM     29  C   UNL     1       3.407   1.410   1.172  0.00  0.00    +0.046 A 
ATOM     30  C   UNL     1       3.307   2.074   2.379  0.00  0.00    +0.004 A 
ENDBRANCH  24  28
ENDBRANCH   1  24
TORSDOF 4
