REMARK  Name = ZINC20126277
REMARK  5 active torsions:
REMARK  status: ('A' for Active; 'I' for Inactive)
REMARK    1  A    between atoms: C_1  and  C_2
REMARK    2  A    between atoms: C_7  and  C_8
REMARK    3  A    between atoms: C_8  and  C_10
REMARK    4  A    between atoms: C_8  and  N_11
REMARK    5  A    between atoms: N_11  and  C_12
REMARK                            x       y       z     vdW  Elec       q    Type
REMARK                         _______ _______ _______ _____ _____    ______ ____
ROOT
ATOM      1  N   UNL     1      -0.494  -0.848   3.480  0.00  0.00    +0.394 N 
ATOM      2  H   UNL     1      -1.392  -1.235   3.229  0.00  0.00    -0.083 HD
ATOM      3  H   UNL     1       0.170  -1.596   3.611  0.00  0.00    -0.083 HD
ENDROOT
BRANCH   1   4
ATOM      4  C   UNL     1      -0.622  -0.081   4.726  0.00  0.00    +0.050 C 
ATOM      5  C   UNL     1      -1.810   0.850   4.656  0.00  0.00    -0.031 A 
ATOM      6  C   UNL     1      -2.126   1.904   3.828  0.00  0.00    +0.007 A 
ATOM      7  C   UNL     1      -3.314   2.590   4.005  0.00  0.00    +0.038 A 
ATOM      8  C   UNL     1      -4.183   2.212   5.016  0.00  0.00    +0.125 A 
ATOM      9  C   UNL     1      -3.868   1.155   5.847  0.00  0.00    +0.061 A 
ATOM     10  C   UNL     1      -2.672   0.461   5.674  0.00  0.00    +0.038 A 
ATOM     11  N   UNL     1      -2.137  -0.622   6.372  0.00  0.00    -0.286 N 
ATOM     12  C   UNL     1      -0.940  -1.002   5.885  0.00  0.00    +0.208 C 
ATOM     13  O   UNL     1      -0.248  -1.910   6.295  0.00  0.00    -0.277 OA
ATOM     14  F   UNL     1      -5.344   2.881   5.189  0.00  0.00    -0.205 F 
ATOM     15  H   UNL     1      -2.575  -1.051   7.123  0.00  0.00    +0.155 HD
ENDBRANCH   1   4
BRANCH   1  16
ATOM     16  C   UNL     1      -0.026   0.038   2.405  0.00  0.00    -0.042 C 
ATOM     17  C   UNL     1       1.393   0.515   2.720  0.00  0.00    -0.009 C 
BRANCH  16  24
ATOM     18  C   UNL     1      -0.038   1.488  -0.094  0.00  0.00    +0.044 C 
ATOM     19  C   UNL     1      -0.032  -0.019  -0.097  0.00  0.00    -0.049 A 
ATOM     20  C   UNL     1      -0.026  -0.708  -1.295  0.00  0.00    +0.003 A 
ATOM     21  C   UNL     1      -0.020  -2.090  -1.298  0.00  0.00    +0.000 A 
ATOM     22  C   UNL     1      -0.020  -2.784  -0.102  0.00  0.00    +0.000 A 
ATOM     23  C   UNL     1      -0.025  -2.095   1.096  0.00  0.00    +0.002 A 
ATOM     24  C   UNL     1      -0.026  -0.713   1.099  0.00  0.00    -0.059 A 
ENDBRANCH  16  24
ENDBRANCH   1  16
TORSDOF 3
