REMARK  Name = ZINC37138044
REMARK  7 active torsions:
REMARK  status: ('A' for Active; 'I' for Inactive)
REMARK    1  A    between atoms: C_1  and  C_2
REMARK    2  A    between atoms: C_2  and  C_4
REMARK    3  A    between atoms: C_2  and  N_11
REMARK    4  A    between atoms: C_9  and  O_10
REMARK    5  A    between atoms: N_11  and  C_12
REMARK    6  A    between atoms: C_15  and  S_19
REMARK    7  A    between atoms: S_19  and  N_22
REMARK                            x       y       z     vdW  Elec       q    Type
REMARK                         _______ _______ _______ _____ _____    ______ ____
ROOT
ATOM      1  C   UNL     1      -0.019  -0.613  -2.401  0.00  0.00    +0.042 A 
ATOM      2  C   UNL     1      -1.370  -0.296  -2.452  0.00  0.00    +0.026 A 
ATOM      3  C   UNL     1      -2.066  -0.431  -3.637  0.00  0.00    +0.030 A 
ATOM      4  C   UNL     1      -1.418  -0.882  -4.773  0.00  0.00    +0.106 A 
ATOM      5  C   UNL     1      -0.073  -1.199  -4.727  0.00  0.00    +0.045 A 
ATOM      6  C   UNL     1       0.630  -1.061  -3.545  0.00  0.00    +0.041 A 
ATOM      7 BR   UNL     1       2.471  -1.488  -3.484  0.00  0.00    -0.048 Br
ENDROOT
BRANCH   4   8
ATOM      8  S   UNL     1      -2.310  -1.054  -6.283  0.00  0.00    +0.056 S 
ATOM      9  O   UNL     1      -1.607  -2.011  -7.063  0.00  0.00    -0.153 OA
ATOM     10  O   UNL     1      -3.678  -1.214  -5.931  0.00  0.00    -0.153 OA
BRANCH   8  11
ATOM     11  N   UNL     1      -2.194   0.389  -7.088  0.00  0.00    -0.204 NA
ATOM     12  H   UNL     1      -2.212   0.406  -8.057  0.00  0.00    +0.144 HD
ATOM     13  H   UNL     1      -2.108   1.216  -6.589  0.00  0.00    +0.144 HD
ENDBRANCH   8  11
ENDBRANCH   4   8
BRANCH   1  14
ATOM     14  N   UNL     1       0.688  -0.476  -1.203  0.00  0.00    -0.336 N 
ATOM     15  H   UNL     1       1.632  -0.695  -1.170  0.00  0.00    +0.147 HD
BRANCH  14  17
ATOM     16  C   UNL     1      -0.019   1.526   0.010  0.00  0.00    +0.033 C 
ATOM     17  C   UNL     1       0.002  -0.004   0.002  0.00  0.00    +0.101 C 
BRANCH  17  18
ATOM     18  C   UNL     1       0.731  -0.503   1.223  0.00  0.00    +0.014 A 
ATOM     19  C   UNL     1       2.076  -0.808   1.148  0.00  0.00    +0.009 A 
ATOM     20  C   UNL     1       2.746  -1.266   2.268  0.00  0.00    +0.001 A 
ATOM     21  C   UNL     1       2.071  -1.421   3.465  0.00  0.00    +0.004 A 
ATOM     22  C   UNL     1       0.725  -1.117   3.545  0.00  0.00    +0.046 A 
ATOM     23  C   UNL     1       0.053  -0.652   2.424  0.00  0.00    +0.122 A 
BRANCH  23  24
ATOM     24  O   UNL     1      -1.269  -0.347   2.501  0.00  0.00    -0.506 OA
ATOM     25  H   UNL     1      -1.856  -1.090   2.305  0.00  0.00    +0.292 HD
ENDBRANCH  23  24
ENDBRANCH  17  18
ENDBRANCH  14  17
ENDBRANCH   1  14
TORSDOF 6
