REMARK  Name = ZINC17146148
REMARK  4 active torsions:
REMARK  status: ('A' for Active; 'I' for Inactive)
REMARK    1  A    between atoms: C_1  and  N_2
REMARK    2  A    between atoms: C_10  and  O_24
REMARK    3  A    between atoms: C_12  and  C_15
REMARK    4  A    between atoms: C_20  and  O_21
REMARK                            x       y       z     vdW  Elec       q    Type
REMARK                         _______ _______ _______ _____ _____    ______ ____
ROOT
ATOM      1  C   UNL     1      -0.018   1.465   0.010  0.00  0.00    -0.096 C 
ATOM      2  N   UNL     1       0.002  -0.004   0.002  0.00  0.00    +0.381 N 
ATOM      3  C   UNL     1      -1.376  -0.512   0.009  0.00  0.00    -0.074 C 
ATOM      4  C   UNL     1      -1.389  -2.010  -0.313  0.00  0.00    +0.018 C 
ATOM      5  C   UNL     1      -0.411  -2.700   0.628  0.00  0.00    -0.027 A 
ATOM      6  C   UNL     1       0.521  -1.972   1.290  0.00  0.00    -0.021 A 
ATOM      7  S   UNL     1       1.419  -3.157   2.251  0.00  0.00    -0.080 S 
ATOM      8  C   UNL     1       0.616  -4.537   1.803  0.00  0.00    +0.080 A 
ATOM      9  C   UNL     1      -0.374  -4.122   0.903  0.00  0.00    +0.067 A 
ATOM     10  C   UNL     1      -1.270  -5.165   0.342  0.00  0.00    +0.220 C 
ATOM     11  N   UNL     1      -0.932  -6.414   0.518  0.00  0.00    -0.223 NA
ATOM     12  C   UNL     1       0.295  -6.853   1.170  0.00  0.00    +0.227 C 
ATOM     13  N   UNL     1       0.777  -5.861   2.147  0.00  0.00    -0.313 N 
ATOM     14  C   UNL     1       0.715  -0.492   1.197  0.00  0.00    -0.036 C 
ATOM     15  H   UNL     1       1.185  -6.125   2.987  0.00  0.00    +0.149 HD
ATOM     16  H   UNL     1       0.475  -0.329  -0.828  0.00  0.00    -0.082 HD
ENDROOT
BRANCH  12  17
ATOM     17  C   UNL     1       1.359  -7.067   0.123  0.00  0.00    +0.038 A 
ATOM     18  C   UNL     1       2.680  -6.781   0.411  0.00  0.00    +0.031 A 
ATOM     19  C   UNL     1       3.656  -6.977  -0.548  0.00  0.00    +0.043 A 
ATOM     20  C   UNL     1       3.313  -7.459  -1.799  0.00  0.00    +0.039 A 
ATOM     21  C   UNL     1       1.993  -7.745  -2.092  0.00  0.00    +0.061 A 
ATOM     22  C   UNL     1       1.013  -7.555  -1.128  0.00  0.00    +0.138 A 
ATOM     23 BR   UNL     1       1.524  -8.403  -3.801  0.00  0.00    -0.046 Br
ATOM     24 CL   UNL     1       5.315  -6.617  -0.183  0.00  0.00    -0.083 Cl
BRANCH  22  25
ATOM     25  O   UNL     1      -0.285  -7.841  -1.411  0.00  0.00    -0.505 OA
ATOM     26  H   UNL     1      -0.780  -7.098  -1.783  0.00  0.00    +0.292 HD
ENDBRANCH  22  25
ENDBRANCH  12  17
BRANCH  10  27
ATOM     27  O   UNL     1      -2.399  -4.833  -0.327  0.00  0.00    -0.492 OA
ATOM     28  H   UNL     1      -2.904  -5.593  -0.647  0.00  0.00    +0.294 HD
ENDBRANCH  10  27
TORSDOF 3
