REMARK  Name = ZINC12328446
REMARK  8 active torsions:
REMARK  status: ('A' for Active; 'I' for Inactive)
REMARK    1  A    between atoms: C_7  and  C_10
REMARK    2  A    between atoms: C_13  and  O_22
REMARK    3  A    between atoms: C_14  and  C_16
REMARK    4  A    between atoms: C_16  and  N_71
REMARK    5  A    between atoms: O_22  and  C_23
REMARK    6  A    between atoms: C_23  and  C_24
REMARK    7  A    between atoms: N_26  and  C_27
REMARK    8  A    between atoms: C_27  and  C_28
REMARK                            x       y       z     vdW  Elec       q    Type
REMARK                         _______ _______ _______ _____ _____    ______ ____
ROOT
ATOM      1  C   UNL     1      -1.229   1.757   0.017  0.00  0.00    -0.016 A 
ATOM      2  C   UNL     1      -1.243   3.152   0.029  0.00  0.00    +0.012 A 
ATOM      3  C   UNL     1      -0.055   3.852   0.022  0.00  0.00    +0.046 A 
ATOM      4  C   UNL     1       1.154   3.170   0.007  0.00  0.00    +0.123 A 
ATOM      5  C   UNL     1       1.172   1.783   0.000  0.00  0.00    -0.022 A 
ATOM      6  C   UNL     1      -0.013   1.076   0.008  0.00  0.00    +0.014 A 
ENDROOT
BRANCH   1  13
ATOM      7  C   UNL     1      -4.621   2.446   2.831  0.00  0.00    +0.001 A 
ATOM      8  C   UNL     1      -5.752   1.652   2.703  0.00  0.00    +0.001 A 
ATOM      9  C   UNL     1      -5.793   0.683   1.720  0.00  0.00    +0.015 A 
ATOM     10  C   UNL     1      -4.711   0.519   0.881  0.00  0.00    +0.020 A 
ATOM     11  C   UNL     1      -3.552   1.313   0.991  0.00  0.00    -0.003 A 
ATOM     12  C   UNL     1      -3.548   2.293   2.009  0.00  0.00    +0.009 A 
ATOM     13  C   UNL     1      -2.504   1.001   0.019  0.00  0.00    -0.003 A 
ATOM     14  C   UNL     1      -2.720   0.015  -0.881  0.00  0.00    +0.055 A 
ATOM     15  S   UNL     1      -4.354  -0.571  -0.473  0.00  0.00    -0.096 S 
ENDBRANCH   1  13
BRANCH   5  16
ATOM     16  C   UNL     1       2.487   1.047  -0.015  0.00  0.00    -0.039 C 
BRANCH  16  22
ATOM     17  C   UNL     1       3.412   2.360   1.798  0.00  0.00    -0.050 C 
ATOM     18  C   UNL     1       3.931   2.284   3.236  0.00  0.00    +0.141 C 
ATOM     19  O   UNL     1       5.034   1.375   3.292  0.00  0.00    -0.383 OA
ATOM     20  C   UNL     1       4.712   0.052   2.857  0.00  0.00    +0.141 C 
ATOM     21  C   UNL     1       4.200   0.105   1.415  0.00  0.00    -0.050 C 
ATOM     22  N   UNL     1       3.026   1.002   1.361  0.00  0.00    +0.385 N 
ATOM     23  H   UNL     1       2.301   0.641   1.992  0.00  0.00    -0.081 HD
ENDBRANCH  16  22
ENDBRANCH   5  16
BRANCH   4  24
ATOM     24  O   UNL     1       2.323   3.864  -0.000  0.00  0.00    -0.483 OA
BRANCH  24  25
ATOM     25  C   UNL     1       2.232   5.290   0.007  0.00  0.00    +0.324 C 
BRANCH  25  26
ATOM     26  C   UNL     1       3.618   5.882  -0.003  0.00  0.00    +0.251 C 
ATOM     27  O   UNL     1       4.588   5.154  -0.015  0.00  0.00    -0.272 OA
ATOM     28  N   UNL     1       3.779   7.220   0.002  0.00  0.00    -0.312 N 
ATOM     29  H   UNL     1       3.003   7.802   0.012  0.00  0.00    +0.149 HD
BRANCH  28  30
ATOM     30  C   UNL     1       5.126   7.795  -0.007  0.00  0.00    +0.108 C 
BRANCH  30  31
ATOM     31  C   UNL     1       5.028   9.322   0.001  0.00  0.00    +0.014 C 
ATOM     32  C   UNL     1       4.529   9.830   1.378  0.00  0.00    +0.013 C 
ATOM     33  C   UNL     1       5.713  10.716   1.897  0.00  0.00    +0.018 C 
ATOM     34  C   UNL     1       6.836   9.690   2.136  0.00  0.00    -0.027 C 
ATOM     35  C   UNL     1       7.261   9.258   0.963  0.00  0.00    -0.026 C 
ATOM     36  C   UNL     1       6.450   9.966  -0.137  0.00  0.00    +0.023 C 
ATOM     37  C   UNL     1       6.205  11.325   0.562  0.00  0.00    -0.016 C 
ATOM     38  C   UNL     1       5.632  12.543  -0.094  0.00  0.00    +0.008 C 
ATOM     39  C   UNL     1       7.076  12.535   0.432  0.00  0.00    +0.008 C 
ENDBRANCH  30  31
ENDBRANCH  28  30
ENDBRANCH  25  26
ENDBRANCH  24  25
ENDBRANCH   4  24
TORSDOF 8
