REMARK  Name = ZINC00663467
REMARK  11 active torsions:
REMARK  status: ('A' for Active; 'I' for Inactive)
REMARK    1  A    between atoms: C_1  and  C_2
REMARK    2  A    between atoms: C_2  and  O_3
REMARK    3  A    between atoms: O_3  and  C_4
REMARK    4  A    between atoms: C_4  and  C_6
REMARK    5  A    between atoms: C_7  and  C_23
REMARK    6  A    between atoms: C_9  and  N_22
REMARK    7  A    between atoms: C_10  and  C_20
REMARK    8  A    between atoms: C_11  and  C_13
REMARK    9  A    between atoms: C_23  and  S_24
REMARK   10  A    between atoms: S_24  and  C_25
REMARK   11  A    between atoms: C_26  and  C_36
REMARK                            x       y       z     vdW  Elec       q    Type
REMARK                         _______ _______ _______ _____ _____    ______ ____
ROOT
ATOM      1  C   UNL     1      -0.743   6.210  -1.161  0.00  0.00    +0.088 C 
ATOM      2  C   UNL     1      -1.771   7.042  -0.949  0.00  0.00    +0.128 C 
ATOM      3  O   UNL     1      -2.482   7.025   0.187  0.00  0.00    -0.444 OA
ATOM      4  C   UNL     1      -1.961   6.448   1.284  0.00  0.00    +0.198 C 
ATOM      5  C   UNL     1      -0.933   5.569   1.208  0.00  0.00    +0.098 C 
ATOM      6  C   UNL     1      -0.330   5.204  -0.122  0.00  0.00    +0.105 C 
ENDROOT
BRANCH   6   7
ATOM      7  C   UNL     1      -0.810   3.835  -0.531  0.00  0.00    -0.034 A 
ATOM      8  C   UNL     1       0.102   2.817  -0.738  0.00  0.00    +0.007 A 
ATOM      9  C   UNL     1      -0.337   1.561  -1.113  0.00  0.00    +0.038 A 
ATOM     10  C   UNL     1      -1.690   1.323  -1.282  0.00  0.00    +0.123 A 
ATOM     11  C   UNL     1      -2.602   2.346  -1.081  0.00  0.00    +0.038 A 
ATOM     12  C   UNL     1      -2.162   3.599  -0.700  0.00  0.00    +0.007 A 
ATOM     13  F   UNL     1      -2.120   0.097  -1.650  0.00  0.00    -0.205 F 
ENDBRANCH   6   7
BRANCH   4  14
ATOM     14  N   UNL     1      -2.483   6.758   2.515  0.00  0.00    -0.328 N 
ATOM     15  H   UNL     1      -2.117   6.350   3.314  0.00  0.00    +0.145 HD
ATOM     16  H   UNL     1      -3.220   7.386   2.584  0.00  0.00    +0.145 HD
ENDBRANCH   4  14
BRANCH   1  17
ATOM     17  C   UNL     1      -0.033   6.279  -2.385  0.00  0.00    +0.339 C 
ATOM     18  O   UNL     1      -0.563   6.759  -3.370  0.00  0.00    -0.245 OA
BRANCH  17  19
ATOM     19  O   UNL     1       1.231   5.814  -2.458  0.00  0.00    -0.462 OA
BRANCH  19  21
ATOM     20  C   UNL     1       3.301   5.340  -3.613  0.00  0.00    +0.048 C 
ATOM     21  C   UNL     1       1.888   5.915  -3.724  0.00  0.00    +0.229 C 
ENDBRANCH  19  21
ENDBRANCH  17  19
ENDBRANCH   1  17
BRANCH   5  22
ATOM     22  C   UNL     1      -0.415   4.979   2.405  0.00  0.00    +0.101 C 
ATOM     23  N   UNL     1      -0.004   4.512   3.356  0.00  0.00    -0.191 NA
ENDBRANCH   5  22
BRANCH   2  24
ATOM     24  C   UNL     1      -2.140   8.031  -2.024  0.00  0.00    +0.150 C 
BRANCH  24  25
ATOM     25  S   UNL     1      -3.630   7.464  -2.880  0.00  0.00    -0.097 S 
BRANCH  25  26
ATOM     26  C   UNL     1      -3.828   8.769  -4.048  0.00  0.00    +0.115 A 
ATOM     27  C   UNL     1      -4.903   8.738  -4.954  0.00  0.00    +0.084 A 
ATOM     28  C   UNL     1      -5.037   9.785  -5.874  0.00  0.00    +0.027 A 
ATOM     29  C   UNL     1      -4.098  10.802  -5.841  0.00  0.00    -0.025 A 
ATOM     30  C   UNL     1      -3.077  10.769  -4.926  0.00  0.00    +0.046 A 
ATOM     31  N   UNL     1      -2.966   9.774  -4.061  0.00  0.00    -0.244 NA
ATOM     32  C   UNL     1      -2.056  11.890  -4.893  0.00  0.00    +0.056 C 
ATOM     33  C   UNL     1      -2.737  13.151  -4.358  0.00  0.00    +0.006 C 
ATOM     34  C   UNL     1      -3.427  13.912  -5.473  0.00  0.00    +0.001 C 
ATOM     35  C   UNL     1      -4.631  13.205  -6.062  0.00  0.00    +0.005 C 
ATOM     36  C   UNL     1      -4.206  11.947  -6.826  0.00  0.00    +0.037 C 
BRANCH  27  37
ATOM     37  C   UNL     1      -5.842   7.657  -4.936  0.00  0.00    +0.102 C 
ATOM     38  N   UNL     1      -6.587   6.799  -4.923  0.00  0.00    -0.191 NA
ENDBRANCH  27  37
ENDBRANCH  25  26
ENDBRANCH  24  25
ENDBRANCH   2  24
TORSDOF 10
