REMARK  Name = ZINC64174981
REMARK  7 active torsions:
REMARK  status: ('A' for Active; 'I' for Inactive)
REMARK    1  A    between atoms: C_1  and  C_2
REMARK    2  A    between atoms: C_2  and  C_3
REMARK    3  A    between atoms: C_2  and  N_4
REMARK    4  A    between atoms: C_8  and  C_11
REMARK    5  A    between atoms: N_13  and  N_14
REMARK    6  A    between atoms: C_15  and  C_17
REMARK    7  A    between atoms: C_17  and  C_18
REMARK                            x       y       z     vdW  Elec       q    Type
REMARK                         _______ _______ _______ _____ _____    ______ ____
ROOT
ATOM      1  C   UNL     1      -4.127  -3.749  -3.601  0.00  0.00    +0.262 C 
ATOM      2  O   UNL     1      -5.284  -4.036  -3.362  0.00  0.00    -0.269 OA
ATOM      3  N   UNL     1      -3.534  -4.212  -4.720  0.00  0.00    -0.230 N 
ATOM      4  H   UNL     1      -2.611  -3.983  -4.910  0.00  0.00    +0.173 HD
ENDROOT
BRANCH   1   9
ATOM      5  N   UNL     1      -1.372  -0.511   0.012  0.00  0.00    -0.248 N 
ATOM      6  C   UNL     1      -1.907  -1.315  -0.977  0.00  0.00    +0.140 A 
ATOM      7  C   UNL     1      -3.232  -1.620  -0.664  0.00  0.00    +0.010 A 
ATOM      8  C   UNL     1      -3.975  -2.405  -1.495  0.00  0.00    +0.023 A 
ATOM      9  C   UNL     1      -3.371  -2.894  -2.665  0.00  0.00    +0.057 A 
ATOM     10  C   UNL     1      -2.042  -2.557  -2.925  0.00  0.00    +0.126 A 
ATOM     11  N   UNL     1      -1.365  -1.795  -2.094  0.00  0.00    -0.238 NA
ATOM     12  C   UNL     1      -3.533  -0.931   0.645  0.00  0.00    +0.140 C 
ATOM     13  N   UNL     1      -2.273  -0.251   1.000  0.00  0.00    -0.234 NA
ATOM     14  H   UNL     1      -1.929  -0.566   1.895  0.00  0.00    +0.145 HD
BRANCH   5  16
ATOM     15  C   UNL     1      -0.019   1.526   0.010  0.00  0.00    +0.029 C 
ATOM     16  C   UNL     1       0.002  -0.004   0.002  0.00  0.00    +0.086 C 
ATOM     17  C   UNL     1       0.742  -0.511   1.242  0.00  0.00    +0.029 C 
ENDBRANCH   5  16
ENDBRANCH   1   9
BRANCH   3  18
ATOM     18  N   UNL     1      -4.252  -5.023  -5.608  0.00  0.00    -0.234 N 
ATOM     19  C   UNL     1      -3.660  -5.486  -6.727  0.00  0.00    +0.233 C 
ATOM     20  O   UNL     1      -2.505  -5.199  -6.964  0.00  0.00    -0.274 OA
ATOM     21  H   UNL     1      -5.175  -5.252  -5.418  0.00  0.00    +0.173 HD
BRANCH  19  22
ATOM     22  C   UNL     1      -4.431  -6.359  -7.682  0.00  0.00    +0.130 C 
BRANCH  22  23
ATOM     23  C   UNL     1      -3.547  -6.738  -8.842  0.00  0.00    -0.033 C 
ATOM     24  C   UNL     1      -2.818  -7.869  -8.974  0.00  0.00    -0.001 A 
ATOM     25  C   UNL     1      -2.636  -9.040  -8.108  0.00  0.00    +0.010 A 
ATOM     26  C   UNL     1      -1.822 -10.039  -8.519  0.00  0.00    +0.001 A 
ATOM     27  C   UNL     1      -1.149  -9.984  -9.748  0.00  0.00    +0.002 A 
ATOM     28  C   UNL     1      -1.267  -8.941 -10.597  0.00  0.00    +0.026 A 
ATOM     29  C   UNL     1      -2.098  -7.835 -10.266  0.00  0.00    +0.043 A 
ATOM     30  N   UNL     1      -2.371  -6.726 -10.909  0.00  0.00    -0.380 N 
ATOM     31  C   UNL     1      -3.301  -5.933 -10.099  0.00  0.00    +0.145 C 
ATOM     32  H   UNL     1      -2.019  -6.474 -11.778  0.00  0.00    +0.160 HD
ENDBRANCH  22  23
ENDBRANCH  19  22
ENDBRANCH   3  18
TORSDOF 5
