REMARK  Name = ZINC43525182
REMARK  11 active torsions:
REMARK  status: ('A' for Active; 'I' for Inactive)
REMARK    1  A    between atoms: C_2  and  C_3
REMARK    2  A    between atoms: C_12  and  C_14
REMARK    3  A    between atoms: C_14  and  N_15
REMARK    4  A    between atoms: N_15  and  C_16
REMARK    5  A    between atoms: N_15  and  C_24
REMARK    6  A    between atoms: C_16  and  C_17
REMARK    7  A    between atoms: C_20  and  C_22
REMARK    8  A    between atoms: C_22  and  O_23
REMARK    9  A    between atoms: C_24  and  C_25
REMARK   10  A    between atoms: C_28  and  C_30
REMARK   11  A    between atoms: C_30  and  O_31
REMARK                            x       y       z     vdW  Elec       q    Type
REMARK                         _______ _______ _______ _____ _____    ______ ____
ROOT
ATOM      1  N   UNL     1      -3.543   5.077  -0.952  0.00  0.00    +0.388 N 
ATOM      2  H   UNL     1      -2.930   5.446  -1.663  0.00  0.00    -0.081 HD
ENDROOT
BRANCH   1   3
ATOM      3  C   UNL     1      -2.749   4.656   0.210  0.00  0.00    -0.093 C 
BRANCH   3  11
ATOM      4  C   UNL     1       0.713   7.025   1.106  0.00  0.00    +0.050 C 
ATOM      5  C   UNL     1      -0.236   7.438  -0.022  0.00  0.00    -0.062 C 
ATOM      6  N   UNL     1      -1.054   6.295  -0.434  0.00  0.00    +0.381 N 
ATOM      7  C   UNL     1      -0.208   5.213  -0.946  0.00  0.00    -0.078 C 
ATOM      8  C   UNL     1       0.741   4.726   0.151  0.00  0.00    -0.014 C 
ATOM      9  C   UNL     1       0.485   5.542   1.429  0.00  0.00    -0.001 C 
ATOM     10  C   UNL     1      -0.983   5.355   1.835  0.00  0.00    -0.013 C 
ATOM     11  C   UNL     1      -1.878   5.822   0.681  0.00  0.00    -0.085 C 
ATOM     12  H   UNL     1      -1.666   6.592  -1.179  0.00  0.00    -0.081 HD
BRANCH   4  14
ATOM     13  C   UNL     1       3.218   7.390   0.337  0.00  0.00    +0.004 C 
ATOM     14  C   UNL     1       2.106   7.228   0.678  0.00  0.00    -0.104 C 
ENDBRANCH   4  14
ENDBRANCH   3  11
ENDBRANCH   1   3
BRANCH   1  15
ATOM     15  C   UNL     1      -4.276   3.922  -1.488  0.00  0.00    -0.003 C 
BRANCH  15  16
ATOM     16  C   UNL     1      -3.297   2.919  -2.042  0.00  0.00    +0.089 A 
ATOM     17  C   UNL     1      -2.816   1.847  -1.387  0.00  0.00    +0.043 A 
ATOM     18  C   UNL     1      -1.935   1.187  -2.275  0.00  0.00    +0.047 A 
ATOM     19  C   UNL     1      -1.931   1.895  -3.418  0.00  0.00    +0.130 A 
ATOM     20  O   UNL     1      -2.762   2.940  -3.273  0.00  0.00    -0.464 OA
BRANCH  19  21
ATOM     21  C   UNL     1      -1.133   1.569  -4.654  0.00  0.00    +0.230 C 
BRANCH  21  22
ATOM     22  O   UNL     1      -1.944   0.820  -5.561  0.00  0.00    -0.387 OA
ATOM     23  H   UNL     1      -1.494   0.575  -6.381  0.00  0.00    +0.210 HD
ENDBRANCH  21  22
ENDBRANCH  19  21
ENDBRANCH  15  16
ENDBRANCH   1  15
BRANCH   1  24
ATOM     24  C   UNL     1      -4.498   6.115  -0.542  0.00  0.00    -0.003 C 
BRANCH  24  25
ATOM     25  C   UNL     1      -5.221   6.641  -1.756  0.00  0.00    +0.089 A 
ATOM     26  C   UNL     1      -6.421   6.225  -2.197  0.00  0.00    +0.043 A 
ATOM     27  C   UNL     1      -6.716   6.982  -3.355  0.00  0.00    +0.047 A 
ATOM     28  C   UNL     1      -5.678   7.814  -3.551  0.00  0.00    +0.130 A 
ATOM     29  O   UNL     1      -4.778   7.607  -2.576  0.00  0.00    -0.464 OA
BRANCH  28  30
ATOM     30  C   UNL     1      -5.549   8.813  -4.672  0.00  0.00    +0.230 C 
BRANCH  30  31
ATOM     31  O   UNL     1      -6.112  10.062  -4.264  0.00  0.00    -0.387 OA
ATOM     32  H   UNL     1      -6.064  10.754  -4.938  0.00  0.00    +0.210 HD
ENDBRANCH  30  31
ENDBRANCH  28  30
ENDBRANCH  24  25
ENDBRANCH   1  24
TORSDOF 11
