REMARK  Name = ZINC35458965
REMARK  13 active torsions:
REMARK  status: ('A' for Active; 'I' for Inactive)
REMARK    1  A    between atoms: C_1  and  C_2
REMARK    2  A    between atoms: C_4  and  C_19
REMARK    3  A    between atoms: C_7  and  C_12
REMARK    4  A    between atoms: C_9  and  C_10
REMARK    5  A    between atoms: C_9  and  O_11
REMARK    6  A    between atoms: C_15  and  O_18
REMARK    7  A    between atoms: C_22  and  O_25
REMARK    8  A    between atoms: O_25  and  C_26
REMARK    9  A    between atoms: C_28  and  O_41
REMARK   10  A    between atoms: C_30  and  O_40
REMARK   11  A    between atoms: C_32  and  O_39
REMARK   12  A    between atoms: C_34  and  C_37
REMARK   13  A    between atoms: C_37  and  O_38
REMARK                            x       y       z     vdW  Elec       q    Type
REMARK                         _______ _______ _______ _____ _____    ______ ____
ROOT
ATOM      1  C   UNL     1      -1.657  -0.022  -1.160  0.00  0.00    -0.018 A 
ATOM      2  C   UNL     1      -1.645  -1.079  -2.051  0.00  0.00    +0.010 A 
ATOM      3  C   UNL     1      -2.180  -0.925  -3.315  0.00  0.00    +0.046 A 
ATOM      4  C   UNL     1      -2.730   0.292  -3.690  0.00  0.00    +0.124 A 
ATOM      5  C   UNL     1      -2.742   1.351  -2.794  0.00  0.00    +0.046 A 
ATOM      6  C   UNL     1      -2.210   1.190  -1.530  0.00  0.00    +0.010 A 
ENDROOT
BRANCH   1   9
ATOM      7  C   UNL     1       0.763   1.552   0.364  0.00  0.00    +0.013 C 
ATOM      8  C   UNL     1       0.456   0.062   0.198  0.00  0.00    +0.053 C 
ATOM      9  C   UNL     1      -1.073  -0.193   0.218  0.00  0.00    +0.155 C 
ATOM     10  O   UNL     1      -1.179  -1.566   0.653  0.00  0.00    -0.361 OA
ATOM     11  C   UNL     1      -0.195  -1.758   1.683  0.00  0.00    +0.181 C 
ATOM     12  C   UNL     1       0.936  -0.742   1.431  0.00  0.00    +0.099 C 
ATOM     13  C   UNL     1       1.105   0.182   2.640  0.00  0.00    +0.045 C 
BRANCH  11  14
ATOM     14  C   UNL     1      -0.815  -1.516   3.035  0.00  0.00    -0.016 A 
ATOM     15  C   UNL     1      -1.915  -0.685   3.151  0.00  0.00    +0.010 A 
ATOM     16  C   UNL     1      -2.485  -0.461   4.389  0.00  0.00    +0.046 A 
ATOM     17  C   UNL     1      -1.953  -1.071   5.517  0.00  0.00    +0.117 A 
ATOM     18  C   UNL     1      -0.851  -1.904   5.397  0.00  0.00    +0.046 A 
ATOM     19  C   UNL     1      -0.287  -2.129   4.156  0.00  0.00    +0.010 A 
BRANCH  17  20
ATOM     20  O   UNL     1      -2.512  -0.852   6.736  0.00  0.00    -0.507 OA
ATOM     21  H   UNL     1      -3.210  -1.480   6.968  0.00  0.00    +0.292 HD
ENDBRANCH  17  20
ENDBRANCH  11  14
BRANCH  12  22
ATOM     22  O   UNL     1       2.162  -1.417   1.142  0.00  0.00    -0.386 OA
ATOM     23  H   UNL     1       2.508  -1.937   1.880  0.00  0.00    +0.210 HD
ENDBRANCH  12  22
ENDBRANCH   1   9
BRANCH   4  24
ATOM     24  O   UNL     1      -3.257   0.446  -4.934  0.00  0.00    -0.461 OA
BRANCH  24  25
ATOM     25  C   UNL     1      -3.806   1.727  -5.251  0.00  0.00    +0.339 C 
ATOM     26  C   UNL     1      -4.234   1.749  -6.721  0.00  0.00    +0.214 C 
ATOM     27  C   UNL     1      -4.876   3.103  -7.037  0.00  0.00    +0.180 C 
ATOM     28  C   UNL     1      -6.054   3.332  -6.085  0.00  0.00    +0.177 C 
ATOM     29  C   UNL     1      -5.556   3.249  -4.640  0.00  0.00    +0.179 C 
ATOM     30  O   UNL     1      -4.942   1.977  -4.421  0.00  0.00    -0.331 OA
BRANCH  28  31
ATOM     31  O   UNL     1      -6.617   4.623  -6.324  0.00  0.00    -0.386 OA
ATOM     32  H   UNL     1      -6.950   4.747  -7.224  0.00  0.00    +0.210 HD
ENDBRANCH  28  31
BRANCH  27  33
ATOM     33  O   UNL     1      -5.343   3.106  -8.388  0.00  0.00    -0.386 OA
ATOM     34  H   UNL     1      -4.649   2.960  -9.044  0.00  0.00    +0.210 HD
ENDBRANCH  27  33
BRANCH  26  35
ATOM     35  O   UNL     1      -3.090   1.555  -7.554  0.00  0.00    -0.383 OA
ATOM     36  H   UNL     1      -2.631   0.717  -7.404  0.00  0.00    +0.210 HD
ENDBRANCH  26  35
BRANCH  29  37
ATOM     37  C   UNL     1      -6.737   3.417  -3.682  0.00  0.00    +0.190 C 
BRANCH  37  38
ATOM     38  O   UNL     1      -6.258   3.456  -2.337  0.00  0.00    -0.392 OA
ATOM     39  H   UNL     1      -6.954   3.562  -1.674  0.00  0.00    +0.210 HD
ENDBRANCH  37  38
ENDBRANCH  29  37
ENDBRANCH  24  25
ENDBRANCH   4  24
TORSDOF 11
