REMARK  Name = ZINC39226946
REMARK  7 active torsions:
REMARK  status: ('A' for Active; 'I' for Inactive)
REMARK    1  A    between atoms: C_1  and  O_2
REMARK    2  A    between atoms: O_2  and  C_3
REMARK    3  A    between atoms: N_16  and  C_19
REMARK    4  A    between atoms: C_19  and  C_20
REMARK    5  A    between atoms: N_22  and  C_23
REMARK    6  A    between atoms: C_28  and  S_29
REMARK    7  A    between atoms: S_29  and  C_30
REMARK                            x       y       z     vdW  Elec       q    Type
REMARK                         _______ _______ _______ _____ _____    ______ ____
ROOT
ATOM      1  C   UNL     1       3.068   0.873  -3.816  0.00  0.00    +0.134 A 
ATOM      2  C   UNL     1       3.868   1.079  -4.930  0.00  0.00    +0.046 A 
ATOM      3  C   UNL     1       4.272   0.005  -5.701  0.00  0.00    +0.007 A 
ATOM      4  C   UNL     1       3.885  -1.283  -5.381  0.00  0.00    +0.046 A 
ATOM      5  C   UNL     1       3.083  -1.516  -4.274  0.00  0.00    +0.135 A 
ATOM      6  C   UNL     1       2.682  -0.431  -3.476  0.00  0.00    +0.101 A 
ATOM      7  C   UNL     1       1.859  -0.685  -2.286  0.00  0.00    +0.174 C 
ATOM      8  O   UNL     1       1.664   0.173  -1.450  0.00  0.00    -0.292 OA
ATOM      9  C   UNL     1       1.263  -2.075  -2.156  0.00  0.00    +0.127 C 
ATOM     10  C   UNL     1       2.332  -3.073  -2.620  0.00  0.00    +0.114 C 
ATOM     11  O   UNL     1       2.699  -2.778  -3.970  0.00  0.00    -0.485 OA
ATOM     12  C   UNL     1       1.768  -4.494  -2.540  0.00  0.00    +0.030 C 
ATOM     13  C   UNL     1       2.863  -5.495  -2.914  0.00  0.00    -0.074 C 
ATOM     14  N   UNL     1       3.992  -5.359  -1.986  0.00  0.00    +0.386 N 
ATOM     15  C   UNL     1       4.584  -4.022  -2.114  0.00  0.00    -0.074 C 
ATOM     16  C   UNL     1       3.556  -2.965  -1.708  0.00  0.00    +0.030 C 
ATOM     17  H   UNL     1       3.667  -5.493  -1.041  0.00  0.00    -0.081 HD
ENDROOT
BRANCH   1  19
ATOM     18  C   UNL     1       3.100   3.223  -3.469  0.00  0.00    +0.277 C 
ATOM     19  O   UNL     1       2.666   1.924  -3.059  0.00  0.00    -0.494 OA
ENDBRANCH   1  19
BRANCH  14  20
ATOM     20  C   UNL     1       5.006  -6.375  -2.301  0.00  0.00    +0.019 C 
BRANCH  20  21
ATOM     21  C   UNL     1       6.109  -6.318  -1.275  0.00  0.00    +0.201 C 
ATOM     22  O   UNL     1       6.055  -5.511  -0.371  0.00  0.00    -0.278 OA
ATOM     23  N   UNL     1       7.154  -7.164  -1.362  0.00  0.00    -0.286 N 
ATOM     24  H   UNL     1       7.162  -7.858  -2.039  0.00  0.00    +0.155 HD
BRANCH  23  25
ATOM     25  C   UNL     1       8.231  -7.040  -0.473  0.00  0.00    +0.047 A 
ATOM     26  C   UNL     1       8.026  -6.535   0.802  0.00  0.00    +0.024 A 
ATOM     27  C   UNL     1       9.089  -6.414   1.677  0.00  0.00    +0.002 A 
ATOM     28  C   UNL     1      10.359  -6.797   1.286  0.00  0.00    +0.001 A 
ATOM     29  C   UNL     1      10.573  -7.302   0.017  0.00  0.00    +0.017 A 
ATOM     30  C   UNL     1       9.511  -7.432  -0.866  0.00  0.00    +0.034 A 
BRANCH  30  31
ATOM     31  S   UNL     1       9.779  -8.082  -2.482  0.00  0.00    -0.088 S 
BRANCH  31  32
ATOM     32  C   UNL     1      11.498  -8.469  -2.506  0.00  0.00    +0.013 A 
ATOM     33  C   UNL     1      11.943  -9.690  -2.013  0.00  0.00    +0.015 A 
ATOM     34  C   UNL     1      13.291  -9.990  -2.033  0.00  0.00    +0.001 A 
ATOM     35  C   UNL     1      14.197  -9.078  -2.542  0.00  0.00    +0.000 A 
ATOM     36  C   UNL     1      13.757  -7.862  -3.034  0.00  0.00    +0.001 A 
ATOM     37  C   UNL     1      12.410  -7.557  -3.022  0.00  0.00    +0.015 A 
ENDBRANCH  31  32
ENDBRANCH  30  31
ENDBRANCH  23  25
ENDBRANCH  20  21
ENDBRANCH  14  20
TORSDOF 6
