REMARK  Name = ZINC14924299
REMARK  8 active torsions:
REMARK  status: ('A' for Active; 'I' for Inactive)
REMARK    1  A    between atoms: C_1  and  N_48
REMARK    2  A    between atoms: C_2  and  C_3
REMARK    3  A    between atoms: C_2  and  N_48
REMARK    4  A    between atoms: C_8  and  O_9
REMARK    5  A    between atoms: O_9  and  C_10
REMARK    6  A    between atoms: C_12  and  C_13
REMARK    7  A    between atoms: C_12  and  N_48
REMARK    8  A    between atoms: N_19  and  C_20
REMARK                            x       y       z     vdW  Elec       q    Type
REMARK                         _______ _______ _______ _____ _____    ______ ____
ROOT
ATOM      1  C   UNL     1       5.227   4.491  -2.680  0.00  0.00    +0.120 A 
ATOM      2  N   UNL     1       5.241   5.487  -3.548  0.00  0.00    -0.202 NA
ATOM      3  C   UNL     1       5.782   5.316  -4.752  0.00  0.00    +0.217 A 
ATOM      4  N   UNL     1       6.309   4.141  -5.080  0.00  0.00    -0.181 NA
ATOM      5  C   UNL     1       6.293   3.142  -4.205  0.00  0.00    +0.224 A 
ATOM      6  N   UNL     1       5.754   3.323  -3.001  0.00  0.00    -0.201 NA
ATOM      7  N   UNL     1       6.839   1.919  -4.541  0.00  0.00    -0.284 N 
ATOM      8  N   UNL     1       5.796   6.357  -5.657  0.00  0.00    -0.327 N 
ATOM      9  H   UNL     1       6.899   1.215  -3.877  0.00  0.00    +0.155 HD
ATOM     10  H   UNL     1       5.411   7.214  -5.417  0.00  0.00    +0.145 HD
ATOM     11  H   UNL     1       6.191   6.231  -6.535  0.00  0.00    +0.145 HD
ENDROOT
BRANCH   7  12
ATOM     12  C   UNL     1       7.305   1.694  -5.842  0.00  0.00    +0.034 A 
ATOM     13  C   UNL     1       6.672   2.298  -6.921  0.00  0.00    +0.026 A 
ATOM     14  C   UNL     1       7.136   2.079  -8.203  0.00  0.00    +0.040 A 
ATOM     15  C   UNL     1       8.226   1.250  -8.414  0.00  0.00    +0.124 A 
ATOM     16  C   UNL     1       8.855   0.644  -7.340  0.00  0.00    +0.040 A 
ATOM     17  C   UNL     1       8.397   0.864  -6.056  0.00  0.00    +0.026 A 
ATOM     18  F   UNL     1       8.676   1.034  -9.669  0.00  0.00    -0.205 F 
ENDBRANCH   7  12
BRANCH   1  19
ATOM     19  C   UNL     1       4.613   4.689  -1.318  0.00  0.00    -0.001 C 
BRANCH  19  21
ATOM     20  C   UNL     1       2.446   5.278  -2.225  0.00  0.00    -0.095 C 
ATOM     21  N   UNL     1       3.184   4.315  -1.380  0.00  0.00    +0.385 N 
ATOM     22  H   UNL     1       3.102   3.378  -1.792  0.00  0.00    -0.081 HD
BRANCH  21  23
ATOM     23  C   UNL     1       2.608   4.293  -0.019  0.00  0.00    -0.039 C 
BRANCH  23  24
ATOM     24  C   UNL     1       1.224   3.701  -0.086  0.00  0.00    -0.021 A 
ATOM     25  C   UNL     1       0.117   4.526  -0.068  0.00  0.00    +0.020 A 
ATOM     26  C   UNL     1      -1.153   3.983  -0.130  0.00  0.00    +0.018 A 
ATOM     27  C   UNL     1      -1.318   2.612  -0.216  0.00  0.00    +0.019 A 
ATOM     28  C   UNL     1      -0.213   1.782  -0.229  0.00  0.00    +0.047 A 
ATOM     29  C   UNL     1       1.062   2.325  -0.167  0.00  0.00    +0.121 A 
ATOM     30 BR   UNL     1      -2.667   5.115  -0.106  0.00  0.00    -0.050 Br
BRANCH  29  31
ATOM     31  O   UNL     1       2.150   1.512  -0.186  0.00  0.00    -0.495 OA
ATOM     32  C   UNL     1       1.907   0.106  -0.271  0.00  0.00    +0.277 C 
ENDBRANCH  29  31
ENDBRANCH  23  24
ENDBRANCH  21  23
ENDBRANCH  19  21
ENDBRANCH   1  19
TORSDOF 6
