REMARK  Name = ZINC13660037
REMARK  15 active torsions:
REMARK  status: ('A' for Active; 'I' for Inactive)
REMARK    1  A    between atoms: C_1  and  C_2
REMARK    2  A    between atoms: C_5  and  O_35
REMARK    3  A    between atoms: C_8  and  C_33
REMARK    4  A    between atoms: C_8  and  C_34
REMARK    5  A    between atoms: C_9  and  C_10
REMARK    6  A    between atoms: C_9  and  O_32
REMARK    7  A    between atoms: C_11  and  C_12
REMARK    8  A    between atoms: C_12  and  C_14
REMARK    9  A    between atoms: C_12  and  O_15
REMARK   10  A    between atoms: O_15  and  C_16
REMARK   11  A    between atoms: C_18  and  O_31
REMARK   12  A    between atoms: C_20  and  O_30
REMARK   13  A    between atoms: C_22  and  O_29
REMARK   14  A    between atoms: C_24  and  C_27
REMARK   15  A    between atoms: C_27  and  O_28
REMARK                            x       y       z     vdW  Elec       q    Type
REMARK                         _______ _______ _______ _____ _____    ______ ____
ROOT
ATOM      1  C   UNL     1      -1.828   4.831  -0.227  0.00  0.00    +0.141 C 
ATOM      2  C   UNL     1      -1.871   3.505   0.534  0.00  0.00    +0.042 C 
ENDROOT
BRANCH   1   4
ATOM      3  C   UNL     1      -3.763   6.320  -0.265  0.00  0.00    +0.006 C 
ATOM      4  C   UNL     1      -2.769   5.814   0.422  0.00  0.00    +0.002 C 
BRANCH   3  11
ATOM      5  C   UNL     1      -3.238   9.189  -0.346  0.00  0.00    +0.011 C 
ATOM      6  C   UNL     1      -4.661   8.629  -0.377  0.00  0.00    +0.024 C 
ATOM      7  C   UNL     1      -5.087   8.398  -1.828  0.00  0.00    +0.037 C 
ATOM      8  C   UNL     1      -6.510   7.837  -1.859  0.00  0.00    +0.116 C 
ATOM      9  C   UNL     1      -6.553   6.511  -1.098  0.00  0.00    +0.040 C 
ATOM     10  C   UNL     1      -6.127   6.742   0.353  0.00  0.00    +0.000 C 
ATOM     11  C   UNL     1      -4.704   7.302   0.384  0.00  0.00    +0.092 C 
ATOM     12  C   UNL     1      -6.170   5.416   1.115  0.00  0.00    +0.014 C 
ATOM     13  C   UNL     1      -7.082   7.739   1.012  0.00  0.00    +0.014 C 
BRANCH  11  14
ATOM     14  O   UNL     1      -4.306   7.518   1.740  0.00  0.00    -0.384 OA
ATOM     15  H   UNL     1      -3.412   7.874   1.835  0.00  0.00    +0.211 HD
ENDBRANCH  11  14
BRANCH   8  16
ATOM     16  O   UNL     1      -6.908   7.621  -3.215  0.00  0.00    -0.392 OA
ATOM     17  H   UNL     1      -6.904   8.421  -3.758  0.00  0.00    +0.210 HD
ENDBRANCH   8  16
ENDBRANCH   3  11
ENDBRANCH   1   4
BRANCH   1  18
ATOM     18  O   UNL     1      -0.499   5.354  -0.199  0.00  0.00    -0.342 OA
BRANCH  18  19
ATOM     19  C   UNL     1       0.319   4.926  -1.289  0.00  0.00    +0.282 C 
ATOM     20  C   UNL     1       1.671   5.640  -1.226  0.00  0.00    +0.201 C 
ATOM     21  C   UNL     1       2.386   5.250   0.071  0.00  0.00    +0.179 C 
ATOM     22  C   UNL     1       2.530   3.726   0.123  0.00  0.00    +0.177 C 
ATOM     23  C   UNL     1       1.145   3.085   0.008  0.00  0.00    +0.178 C 
ATOM     24  O   UNL     1       0.523   3.514  -1.205  0.00  0.00    -0.341 OA
BRANCH  22  25
ATOM     25  O   UNL     1       3.351   3.287  -0.961  0.00  0.00    -0.386 OA
ATOM     26  H   UNL     1       4.246   3.655  -0.951  0.00  0.00    +0.210 HD
ENDBRANCH  22  25
BRANCH  21  27
ATOM     27  O   UNL     1       3.680   5.854   0.105  0.00  0.00    -0.386 OA
ATOM     28  H   UNL     1       3.664   6.821   0.075  0.00  0.00    +0.210 HD
ENDBRANCH  21  27
BRANCH  20  29
ATOM     29  O   UNL     1       1.466   7.054  -1.251  0.00  0.00    -0.384 OA
ATOM     30  H   UNL     1       1.017   7.372  -2.047  0.00  0.00    +0.210 HD
ENDBRANCH  20  29
BRANCH  23  31
ATOM     31  C   UNL     1       1.286   1.562  -0.002  0.00  0.00    +0.190 C 
BRANCH  31  32
ATOM     32  O   UNL     1      -0.011   0.963   0.007  0.00  0.00    -0.392 OA
ATOM     33  H   UNL     1       0.002  -0.004   0.002  0.00  0.00    +0.210 HD
ENDBRANCH  31  32
ENDBRANCH  23  31
ENDBRANCH  18  19
ENDBRANCH   1  18
TORSDOF 11
