REMARK  Name = ZINC39945404
REMARK  5 active torsions:
REMARK  status: ('A' for Active; 'I' for Inactive)
REMARK    1  A    between atoms: C_7  and  N_14
REMARK    2  A    between atoms: C_9  and  C_11
REMARK    3  A    between atoms: C_15  and  C_17
REMARK    4  A    between atoms: C_17  and  S_18
REMARK    5  A    between atoms: S_18  and  C_19
REMARK                            x       y       z     vdW  Elec       q    Type
REMARK                         _______ _______ _______ _____ _____    ______ ____
ROOT
ATOM      1  N   UNL     1       4.601  -1.419   2.567  0.00  0.00    -0.302 N 
ATOM      2  C   UNL     1       5.630  -2.288   2.527  0.00  0.00    +0.224 C 
ATOM      3  O   UNL     1       6.019  -2.719   1.463  0.00  0.00    -0.275 OA
ATOM      4  H   UNL     1       4.338  -1.018   3.410  0.00  0.00    +0.150 HD
ENDROOT
BRANCH   1  11
ATOM      5  C   UNL     1       0.130   1.732  -0.023  0.00  0.00    +0.009 C 
ATOM      6  C   UNL     1       1.654   1.958  -0.073  0.00  0.00    +0.033 C 
ATOM      7  C   UNL     1       2.269   0.730   0.609  0.00  0.00    -0.046 C 
ATOM      8  C   UNL     1       1.367  -0.234   0.638  0.00  0.00    -0.013 C 
ATOM      9  C   UNL     1       0.053   0.192   0.026  0.00  0.00    +0.042 C 
ATOM     10  S   UNL     1       2.133  -1.654   1.397  0.00  0.00    -0.106 S 
ATOM     11  C   UNL     1       3.881  -1.079   1.338  0.00  0.00    +0.151 C 
ATOM     12  C   UNL     1       3.623   0.441   1.230  0.00  0.00    +0.132 C 
BRANCH  12  13
ATOM     13  C   UNL     1       4.699   1.066   0.381  0.00  0.00    +0.220 C 
ATOM     14  O   UNL     1       4.400   1.680  -0.622  0.00  0.00    -0.275 OA
ATOM     15  N   UNL     1       5.994   0.942   0.735  0.00  0.00    -0.329 N 
ATOM     16  H   UNL     1       6.232   0.451   1.536  0.00  0.00    +0.145 HD
ATOM     17  H   UNL     1       6.686   1.344   0.188  0.00  0.00    +0.145 HD
ENDBRANCH  12  13
ENDBRANCH   1  11
BRANCH   2  18
ATOM     18  C   UNL     1       6.299  -2.724   3.806  0.00  0.00    +0.173 C 
BRANCH  18  19
ATOM     19  S   UNL     1       7.637  -3.887   3.423  0.00  0.00    -0.075 S 
BRANCH  19  20
ATOM     20  C   UNL     1       8.310  -4.297   4.999  0.00  0.00    +0.210 A 
ATOM     21  N   UNL     1       7.887  -3.836   6.151  0.00  0.00    -0.144 NA
ATOM     22  H   UNL     1       8.629  -4.270   8.102  0.00  0.00    +0.192 HD
ATOM     23  N   UNL     1       8.693  -4.414   7.145  0.00  0.00    -0.246 N 
ATOM     24  C   UNL     1       9.576  -5.210   6.505  0.00  0.00    +0.209 A 
ATOM     25  N   UNL     1       9.331  -5.134   5.215  0.00  0.00    -0.188 NA
ATOM     26  N   UNL     1      10.561  -5.975   7.102  0.00  0.00    -0.328 N 
ATOM     27  H   UNL     1      10.663  -5.968   8.067  0.00  0.00    +0.145 HD
ATOM     28  H   UNL     1      11.151  -6.518   6.556  0.00  0.00    +0.145 HD
ENDBRANCH  19  20
ENDBRANCH  18  19
ENDBRANCH   2  18
TORSDOF 5
