REMARK  Name = ZINC06493798
REMARK  5 active torsions:
REMARK  status: ('A' for Active; 'I' for Inactive)
REMARK    1  A    between atoms: C_1  and  C_2
REMARK    2  A    between atoms: C_10  and  C_12
REMARK    3  A    between atoms: C_13  and  N_23
REMARK    4  A    between atoms: C_15  and  C_22
REMARK    5  A    between atoms: C_17  and  C_21
REMARK                            x       y       z     vdW  Elec       q    Type
REMARK                         _______ _______ _______ _____ _____    ______ ____
ROOT
ATOM      1  C   UNL     1      -0.683  -5.486   2.273  0.00  0.00    +0.078 A 
ATOM      2  C   UNL     1      -0.742  -6.731   1.719  0.00  0.00    +0.052 A 
ATOM      3  C   UNL     1      -0.721  -7.888   2.600  0.00  0.00    +0.030 A 
ATOM      4  C   UNL     1      -0.771  -9.263   2.260  0.00  0.00    -0.037 A 
ATOM      5  C   UNL     1      -0.739 -10.199   3.266  0.00  0.00    +0.025 A 
ATOM      6  C   UNL     1      -0.659  -9.802   4.593  0.00  0.00    +0.014 A 
ATOM      7  N   UNL     1      -0.612  -8.521   4.905  0.00  0.00    -0.353 N 
ATOM      8  C   UNL     1      -0.640  -7.588   3.979  0.00  0.00    +0.088 A 
ATOM      9  S   UNL     1      -0.590  -5.814   4.022  0.00  0.00    -0.066 S 
ATOM     10  C   UNL     1      -0.625 -10.840   5.684  0.00  0.00    +0.063 C 
ATOM     11  C   UNL     1      -0.860  -9.691   0.818  0.00  0.00    +0.044 C 
ATOM     12  H   UNL     1      -0.556  -8.262   5.838  0.00  0.00    +0.166 HD
ENDROOT
BRANCH   1  22
ATOM     13  C   UNL     1      -0.628   1.590   0.061  0.00  0.00    +0.044 C 
ATOM     14  C   UNL     1      -0.668   0.084   0.046  0.00  0.00    -0.048 A 
ATOM     15  C   UNL     1      -0.755  -0.592  -1.162  0.00  0.00    +0.005 A 
ATOM     16  C   UNL     1      -0.793  -1.967  -1.193  0.00  0.00    +0.030 A 
ATOM     17  C   UNL     1      -0.743  -2.691   0.003  0.00  0.00    +0.089 A 
ATOM     18  C   UNL     1      -0.654  -2.001   1.225  0.00  0.00    +0.067 A 
ATOM     19  C   UNL     1      -0.612  -0.614   1.235  0.00  0.00    +0.031 A 
ATOM     20  N   UNL     1      -0.622  -2.967   2.215  0.00  0.00    -0.337 N 
ATOM     21  H   UNL     1      -0.563  -2.811   3.170  0.00  0.00    +0.167 HD
ATOM     22  C   UNL     1      -0.690  -4.187   1.591  0.00  0.00    +0.148 A 
ATOM     23  N   UNL     1      -0.760  -4.015   0.289  0.00  0.00    -0.227 NA
ENDBRANCH   1  22
BRANCH   2  24
ATOM     24  N   UNL     1      -0.821  -6.891   0.335  0.00  0.00    -0.356 N 
ATOM     25  H   UNL     1      -1.190  -6.182  -0.215  0.00  0.00    +0.142 HD
ATOM     26  H   UNL     1      -0.506  -7.710  -0.077  0.00  0.00    +0.142 HD
ENDBRANCH   2  24
TORSDOF 2
