REMARK  Name = ZINC19265889
REMARK  7 active torsions:
REMARK  status: ('A' for Active; 'I' for Inactive)
REMARK    1  A    between atoms: C_1  and  C_2
REMARK    2  A    between atoms: C_2  and  C_3
REMARK    3  A    between atoms: C_2  and  C_4
REMARK    4  A    between atoms: C_2  and  C_5
REMARK    5  A    between atoms: C_5  and  C_7
REMARK    6  A    between atoms: C_5  and  N_22
REMARK    7  A    between atoms: C_7  and  N_8
REMARK                            x       y       z     vdW  Elec       q    Type
REMARK                         _______ _______ _______ _____ _____    ______ ____
ROOT
ATOM      1  N   UNL     1      -1.414  -1.993   0.125  0.00  0.00    -0.226 N 
ATOM      2  C   UNL     1      -1.427  -2.669   1.295  0.00  0.00    +0.246 C 
ATOM      3  O   UNL     1      -1.643  -2.210   2.395  0.00  0.00    -0.273 OA
ATOM      4  C   UNL     1      -1.122  -4.102   0.930  0.00  0.00    +0.113 C 
ATOM      5  C   UNL     1      -2.117  -5.046   1.588  0.00  0.00    +0.035 C 
ATOM      6  C   UNL     1      -1.557  -5.669   2.864  0.00  0.00    +0.003 C 
ATOM      7  C   UNL     1      -1.762  -4.738   4.050  0.00  0.00    +0.000 C 
ATOM      8  C   UNL     1      -0.510  -3.979   4.458  0.00  0.00    +0.000 C 
ATOM      9  C   UNL     1       0.741  -4.424   3.716  0.00  0.00    +0.000 C 
ATOM     10  C   UNL     1       0.880  -3.663   2.399  0.00  0.00    +0.003 C 
ATOM     11  C   UNL     1       0.323  -4.472   1.233  0.00  0.00    +0.035 C 
ATOM     12  N   UNL     1      -1.323  -4.120  -0.534  0.00  0.00    -0.285 N 
ATOM     13  C   UNL     1      -1.409  -2.833  -0.918  0.00  0.00    +0.309 C 
ATOM     14  O   UNL     1      -1.473  -2.472  -2.076  0.00  0.00    -0.252 OA
ATOM     15  H   UNL     1      -1.372  -5.079  -1.071  0.00  0.00    +0.151 HD
ENDROOT
BRANCH   1  16
ATOM     16  C   UNL     1      -1.433  -0.534   0.013  0.00  0.00    +0.102 C 
BRANCH  16  17
ATOM     17  C   UNL     1       0.002  -0.004   0.002  0.00  0.00    -0.051 C 
BRANCH  17  19
ATOM     18  C   UNL     1       1.417   2.055  -0.000  0.00  0.00    +0.009 C 
ATOM     19  C   UNL     1      -0.019   1.526   0.010  0.00  0.00    -0.049 C 
ATOM     20  C   UNL     1      -0.759   2.033  -1.229  0.00  0.00    +0.009 C 
ATOM     21  C   UNL     1      -0.735   2.019   1.269  0.00  0.00    +0.009 C 
ENDBRANCH  17  19
BRANCH  17  22
ATOM     22  N   UNL     1       0.713  -0.491   1.192  0.00  0.00    +0.381 N 
ATOM     23  H   UNL     1       0.728  -1.591   1.186  0.00  0.00    -0.090 HD
ATOM     24  H   UNL     1       0.198  -0.136   2.097  0.00  0.00    -0.090 HD
ATOM     25  H   UNL     1       1.745  -0.110   1.184  0.00  0.00    -0.090 HD
ENDBRANCH  17  22
ENDBRANCH  16  17
ENDBRANCH   1  16
TORSDOF 4
