REMARK  Name = ZINC49106291
REMARK  12 active torsions:
REMARK  status: ('A' for Active; 'I' for Inactive)
REMARK    1  A    between atoms: C_1  and  C_2
REMARK    2  A    between atoms: C_2  and  C_3
REMARK    3  A    between atoms: C_3  and  C_5
REMARK    4  A    between atoms: C_3  and  C_6
REMARK    5  A    between atoms: C_6  and  C_8
REMARK    6  A    between atoms: C_6  and  N_9
REMARK    7  A    between atoms: N_9  and  S_10
REMARK    8  A    between atoms: S_10  and  C_13
REMARK    9  A    between atoms: C_16  and  C_20
REMARK   10  A    between atoms: C_17  and  C_19
REMARK   11  A    between atoms: C_21  and  C_22
REMARK   12  A    between atoms: C_22  and  N_23
REMARK                            x       y       z     vdW  Elec       q    Type
REMARK                         _______ _______ _______ _____ _____    ______ ____
ROOT
ATOM      1  C   UNL     1       3.941  -3.332   1.199  0.00  0.00    +0.106 A 
ATOM      2  C   UNL     1       3.856  -3.527  -0.168  0.00  0.00    +0.030 A 
ATOM      3  C   UNL     1       4.899  -3.150  -0.987  0.00  0.00    +0.019 A 
ATOM      4  C   UNL     1       6.042  -2.571  -0.434  0.00  0.00    +0.028 A 
ATOM      5  C   UNL     1       6.122  -2.377   0.945  0.00  0.00    -0.033 A 
ATOM      6  C   UNL     1       5.069  -2.754   1.753  0.00  0.00    +0.033 A 
ATOM      7  C   UNL     1       7.352  -1.753   1.551  0.00  0.00    +0.045 C 
ENDROOT
BRANCH   1   8
ATOM      8  S   UNL     1       2.603  -3.817   2.239  0.00  0.00    +0.059 S 
ATOM      9  O   UNL     1       3.149  -4.023   3.534  0.00  0.00    -0.153 OA
ATOM     10  O   UNL     1       1.893  -4.830   1.541  0.00  0.00    -0.153 OA
BRANCH   8  11
ATOM     11  N   UNL     1       1.581  -2.519   2.358  0.00  0.00    -0.187 NA
ATOM     12  H   UNL     1       1.451  -2.080   3.213  0.00  0.00    +0.148 HD
BRANCH  11  13
ATOM     13  C   UNL     1       0.872  -2.034   1.171  0.00  0.00    +0.076 C 
ATOM     14  C   UNL     1      -0.522  -2.663   1.116  0.00  0.00    +0.026 C 
BRANCH  13  15
ATOM     15  C   UNL     1       0.742  -0.511   1.242  0.00  0.00    +0.004 C 
ATOM     16  C   UNL     1      -0.042  -0.124   2.497  0.00  0.00    +0.009 C 
BRANCH  15  18
ATOM     17  C   UNL     1      -0.019   1.526   0.010  0.00  0.00    +0.004 C 
ATOM     18  C   UNL     1       0.002  -0.004   0.002  0.00  0.00    +0.001 C 
ENDBRANCH  15  18
ENDBRANCH  13  15
ENDBRANCH  11  13
ENDBRANCH   8  11
ENDBRANCH   1   8
BRANCH   4  19
ATOM     19  C   UNL     1       7.130  -2.177  -1.279  0.00  0.00    -0.068 C 
ATOM     20  C   UNL     1       8.021  -1.854  -1.972  0.00  0.00    -0.117 C 
BRANCH  20  21
ATOM     21  C   UNL     1       9.139  -1.450  -2.840  0.00  0.00    +0.005 C 
BRANCH  21  22
ATOM     22  N   UNL     1      10.211  -0.872  -2.020  0.00  0.00    +0.385 N 
ATOM     23  H   UNL     1      10.534  -1.559  -1.355  0.00  0.00    -0.089 HD
ATOM     24  H   UNL     1      10.977  -0.595  -2.616  0.00  0.00    -0.089 HD
ATOM     25  H   UNL     1       9.860  -0.065  -1.527  0.00  0.00    -0.089 HD
ENDBRANCH  21  22
ENDBRANCH  20  21
ENDBRANCH   4  19
TORSDOF 8
