REMARK  Name = ZINC37006595
REMARK  12 active torsions:
REMARK  status: ('A' for Active; 'I' for Inactive)
REMARK    1  A    between atoms: C_1  and  C_2
REMARK    2  A    between atoms: C_5  and  C_39
REMARK    3  A    between atoms: N_8  and  C_10
REMARK    4  A    between atoms: C_10  and  C_11
REMARK    5  A    between atoms: C_11  and  C_12
REMARK    6  A    between atoms: C_12  and  N_13
REMARK    7  A    between atoms: C_14  and  C_16
REMARK    8  A    between atoms: C_16  and  C_38
REMARK    9  A    between atoms: C_21  and  O_36
REMARK   10  A    between atoms: N_29  and  C_30
REMARK   11  A    between atoms: C_30  and  C_31
REMARK   12  A    between atoms: O_36  and  C_37
REMARK                            x       y       z     vdW  Elec       q    Type
REMARK                         _______ _______ _______ _____ _____    ______ ____
ROOT
ATOM      1  C   UNL     1       1.974   0.769   8.260  0.00  0.00    +0.129 C 
ATOM      2  C   UNL     1       2.426   0.117   9.566  0.00  0.00    +0.157 C 
ATOM      3  N   UNL     1       1.608  -1.074   9.821  0.00  0.00    -0.334 N 
ATOM      4  C   UNL     1       1.911  -2.220  10.476  0.00  0.00    +0.053 A 
ATOM      5  C   UNL     1       3.077  -2.661  11.100  0.00  0.00    +0.072 A 
ATOM      6  C   UNL     1       3.042  -3.917  11.690  0.00  0.00    +0.122 A 
ATOM      7  C   UNL     1       1.901  -4.714  11.667  0.00  0.00    +0.046 A 
ATOM      8  C   UNL     1       0.742  -4.308  11.060  0.00  0.00    +0.013 A 
ATOM      9  C   UNL     1       0.749  -3.042  10.455  0.00  0.00    +0.001 A 
ATOM     10  C   UNL     1      -0.248  -2.337   9.757  0.00  0.00    +0.041 A 
ATOM     11  C   UNL     1       0.285  -1.157   9.375  0.00  0.00    +0.106 A 
ATOM     12  C   UNL     1      -0.316  -0.057   8.600  0.00  0.00    +0.264 C 
ATOM     13  O   UNL     1      -1.507  -0.025   8.352  0.00  0.00    -0.268 OA
ATOM     14  N   UNL     1       0.525   0.915   8.179  0.00  0.00    -0.276 N 
ATOM     15  C   UNL     1       2.617   2.153   8.152  0.00  0.00    +0.043 C 
ENDROOT
BRANCH   1  17
ATOM     16  N   UNL     1       1.665  -1.077   6.642  0.00  0.00    -0.314 N 
ATOM     17  C   UNL     1       2.443  -0.078   7.105  0.00  0.00    +0.238 C 
ATOM     18  O   UNL     1       3.520   0.140   6.592  0.00  0.00    -0.273 OA
ATOM     19  H   UNL     1       0.837  -1.297   7.096  0.00  0.00    +0.149 HD
BRANCH  16  20
ATOM     20  C   UNL     1       2.071  -1.830   5.453  0.00  0.00    +0.102 C 
BRANCH  20  21
ATOM     21  C   UNL     1       1.021  -2.898   5.143  0.00  0.00    +0.000 C 
BRANCH  21  22
ATOM     22  C   UNL     1       1.445  -3.685   3.901  0.00  0.00    -0.077 C 
BRANCH  22  28
ATOM     23  C   UNL     1      -2.057  -5.998   4.339  0.00  0.00    +0.005 C 
ATOM     24  C   UNL     1      -0.708  -6.713   4.431  0.00  0.00    -0.031 C 
ATOM     25  C   UNL     1      -0.420  -7.434   3.111  0.00  0.00    +0.003 C 
ATOM     26  C   UNL     1      -0.307  -6.397   1.988  0.00  0.00    -0.031 C 
ATOM     27  C   UNL     1       0.783  -5.384   2.345  0.00  0.00    -0.076 C 
ATOM     28  N   UNL     1       0.437  -4.710   3.603  0.00  0.00    +0.380 N 
ATOM     29  C   UNL     1       0.397  -5.688   4.698  0.00  0.00    -0.076 C 
ATOM     30  C   UNL     1       0.057  -7.100   0.679  0.00  0.00    +0.005 C 
ATOM     31  H   UNL     1      -0.468  -4.273   3.511  0.00  0.00    -0.082 HD
ENDBRANCH  22  28
ENDBRANCH  21  22
ENDBRANCH  20  21
ENDBRANCH  16  20
ENDBRANCH   1  17
BRANCH   6  32
ATOM     32  O   UNL     1       4.157  -4.384  12.308  0.00  0.00    -0.495 OA
ATOM     33  C   UNL     1       4.075  -5.682  12.901  0.00  0.00    +0.277 C 
ENDBRANCH   6  32
BRANCH  14  34
ATOM     34  C   UNL     1      -0.035   2.150   7.625  0.00  0.00    +0.151 C 
BRANCH  34  35
ATOM     35  C   UNL     1      -0.092   2.047   6.123  0.00  0.00    +0.007 A 
ATOM     36  C   UNL     1      -1.049   1.491   5.341  0.00  0.00    +0.013 A 
ATOM     37  C   UNL     1      -0.889   1.512   3.968  0.00  0.00    +0.008 A 
ATOM     38  C   UNL     1       0.220   2.089   3.445  0.00  0.00    +0.045 A 
ATOM     39  S   UNL     1       1.081   2.633   4.911  0.00  0.00    -0.100 S 
ENDBRANCH  34  35
ENDBRANCH  14  34
TORSDOF 8
