REMARK  Name = ZINC20076137
REMARK  4 active torsions:
REMARK  status: ('A' for Active; 'I' for Inactive)
REMARK    1  A    between atoms: C_1  and  C_2
REMARK    2  A    between atoms: C_2  and  N_3
REMARK    3  A    between atoms: N_6  and  C_9
REMARK    4  A    between atoms: C_14  and  C_15
REMARK                            x       y       z     vdW  Elec       q    Type
REMARK                         _______ _______ _______ _____ _____    ______ ____
ROOT
ATOM      1  C   UNL     1      -0.017   1.387   0.010  0.00  0.00    +0.040 A 
ATOM      2  C   UNL     1      -1.227   2.068   0.019  0.00  0.00    +0.024 A 
ATOM      3  C   UNL     1      -1.243   3.448   0.032  0.00  0.00    +0.002 A 
ATOM      4  C   UNL     1      -0.056   4.163   0.025  0.00  0.00    +0.001 A 
ATOM      5  C   UNL     1       1.154   3.502   0.010  0.00  0.00    +0.013 A 
ATOM      6  C   UNL     1       1.185   2.107   0.002  0.00  0.00    +0.033 A 
ENDROOT
BRANCH   6   7
ATOM      7  C   UNL     1       2.480   1.394  -0.015  0.00  0.00    +0.096 C 
ATOM      8  N   UNL     1       2.505   0.090  -0.022  0.00  0.00    -0.387 N 
ATOM      9  N   UNL     1       3.660   2.106  -0.022  0.00  0.00    -0.345 N 
ATOM     10  H   UNL     1       3.468  -0.441  -0.035  0.00  0.00    +0.157 HD
ATOM     11  H   UNL     1       4.623   1.575  -0.035  0.00  0.00    +0.144 HD
ATOM     12  H   UNL     1       3.638   3.206  -0.015  0.00  0.00    +0.144 HD
ATOM     13  H   UNL     1       1.564  -0.478  -0.016  0.00  0.00    +0.157 HD
ENDBRANCH   6   7
BRANCH   1  17
ATOM     14  N   UNL     1      -1.164  -2.601  -0.041  0.00  0.00    -0.300 NA
ATOM     15  C   UNL     1      -0.554  -2.073   1.188  0.00  0.00    +0.103 C 
ATOM     16  C   UNL     1      -0.665  -0.546   1.194  0.00  0.00    +0.120 C 
ATOM     17  N   UNL     1       0.002  -0.004   0.002  0.00  0.00    -0.327 N 
ATOM     18  C   UNL     1      -0.608  -0.532  -1.226  0.00  0.00    +0.120 C 
ATOM     19  C   UNL     1      -0.496  -2.059  -1.232  0.00  0.00    +0.103 C 
BRANCH  14  21
ATOM     20  C   UNL     1      -1.553  -4.578  -1.433  0.00  0.00    +0.020 C 
ATOM     21  C   UNL     1      -1.144  -4.070  -0.049  0.00  0.00    +0.081 C 
ENDBRANCH  14  21
ENDBRANCH   1  17
TORSDOF 3
