REMARK  Name = ZINC39353491
REMARK  10 active torsions:
REMARK  status: ('A' for Active; 'I' for Inactive)
REMARK    1  A    between atoms: C_1  and  O_2
REMARK    2  A    between atoms: O_2  and  C_3
REMARK    3  A    between atoms: C_7  and  O_36
REMARK    4  A    between atoms: C_8  and  C_9
REMARK    5  A    between atoms: C_13  and  O_15
REMARK    6  A    between atoms: O_15  and  C_16
REMARK    7  A    between atoms: N_20  and  C_22
REMARK    8  A    between atoms: C_22  and  C_23
REMARK    9  A    between atoms: C_28  and  C_29
REMARK   10  A    between atoms: O_36  and  C_37
REMARK                            x       y       z     vdW  Elec       q    Type
REMARK                         _______ _______ _______ _____ _____    ______ ____
ROOT
ATOM      1  C   UNL     1       0.211  -3.155  -0.380  0.00  0.00    -0.007 A 
ATOM      2  C   UNL     1      -0.906  -3.899   0.001  0.00  0.00    +0.014 A 
ATOM      3  C   UNL     1      -1.588  -4.638  -0.942  0.00  0.00    -0.018 A 
ATOM      4  C   UNL     1      -1.181  -4.639  -2.262  0.00  0.00    +0.163 A 
ATOM      5  C   UNL     1      -0.061  -3.907  -2.649  0.00  0.00    +0.162 A 
ATOM      6  C   UNL     1       0.629  -3.161  -1.710  0.00  0.00    +0.058 A 
ATOM      7  O   UNL     1      -1.894  -5.338  -3.190  0.00  0.00    -0.490 OA
ATOM      8  C   UNL     1      -3.201  -4.822  -3.472  0.00  0.00    +0.211 C 
ATOM      9  C   UNL     1      -4.212  -5.343  -2.476  0.00  0.00    -0.037 C 
ATOM     10  N   UNL     1      -3.997  -4.874  -1.111  0.00  0.00    +0.385 N 
ATOM     11  C   UNL     1      -2.788  -5.468  -0.530  0.00  0.00    -0.039 C 
ATOM     12  H   UNL     1      -3.901  -3.870  -1.118  0.00  0.00    -0.081 HD
ENDROOT
BRANCH   1  18
ATOM     13  C   UNL     1       0.972  -0.959   0.533  0.00  0.00    +0.131 A 
ATOM     14  C   UNL     1       1.658  -0.216   1.480  0.00  0.00    +0.046 A 
ATOM     15  C   UNL     1       2.322  -0.852   2.513  0.00  0.00    +0.007 A 
ATOM     16  C   UNL     1       2.308  -2.231   2.610  0.00  0.00    +0.046 A 
ATOM     17  C   UNL     1       1.626  -2.987   1.670  0.00  0.00    +0.131 A 
ATOM     18  C   UNL     1       0.947  -2.353   0.626  0.00  0.00    +0.065 A 
BRANCH  13  20
ATOM     19  C   UNL     1       0.388   1.094  -0.514  0.00  0.00    +0.277 C 
ATOM     20  O   UNL     1       0.320  -0.333  -0.481  0.00  0.00    -0.494 OA
ENDBRANCH  13  20
BRANCH  17  21
ATOM     21  O   UNL     1       1.613  -4.343   1.767  0.00  0.00    -0.494 OA
ATOM     22  C   UNL     1       2.324  -4.922   2.862  0.00  0.00    +0.277 C 
ENDBRANCH  17  21
ENDBRANCH   1  18
BRANCH   5  23
ATOM     23  O   UNL     1       0.349  -3.922  -3.946  0.00  0.00    -0.491 OA
ATOM     24  C   UNL     1       1.506  -3.147  -4.269  0.00  0.00    +0.277 C 
ENDBRANCH   5  23
BRANCH  10  25
ATOM     25  C   UNL     1      -5.157  -5.240  -0.287  0.00  0.00    -0.063 C 
BRANCH  25  26
ATOM     26  C   UNL     1      -6.386  -4.462  -0.764  0.00  0.00    +0.066 C 
ATOM     27  C   UNL     1      -6.242  -2.988  -0.443  0.00  0.00    +0.115 C 
ATOM     28  N   UNL     1      -7.217  -2.698   0.357  0.00  0.00    -0.161 NA
ATOM     29  N   UNL     1      -8.024  -3.797   0.632  0.00  0.00    -0.153 NA
ATOM     30  C   UNL     1      -7.617  -4.878   0.018  0.00  0.00    +0.077 C 
BRANCH  30  31
ATOM     31  C   UNL     1      -8.223  -6.217   0.073  0.00  0.00    -0.001 A 
ATOM     32  C   UNL     1      -7.655  -7.275  -0.644  0.00  0.00    +0.011 A 
ATOM     33  C   UNL     1      -8.229  -8.527  -0.588  0.00  0.00    +0.020 A 
ATOM     34  C   UNL     1      -9.365  -8.739   0.177  0.00  0.00    +0.041 A 
ATOM     35  C   UNL     1      -9.933  -7.695   0.889  0.00  0.00    +0.020 A 
ATOM     36  C   UNL     1      -9.367  -6.439   0.847  0.00  0.00    +0.011 A 
ATOM     37 CL   UNL     1     -10.080 -10.319   0.242  0.00  0.00    -0.084 Cl
ENDBRANCH  30  31
ENDBRANCH  25  26
ENDBRANCH  10  25
TORSDOF 7
