REMARK  Name = ZINC63588992
REMARK  7 active torsions:
REMARK  status: ('A' for Active; 'I' for Inactive)
REMARK    1  A    between atoms: C_1  and  C_2
REMARK    2  A    between atoms: C_7  and  N_8
REMARK    3  A    between atoms: N_10  and  C_11
REMARK    4  A    between atoms: C_11  and  C_12
REMARK    5  A    between atoms: C_12  and  C_13
REMARK    6  A    between atoms: N_22  and  C_23
REMARK    7  A    between atoms: C_23  and  C_25
REMARK                            x       y       z     vdW  Elec       q    Type
REMARK                         _______ _______ _______ _____ _____    ______ ____
ROOT
ATOM      1  N   UNL     1       0.079  -0.012   2.457  0.00  0.00    -0.328 N 
ATOM      2  C   UNL     1      -0.356  -0.726   3.537  0.00  0.00    +0.194 C 
ATOM      3  N   UNL     1      -0.887  -0.079   4.614  0.00  0.00    -0.357 N 
ATOM      4  N   UNL     1      -0.261  -2.047   3.538  0.00  0.00    -0.143 NA
ATOM      5  H   UNL     1      -1.196  -0.586   5.380  0.00  0.00    +0.162 HD
ATOM      6  H   UNL     1       0.912   0.484   2.507  0.00  0.00    +0.169 HD
ENDROOT
BRANCH   1  13
ATOM      7  C   UNL     1       1.000   1.591   0.295  0.00  0.00    +0.046 C 
ATOM      8  C   UNL     1      -0.263   0.774   0.200  0.00  0.00    -0.027 A 
ATOM      9  C   UNL     1      -1.007   0.785  -0.964  0.00  0.00    +0.007 A 
ATOM     10  C   UNL     1      -2.166   0.036  -1.052  0.00  0.00    +0.020 A 
ATOM     11  C   UNL     1      -2.583  -0.728   0.024  0.00  0.00    +0.043 A 
ATOM     12  C   UNL     1      -1.842  -0.743   1.190  0.00  0.00    +0.046 A 
ATOM     13  C   UNL     1      -0.676   0.005   1.280  0.00  0.00    +0.046 A 
ATOM     14 CL   UNL     1      -4.039  -1.666  -0.092  0.00  0.00    -0.083 Cl
ENDBRANCH   1  13
BRANCH   4  15
ATOM     15  C   UNL     1       0.160  -2.690   2.441  0.00  0.00    +0.270 C 
ATOM     16  O   UNL     1       0.436  -2.061   1.434  0.00  0.00    -0.268 OA
BRANCH  15  17
ATOM     17  C   UNL     1       0.291  -4.163   2.451  0.00  0.00    +0.043 A 
ATOM     18  C   UNL     1       0.097  -4.874   3.637  0.00  0.00    +0.017 A 
ATOM     19  C   UNL     1       0.220  -6.247   3.645  0.00  0.00    +0.050 A 
ATOM     20  C   UNL     1       0.535  -6.927   2.477  0.00  0.00    +0.166 A 
ATOM     21  C   UNL     1       0.730  -6.222   1.289  0.00  0.00    +0.167 A 
ATOM     22  C   UNL     1       0.603  -4.846   1.274  0.00  0.00    +0.062 A 
ATOM     23  O   UNL     1       1.027  -7.112   0.297  0.00  0.00    -0.453 OA
ATOM     24  C   UNL     1       1.413  -8.324   0.973  0.00  0.00    +0.466 C 
ATOM     25  O   UNL     1       0.710  -8.256   2.227  0.00  0.00    -0.453 OA
ENDBRANCH  15  17
ENDBRANCH   4  15
BRANCH   3  26
ATOM     26  C   UNL     1      -0.992   1.383   4.612  0.00  0.00    +0.120 C 
BRANCH  26  27
ATOM     27  C   UNL     1      -1.618   1.851   5.927  0.00  0.00    +0.054 C 
BRANCH  27  28
ATOM     28  C   UNL     1      -1.726   3.354   5.925  0.00  0.00    -0.040 C 
ATOM     29  C   UNL     1      -2.803   4.092   5.574  0.00  0.00    -0.001 A 
ATOM     30  C   UNL     1      -4.146   3.729   5.105  0.00  0.00    +0.010 A 
ATOM     31  C   UNL     1      -5.031   4.713   4.825  0.00  0.00    +0.001 A 
ATOM     32  C   UNL     1      -4.698   6.067   4.970  0.00  0.00    +0.002 A 
ATOM     33  C   UNL     1      -3.485   6.478   5.395  0.00  0.00    +0.026 A 
ATOM     34  C   UNL     1      -2.477   5.528   5.719  0.00  0.00    +0.043 A 
ATOM     35  N   UNL     1      -1.245   5.673   6.144  0.00  0.00    -0.380 N 
ATOM     36  C   UNL     1      -0.652   4.343   6.322  0.00  0.00    +0.144 C 
ATOM     37  H   UNL     1      -0.801   6.518   6.315  0.00  0.00    +0.160 HD
ENDBRANCH  27  28
ENDBRANCH  26  27
ENDBRANCH   3  26
TORSDOF 6
