REMARK  Name = ZINC20154850
REMARK  9 active torsions:
REMARK  status: ('A' for Active; 'I' for Inactive)
REMARK    1  A    between atoms: C_1  and  C_2
REMARK    2  A    between atoms: C_2  and  S_3
REMARK    3  A    between atoms: S_3  and  C_4
REMARK    4  A    between atoms: C_12  and  C_13
REMARK    5  A    between atoms: C_15  and  O_28
REMARK    6  A    between atoms: C_16  and  O_20
REMARK    7  A    between atoms: O_20  and  C_21
REMARK    8  A    between atoms: C_21  and  C_23
REMARK    9  A    between atoms: O_28  and  C_29
REMARK                            x       y       z     vdW  Elec       q    Type
REMARK                         _______ _______ _______ _____ _____    ______ ____
ROOT
ATOM      1  C   UNL     1       2.207  -4.522   6.774  0.00  0.00    -0.019 A 
ATOM      2  C   UNL     1       2.172  -4.221   8.143  0.00  0.00    +0.057 A 
ATOM      3  C   UNL     1       2.126  -5.242   9.070  0.00  0.00    +0.164 A 
ATOM      4  C   UNL     1       2.114  -6.571   8.645  0.00  0.00    +0.192 A 
ATOM      5  C   UNL     1       2.149  -6.872   7.288  0.00  0.00    +0.087 A 
ATOM      6  C   UNL     1       2.189  -5.859   6.355  0.00  0.00    +0.032 A 
ATOM      7 CL   UNL     1       2.135  -8.528   6.768  0.00  0.00    -0.080 Cl
ENDROOT
BRANCH   1  16
ATOM      8  C   UNL     1       2.668  -2.694   1.045  0.00  0.00    +0.175 C 
ATOM      9  N   UNL     1       2.983  -3.345  -0.042  0.00  0.00    -0.185 NA
ATOM     10  S   UNL     1       3.822  -4.687   0.509  0.00  0.00    +0.048 S 
ATOM     11  C   UNL     1       3.715  -4.422   2.151  0.00  0.00    +0.183 C 
ATOM     12  N   UNL     1       4.138  -5.157   3.157  0.00  0.00    -0.152 NA
ATOM     13  C   UNL     1       3.877  -4.766   4.418  0.00  0.00    +0.273 C 
ATOM     14  O   UNL     1       4.368  -5.355   5.368  0.00  0.00    -0.268 OA
ATOM     15  C   UNL     1       2.979  -3.603   4.626  0.00  0.00    +0.079 C 
ATOM     16  C   UNL     1       2.256  -3.442   5.785  0.00  0.00    +0.024 C 
ATOM     17  C   UNL     1       2.904  -2.619   3.507  0.00  0.00    +0.137 C 
ATOM     18  N   UNL     1       2.712  -1.341   3.687  0.00  0.00    -0.284 NA
ATOM     19  N   UNL     1       3.068  -3.206   2.237  0.00  0.00    -0.211 N 
ATOM     20  H   UNL     1       2.609  -0.987   4.585  0.00  0.00    +0.188 HD
BRANCH   8  21
ATOM     21  S   UNL     1       1.754  -1.190   0.966  0.00  0.00    -0.089 S 
BRANCH  21  23
ATOM     22  C   UNL     1       0.674   0.348  -1.022  0.00  0.00    +0.016 C 
ATOM     23  C   UNL     1       1.469  -0.942  -0.808  0.00  0.00    +0.074 C 
ENDBRANCH  21  23
ENDBRANCH   8  21
ENDBRANCH   1  16
BRANCH   3  24
ATOM     24  O   UNL     1       2.092  -4.954  10.399  0.00  0.00    -0.491 OA
ATOM     25  C   UNL     1       2.107  -3.572  10.763  0.00  0.00    +0.277 C 
ENDBRANCH   3  24
BRANCH   4  26
ATOM     26  O   UNL     1       2.069  -7.574   9.560  0.00  0.00    -0.417 OA
BRANCH  26  27
ATOM     27  C   UNL     1       0.857  -8.020   9.951  0.00  0.00    +0.351 C 
ATOM     28  O   UNL     1      -0.152  -7.525   9.487  0.00  0.00    -0.244 OA
BRANCH  27  29
ATOM     29  C   UNL     1       0.757  -9.099  10.935  0.00  0.00    +0.097 A 
ATOM     30  C   UNL     1      -0.377  -9.701  11.462  0.00  0.00    +0.022 A 
ATOM     31  C   UNL     1      -0.152 -10.699  12.378  0.00  0.00    +0.008 A 
ATOM     32  C   UNL     1       1.125 -11.023  12.700  0.00  0.00    +0.046 A 
ATOM     33  S   UNL     1       2.061  -9.989  11.763  0.00  0.00    -0.090 S 
ENDBRANCH  27  29
ENDBRANCH  26  27
ENDBRANCH   4  26
TORSDOF 7
