REMARK  Name = ZINC40782891
REMARK  10 active torsions:
REMARK  status: ('A' for Active; 'I' for Inactive)
REMARK    1  A    between atoms: C_1  and  C_2
REMARK    2  A    between atoms: C_5  and  S_8
REMARK    3  A    between atoms: S_8  and  N_11
REMARK    4  A    between atoms: N_11  and  N_12
REMARK    5  A    between atoms: C_14  and  N_30
REMARK    6  A    between atoms: C_15  and  N_19
REMARK    7  A    between atoms: N_19  and  C_20
REMARK    8  A    between atoms: C_23  and  C_26
REMARK    9  A    between atoms: C_26  and  O_28
REMARK   10  A    between atoms: O_28  and  C_29
REMARK                            x       y       z     vdW  Elec       q    Type
REMARK                         _______ _______ _______ _____ _____    ______ ____
ROOT
ATOM      1  N   UNL     1       2.788  -4.628   0.777  0.00  0.00    -0.244 N 
ATOM      2  C   UNL     1       3.326  -5.592   1.620  0.00  0.00    +0.159 A 
ATOM      3  C   UNL     1       4.202  -5.228   2.646  0.00  0.00    +0.107 A 
ATOM      4  C   UNL     1       4.713  -6.236   3.464  0.00  0.00    +0.149 A 
ATOM      5  N   UNL     1       4.349  -7.497   3.238  0.00  0.00    -0.219 NA
ATOM      6  C   UNL     1       3.520  -7.797   2.259  0.00  0.00    +0.225 A 
ATOM      7  N   UNL     1       3.010  -6.875   1.467  0.00  0.00    -0.218 NA
ATOM      8  H   UNL     1       3.023  -3.694   0.895  0.00  0.00    +0.169 HD
ENDROOT
BRANCH   3   9
ATOM      9  N   UNL     1       4.559  -3.885   2.847  0.00  0.00    -0.353 N 
ATOM     10  H   UNL     1       4.196  -3.195   2.270  0.00  0.00    +0.143 HD
ATOM     11  H   UNL     1       5.168  -3.648   3.563  0.00  0.00    +0.143 HD
ENDBRANCH   3   9
BRANCH   1  12
ATOM     12  N   UNL     1       1.906  -5.004  -0.245  0.00  0.00    -0.109 NA
ATOM     13  H   UNL     1       2.172  -5.674  -0.893  0.00  0.00    +0.172 HD
BRANCH  12  14
ATOM     14  S   UNL     1       0.409  -4.304  -0.345  0.00  0.00    +0.074 S 
ATOM     15  O   UNL     1      -0.206  -4.476   0.924  0.00  0.00    -0.152 OA
ATOM     16  O   UNL     1      -0.182  -4.778  -1.548  0.00  0.00    -0.152 OA
BRANCH  14  21
ATOM     17  C   UNL     1       1.253   1.628  -1.062  0.00  0.00    +0.044 C 
ATOM     18  C   UNL     1       1.042   0.146  -0.883  0.00  0.00    -0.050 A 
ATOM     19  C   UNL     1       0.958  -0.679  -1.989  0.00  0.00    +0.005 A 
ATOM     20  C   UNL     1       0.765  -2.038  -1.825  0.00  0.00    +0.029 A 
ATOM     21  C   UNL     1       0.656  -2.572  -0.554  0.00  0.00    +0.107 A 
ATOM     22  C   UNL     1       0.741  -1.747   0.552  0.00  0.00    +0.029 A 
ATOM     23  C   UNL     1       0.939  -0.389   0.388  0.00  0.00    +0.005 A 
ENDBRANCH  14  21
ENDBRANCH  12  14
ENDBRANCH   1  12
BRANCH   4  24
ATOM     24  N   UNL     1       5.590  -5.929   4.499  0.00  0.00    -0.298 N 
ATOM     25  H   UNL     1       5.785  -5.003   4.710  0.00  0.00    +0.154 HD
BRANCH  24  26
ATOM     26  C   UNL     1       6.186  -6.950   5.232  0.00  0.00    +0.032 A 
ATOM     27  C   UNL     1       6.569  -8.129   4.597  0.00  0.00    +0.024 A 
ATOM     28  C   UNL     1       7.156  -9.137   5.317  0.00  0.00    +0.017 A 
ATOM     29  C   UNL     1       7.371  -8.981   6.690  0.00  0.00    +0.059 A 
ATOM     30  C   UNL     1       6.985  -7.796   7.325  0.00  0.00    +0.017 A 
ATOM     31  C   UNL     1       6.403  -6.790   6.598  0.00  0.00    +0.024 A 
BRANCH  29  32
ATOM     32  C   UNL     1       8.002 -10.063   7.467  0.00  0.00    +0.339 C 
ATOM     33  O   UNL     1       8.336 -11.093   6.914  0.00  0.00    -0.245 OA
BRANCH  32  34
ATOM     34  O   UNL     1       8.207  -9.912   8.790  0.00  0.00    -0.464 OA
ATOM     35  C   UNL     1       8.824 -11.001   9.480  0.00  0.00    +0.280 C 
ENDBRANCH  32  34
ENDBRANCH  29  32
ENDBRANCH  24  26
ENDBRANCH   4  24
TORSDOF 8
