REMARK  Name = ZINC63513822
REMARK  9 active torsions:
REMARK  status: ('A' for Active; 'I' for Inactive)
REMARK    1  A    between atoms: C_1  and  C_2
REMARK    2  A    between atoms: C_4  and  C_14
REMARK    3  A    between atoms: C_7  and  O_12
REMARK    4  A    between atoms: O_12  and  C_13
REMARK    5  A    between atoms: C_14  and  C_15
REMARK    6  A    between atoms: C_15  and  N_16
REMARK    7  A    between atoms: N_16  and  S_17
REMARK    8  A    between atoms: S_17  and  C_20
REMARK    9  A    between atoms: C_22  and  C_29
REMARK                            x       y       z     vdW  Elec       q    Type
REMARK                         _______ _______ _______ _____ _____    ______ ____
ROOT
ATOM      1  N   UNL     1      -5.101  -1.331  -1.845  0.00  0.00    -0.189 NA
ATOM      2  H   UNL     1      -4.967  -0.658  -2.531  0.00  0.00    +0.148 HD
ENDROOT
BRANCH   1   3
ATOM      3  S   UNL     1      -6.582  -2.053  -1.671  0.00  0.00    +0.065 S 
ATOM      4  O   UNL     1      -7.438  -1.463  -2.640  0.00  0.00    -0.153 OA
ATOM      5  O   UNL     1      -6.346  -3.453  -1.614  0.00  0.00    -0.153 OA
BRANCH   3   6
ATOM      6  C   UNL     1      -7.208  -1.583  -0.092  0.00  0.00    +0.188 A 
ATOM      7  H   UNL     1      -8.861   0.752   1.396  0.00  0.00    +0.170 HD
ATOM      8  C   UNL     1      -7.891  -0.428   0.056  0.00  0.00    +0.049 A 
ATOM      9  N   UNL     1      -8.370  -0.078   1.289  0.00  0.00    -0.310 N 
ATOM     10  C   UNL     1      -8.167  -0.874   2.355  0.00  0.00    +0.327 A 
ATOM     11  O   UNL     1      -8.602  -0.544   3.441  0.00  0.00    -0.247 OA
ATOM     12  N   UNL     1      -7.490  -2.031   2.235  0.00  0.00    -0.273 N 
ATOM     13  C   UNL     1      -7.006  -2.414   1.036  0.00  0.00    +0.281 A 
ATOM     14  O   UNL     1      -6.398  -3.463   0.925  0.00  0.00    -0.266 OA
ATOM     15  C   UNL     1      -8.124   0.472  -1.130  0.00  0.00    +0.065 C 
ATOM     16  H   UNL     1      -7.352  -2.593   3.013  0.00  0.00    +0.173 HD
ENDBRANCH   3   6
ENDBRANCH   1   3
BRANCH   1  17
ATOM     17  C   UNL     1      -3.994  -1.708  -0.963  0.00  0.00    +0.110 C 
BRANCH  17  18
ATOM     18  C   UNL     1      -2.677  -1.198  -1.551  0.00  0.00    +0.050 C 
BRANCH  18  21
ATOM     19  C   UNL     1       0.155   0.231  -0.883  0.00  0.00    +0.035 C 
ATOM     20  C   UNL     1      -0.070  -1.282  -0.846  0.00  0.00    +0.103 C 
ATOM     21  C   UNL     1      -1.538  -1.586  -0.644  0.00  0.00    -0.037 C 
ATOM     22  C   UNL     1      -1.621  -2.276   0.516  0.00  0.00    +0.003 A 
ATOM     23  C   UNL     1      -2.752  -2.851   1.253  0.00  0.00    +0.055 A 
ATOM     24  C   UNL     1      -2.526  -3.504   2.418  0.00  0.00    +0.121 A 
ATOM     25  C   UNL     1      -1.236  -3.656   2.955  0.00  0.00    +0.047 A 
ATOM     26  C   UNL     1      -0.134  -3.163   2.350  0.00  0.00    +0.029 A 
ATOM     27  C   UNL     1      -0.263  -2.437   1.083  0.00  0.00    +0.043 A 
ATOM     28  N   UNL     1       0.626  -1.869   0.304  0.00  0.00    -0.378 N 
ATOM     29  H   UNL     1       1.583  -1.841   0.461  0.00  0.00    +0.160 HD
BRANCH  24  30
ATOM     30  O   UNL     1      -3.583  -4.032   3.090  0.00  0.00    -0.495 OA
ATOM     31  C   UNL     1      -3.299  -4.713   4.314  0.00  0.00    +0.277 C 
ENDBRANCH  24  30
ENDBRANCH  18  21
ENDBRANCH  17  18
ENDBRANCH   1  17
TORSDOF 6
