REMARK  Name = ZINC20611747
REMARK  9 active torsions:
REMARK  status: ('A' for Active; 'I' for Inactive)
REMARK    1  A    between atoms: C_1  and  C_2
REMARK    2  A    between atoms: C_4  and  C_38
REMARK    3  A    between atoms: C_13  and  C_16
REMARK    4  A    between atoms: C_16  and  C_17
REMARK    5  A    between atoms: C_17  and  C_18
REMARK    6  A    between atoms: N_23  and  C_26
REMARK    7  A    between atoms: C_26  and  C_27
REMARK    8  A    between atoms: C_32  and  O_33
REMARK    9  A    between atoms: O_33  and  C_34
REMARK                            x       y       z     vdW  Elec       q    Type
REMARK                         _______ _______ _______ _____ _____    ______ ____
ROOT
ATOM      1  C   UNL     1      -1.143   0.663  -0.229  0.00  0.00    +0.044 C 
ATOM      2  C   UNL     1      -0.869  -0.801   0.005  0.00  0.00    -0.050 A 
ATOM      3  C   UNL     1      -1.056  -1.713  -1.018  0.00  0.00    +0.008 A 
ATOM      4  C   UNL     1      -0.807  -3.053  -0.810  0.00  0.00    -0.029 A 
ATOM      5  C   UNL     1      -0.364  -3.499   0.433  0.00  0.00    +0.042 A 
ATOM      6  C   UNL     1      -0.180  -2.572   1.455  0.00  0.00    +0.004 A 
ATOM      7  C   UNL     1      -0.424  -1.234   1.241  0.00  0.00    +0.011 A 
ATOM      8  C   UNL     1       0.295  -3.360   2.643  0.00  0.00    +0.136 C 
ATOM      9  C   UNL     1      -0.653  -3.200   3.838  0.00  0.00    +0.122 C 
ATOM     10  C   UNL     1       0.280  -3.202   5.081  0.00  0.00    +0.107 C 
ATOM     11  C   UNL     1       1.700  -3.398   4.510  0.00  0.00    +0.068 C 
ATOM     12  N   UNL     1       1.615  -2.894   3.107  0.00  0.00    -0.295 NA
ATOM     13  C   UNL     1       0.134  -1.801   5.629  0.00  0.00    +0.227 C 
ATOM     14  O   UNL     1       0.709  -1.367   6.604  0.00  0.00    -0.275 OA
ATOM     15  N   UNL     1      -0.729  -1.115   4.870  0.00  0.00    -0.237 N 
ATOM     16  C   UNL     1      -1.247  -1.809   3.831  0.00  0.00    +0.229 C 
ATOM     17  O   UNL     1      -2.050  -1.394   3.023  0.00  0.00    -0.275 OA
ATOM     18  C   UNL     1       0.349  -4.787   2.170  0.00  0.00    +0.243 C 
ATOM     19  O   UNL     1       0.685  -5.753   2.822  0.00  0.00    -0.273 OA
ATOM     20  N   UNL     1      -0.048  -4.783   0.883  0.00  0.00    -0.283 N 
ATOM     21  C   UNL     1      -1.015  -4.039  -1.931  0.00  0.00    +0.045 C 
ATOM     22  H   UNL     1       2.355  -3.283   2.542  0.00  0.00    +0.123 HD
ATOM     23  H   UNL     1      -0.107  -5.580   0.333  0.00  0.00    +0.155 HD
ENDROOT
BRANCH  11  24
ATOM     24  C   UNL     1       2.711  -2.565   5.301  0.00  0.00    +0.028 C 
BRANCH  24  25
ATOM     25  C   UNL     1       4.124  -2.869   4.801  0.00  0.00    +0.097 C 
BRANCH  25  26
ATOM     26  C   UNL     1       5.120  -2.048   5.580  0.00  0.00    +0.211 C 
ATOM     27  O   UNL     1       4.736  -1.294   6.449  0.00  0.00    -0.276 OA
ATOM     28  N   UNL     1       6.436  -2.152   5.311  0.00  0.00    -0.329 N 
ATOM     29  H   UNL     1       6.743  -2.755   4.615  0.00  0.00    +0.145 HD
ATOM     30  H   UNL     1       7.077  -1.623   5.812  0.00  0.00    +0.145 HD
ENDBRANCH  25  26
ENDBRANCH  24  25
ENDBRANCH  11  24
BRANCH  15  31
ATOM     31  C   UNL     1      -1.091   0.278   5.145  0.00  0.00    +0.155 C 
BRANCH  31  32
ATOM     32  C   UNL     1      -2.376   0.317   5.931  0.00  0.00    +0.012 A 
ATOM     33  C   UNL     1      -3.555   0.684   5.310  0.00  0.00    +0.009 A 
ATOM     34  C   UNL     1      -4.735   0.721   6.030  0.00  0.00    +0.001 A 
ATOM     35  C   UNL     1      -4.738   0.390   7.373  0.00  0.00    +0.004 A 
ATOM     36  C   UNL     1      -3.563   0.022   7.998  0.00  0.00    +0.046 A 
ATOM     37  C   UNL     1      -2.378  -0.020   7.276  0.00  0.00    +0.125 A 
BRANCH  37  38
ATOM     38  O   UNL     1      -1.222  -0.387   7.888  0.00  0.00    -0.495 OA
ATOM     39  C   UNL     1      -1.273  -0.598   9.300  0.00  0.00    +0.277 C 
ENDBRANCH  37  38
ENDBRANCH  31  32
ENDBRANCH  15  31
TORSDOF 6
