REMARK  Name = ZINC33960249
REMARK  11 active torsions:
REMARK  status: ('A' for Active; 'I' for Inactive)
REMARK    1  A    between atoms: C_1  and  C_2
REMARK    2  A    between atoms: C_5  and  C_37
REMARK    3  A    between atoms: N_8  and  S_10
REMARK    4  A    between atoms: S_10  and  C_13
REMARK    5  A    between atoms: C_17  and  C_19
REMARK    6  A    between atoms: N_24  and  N_25
REMARK    7  A    between atoms: C_26  and  C_27
REMARK    8  A    between atoms: C_31  and  O_35
REMARK    9  A    between atoms: C_32  and  O_33
REMARK   10  A    between atoms: O_33  and  C_34
REMARK   11  A    between atoms: O_35  and  C_36
REMARK                            x       y       z     vdW  Elec       q    Type
REMARK                         _______ _______ _______ _____ _____    ______ ____
ROOT
ATOM      1  C   UNL     1       4.839  -1.803  -2.812  0.00  0.00    +0.080 A 
ATOM      2  C   UNL     1       5.184  -2.015  -4.117  0.00  0.00    +0.077 A 
ATOM      3  S   UNL     1       6.330  -0.668  -4.381  0.00  0.00    -0.059 S 
ATOM      4  C   UNL     1       6.232   0.033  -2.739  0.00  0.00    +0.178 A 
ATOM      5  N   UNL     1       5.369  -0.780  -2.157  0.00  0.00    -0.224 NA
ATOM      6  N   UNL     1       6.885   1.137  -2.218  0.00  0.00    -0.215 N 
ATOM      7  H   UNL     1       6.731   1.401  -1.298  0.00  0.00    +0.176 HD
ENDROOT
BRANCH   1  12
ATOM      8  C   UNL     1       2.547  -3.268  -0.217  0.00  0.00    +0.106 A 
ATOM      9  C   UNL     1       2.078  -4.392  -0.874  0.00  0.00    +0.028 A 
ATOM     10  C   UNL     1       2.504  -4.676  -2.159  0.00  0.00    +0.003 A 
ATOM     11  C   UNL     1       3.401  -3.839  -2.793  0.00  0.00    +0.010 A 
ATOM     12  C   UNL     1       3.876  -2.706  -2.136  0.00  0.00    +0.003 A 
ATOM     13  C   UNL     1       3.438  -2.421  -0.843  0.00  0.00    +0.038 A 
BRANCH   8  14
ATOM     14  S   UNL     1       1.999  -2.914   1.419  0.00  0.00    +0.061 S 
ATOM     15  O   UNL     1       2.998  -2.098   2.015  0.00  0.00    -0.153 OA
ATOM     16  O   UNL     1       1.587  -4.150   1.986  0.00  0.00    -0.153 OA
BRANCH  14  22
ATOM     17  C   UNL     1      -0.019   1.526   0.010  0.00  0.00    +0.009 C 
ATOM     18  C   UNL     1       0.002  -0.004   0.002  0.00  0.00    +0.002 C 
ATOM     19  C   UNL     1      -1.433  -0.534   0.015  0.00  0.00    +0.009 C 
ATOM     20  C   UNL     1      -1.414  -2.064  -0.027  0.00  0.00    +0.002 C 
ATOM     21  C   UNL     1      -0.692  -2.596   1.215  0.00  0.00    +0.112 C 
ATOM     22  N   UNL     1       0.639  -1.977   1.288  0.00  0.00    -0.176 NA
ATOM     23  C   UNL     1       0.742  -0.512   1.244  0.00  0.00    +0.112 C 
ATOM     24  C   UNL     1      -2.850  -2.592  -0.049  0.00  0.00    +0.009 C 
ENDBRANCH  14  22
ENDBRANCH   8  14
ENDBRANCH   1  12
BRANCH   6  25
ATOM     25  N   UNL     1       7.767   1.872  -3.020  0.00  0.00    -0.188 NA
ATOM     26  C   UNL     1       8.379   2.908  -2.531  0.00  0.00    +0.142 C 
BRANCH  26  27
ATOM     27  C   UNL     1       9.308   3.682  -3.374  0.00  0.00    +0.040 A 
ATOM     28  C   UNL     1       9.972   4.794  -2.850  0.00  0.00    +0.013 A 
ATOM     29  C   UNL     1      10.840   5.515  -3.642  0.00  0.00    +0.004 A 
ATOM     30  C   UNL     1      11.058   5.143  -4.958  0.00  0.00    +0.049 A 
ATOM     31  C   UNL     1      10.405   4.043  -5.492  0.00  0.00    +0.162 A 
ATOM     32  C   UNL     1       9.533   3.303  -4.703  0.00  0.00    +0.170 A 
BRANCH  32  33
ATOM     33  O   UNL     1       8.895   2.220  -5.222  0.00  0.00    -0.491 OA
ATOM     34  C   UNL     1       7.630   2.448  -5.844  0.00  0.00    +0.277 C 
ENDBRANCH  32  33
BRANCH  31  35
ATOM     35  O   UNL     1      10.623   3.685  -6.785  0.00  0.00    -0.491 OA
ATOM     36  C   UNL     1      11.537   4.487  -7.535  0.00  0.00    +0.277 C 
ENDBRANCH  31  35
ENDBRANCH  26  27
ENDBRANCH   6  25
TORSDOF 7
