REMARK  Name = ZINC05218649
REMARK  12 active torsions:
REMARK  status: ('A' for Active; 'I' for Inactive)
REMARK    1  A    between atoms: C_1  and  C_2
REMARK    2  A    between atoms: C_3  and  O_21
REMARK    3  A    between atoms: C_4  and  C_8
REMARK    4  A    between atoms: C_11  and  O_15
REMARK    5  A    between atoms: C_13  and  O_14
REMARK    6  A    between atoms: O_15  and  C_16
REMARK    7  A    between atoms: C_16  and  C_17
REMARK    8  A    between atoms: N_19  and  N_20
REMARK    9  A    between atoms: O_21  and  C_22
REMARK   10  A    between atoms: C_25  and  C_28
REMARK   11  A    between atoms: C_28  and  O_30
REMARK   12  A    between atoms: O_30  and  C_31
REMARK                            x       y       z     vdW  Elec       q    Type
REMARK                         _______ _______ _______ _____ _____    ______ ____
ROOT
ATOM      1  C   UNL     1      -0.018   1.503   0.010  0.00  0.00    +0.069 C 
ATOM      2  C   UNL     1       0.002  -0.004   0.002  0.00  0.00    +0.076 A 
ATOM      3  C   UNL     1       0.008  -0.796  -1.097  0.00  0.00    +0.176 A 
ATOM      4  C   UNL     1       0.028  -2.138  -0.661  0.00  0.00    +0.138 A 
ATOM      5  N   UNL     1       0.034  -2.140   0.655  0.00  0.00    -0.170 NA
ATOM      6  N   UNL     1       0.024  -0.811   1.096  0.00  0.00    -0.278 N 
ATOM      7  H   UNL     1       0.029  -0.517   2.020  0.00  0.00    +0.189 HD
ENDROOT
BRANCH   4   8
ATOM      8  C   UNL     1       0.040  -3.337  -1.534  0.00  0.00    +0.047 A 
ATOM      9  C   UNL     1       0.037  -3.192  -2.920  0.00  0.00    +0.017 A 
ATOM     10  C   UNL     1       0.048  -4.309  -3.730  0.00  0.00    +0.046 A 
ATOM     11  C   UNL     1       0.062  -5.579  -3.167  0.00  0.00    +0.125 A 
ATOM     12  C   UNL     1       0.065  -5.731  -1.789  0.00  0.00    +0.091 A 
ATOM     13  C   UNL     1       0.060  -4.616  -0.969  0.00  0.00    +0.130 A 
BRANCH  13  14
ATOM     14  O   UNL     1       0.069  -4.763   0.382  0.00  0.00    -0.506 OA
ATOM     15  H   UNL     1      -0.812  -4.818   0.777  0.00  0.00    +0.292 HD
ENDBRANCH  13  14
BRANCH  11  16
ATOM     16  O   UNL     1       0.072  -6.675  -3.970  0.00  0.00    -0.483 OA
BRANCH  16  17
ATOM     17  C   UNL     1       0.067  -6.446  -5.381  0.00  0.00    +0.325 C 
BRANCH  17  18
ATOM     18  C   UNL     1       0.080  -7.768  -6.104  0.00  0.00    +0.264 C 
ATOM     19  O   UNL     1       0.091  -8.804  -5.474  0.00  0.00    -0.271 OA
ATOM     20  N   UNL     1       0.078  -7.799  -7.452  0.00  0.00    -0.251 N 
ATOM     21  H   UNL     1       0.069  -6.970  -7.956  0.00  0.00    +0.169 HD
BRANCH  20  22
ATOM     22  N   UNL     1       0.089  -8.997  -8.108  0.00  0.00    -0.254 NA
ATOM     23  H   UNL     1      -0.686  -9.575  -7.819  0.00  0.00    +0.140 HD
ATOM     24  H   UNL     1       0.086  -8.862  -9.108  0.00  0.00    +0.140 HD
ENDBRANCH  20  22
ENDBRANCH  17  18
ENDBRANCH  16  17
ENDBRANCH  11  16
ENDBRANCH   4   8
BRANCH   3  25
ATOM     25  O   UNL     1      -0.004  -0.372  -2.391  0.00  0.00    -0.452 OA
BRANCH  25  26
ATOM     26  C   UNL     1       1.188  -0.158  -3.002  0.00  0.00    +0.129 A 
ATOM     27  C   UNL     1       2.373  -0.378  -2.307  0.00  0.00    +0.047 A 
ATOM     28  C   UNL     1       3.584  -0.162  -2.924  0.00  0.00    +0.018 A 
ATOM     29  C   UNL     1       3.623   0.278  -4.250  0.00  0.00    +0.059 A 
ATOM     30  C   UNL     1       2.430   0.498  -4.945  0.00  0.00    +0.018 A 
ATOM     31  C   UNL     1       1.222   0.275  -4.323  0.00  0.00    +0.047 A 
BRANCH  29  32
ATOM     32  C   UNL     1       4.918   0.511  -4.914  0.00  0.00    +0.339 C 
ATOM     33  O   UNL     1       5.955   0.320  -4.309  0.00  0.00    -0.245 OA
BRANCH  32  34
ATOM     34  O   UNL     1       4.954   0.935  -6.193  0.00  0.00    -0.464 OA
ATOM     35  C   UNL     1       6.243   1.140  -6.773  0.00  0.00    +0.280 C 
ENDBRANCH  32  34
ENDBRANCH  29  32
ENDBRANCH  25  26
ENDBRANCH   3  25
TORSDOF 10
