REMARK  Name = ZINC01436475
REMARK  5 active torsions:
REMARK  status: ('A' for Active; 'I' for Inactive)
REMARK    1  A    between atoms: C_4  and  N_11
REMARK    2  A    between atoms: C_5  and  C_7
REMARK    3  A    between atoms: C_14  and  C_21
REMARK    4  A    between atoms: C_16  and  C_19
REMARK    5  A    between atoms: C_17  and  N_18
REMARK                            x       y       z     vdW  Elec       q    Type
REMARK                         _______ _______ _______ _____ _____    ______ ____
ROOT
ATOM      1  N   UNL     1       3.766   4.636   0.234  0.00  0.00    -0.260 N 
ATOM      2  C   UNL     1       3.206   4.598  -1.016  0.00  0.00    +0.024 C 
ATOM      3  C   UNL     1       1.957   4.119  -1.196  0.00  0.00    +0.025 C 
ATOM      4  C   UNL     1       1.151   3.599  -0.032  0.00  0.00    +0.097 C 
ATOM      5  C   UNL     1       1.708   4.086   1.273  0.00  0.00    +0.077 C 
ATOM      6  C   UNL     1       2.973   4.574   1.358  0.00  0.00    +0.107 C 
ATOM      7  C   UNL     1       1.369   4.091  -2.472  0.00  0.00    +0.162 C 
ATOM      8  O   UNL     1       0.245   3.646  -2.601  0.00  0.00    -0.292 OA
ATOM      9  C   UNL     1       2.103   4.600  -3.682  0.00  0.00    +0.080 C 
ATOM     10  C   UNL     1       3.090   5.688  -3.244  0.00  0.00    +0.014 C 
ATOM     11  C   UNL     1       4.021   5.100  -2.182  0.00  0.00    +0.052 C 
ENDROOT
BRANCH   4  12
ATOM     12  C   UNL     1       1.174   2.093  -0.049  0.00  0.00    -0.031 A 
ATOM     13  C   UNL     1       2.382   1.421  -0.057  0.00  0.00    +0.008 A 
ATOM     14  C   UNL     1       2.409   0.039  -0.073  0.00  0.00    +0.050 A 
ATOM     15  C   UNL     1       1.223  -0.677  -0.079  0.00  0.00    +0.166 A 
ATOM     16  C   UNL     1       0.005  -0.000  -0.070  0.00  0.00    +0.167 A 
ATOM     17  C   UNL     1      -0.014   1.385  -0.054  0.00  0.00    +0.054 A 
ATOM     18  O   UNL     1      -1.004  -0.919  -0.078  0.00  0.00    -0.453 OA
ATOM     19  C   UNL     1      -0.396  -2.162   0.319  0.00  0.00    +0.466 C 
ATOM     20  O   UNL     1       0.976  -2.019  -0.094  0.00  0.00    -0.453 OA
ENDBRANCH   4  12
BRANCH   1  24
ATOM     21  C   UNL     1       7.901   4.945   0.638  0.00  0.00    +0.001 A 
ATOM     22  C   UNL     1       7.316   3.704   0.465  0.00  0.00    +0.002 A 
ATOM     23  C   UNL     1       5.945   3.598   0.331  0.00  0.00    +0.024 A 
ATOM     24  C   UNL     1       5.155   4.740   0.370  0.00  0.00    +0.051 A 
ATOM     25  C   UNL     1       5.747   5.985   0.538  0.00  0.00    +0.076 A 
ATOM     26  C   UNL     1       7.117   6.083   0.677  0.00  0.00    +0.014 A 
BRANCH  25  27
ATOM     27  C   UNL     1       4.894   7.226   0.575  0.00  0.00    +0.419 C 
ATOM     28  F   UNL     1       5.717   8.356   0.627  0.00  0.00    -0.166 F 
ATOM     29  F   UNL     1       4.100   7.281  -0.575  0.00  0.00    -0.166 F 
ATOM     30  F   UNL     1       4.073   7.195   1.707  0.00  0.00    -0.166 F 
ENDBRANCH  25  27
ENDBRANCH   1  24
BRANCH   6  31
ATOM     31  N   UNL     1       3.462   5.005   2.568  0.00  0.00    -0.345 N 
ATOM     32  H   UNL     1       4.365   5.354   2.629  0.00  0.00    +0.144 HD
ATOM     33  H   UNL     1       2.904   4.962   3.360  0.00  0.00    +0.144 HD
ENDBRANCH   6  31
BRANCH   5  34
ATOM     34  C   UNL     1       0.893   4.035   2.450  0.00  0.00    +0.099 C 
ATOM     35  N   UNL     1       0.246   3.994   3.382  0.00  0.00    -0.191 NA
ENDBRANCH   5  34
TORSDOF 5
