REMARK  Name = ZINC08586357
REMARK  9 active torsions:
REMARK  status: ('A' for Active; 'I' for Inactive)
REMARK    1  A    between atoms: C_1  and  C_2
REMARK    2  A    between atoms: C_9  and  O_34
REMARK    3  A    between atoms: C_10  and  C_12
REMARK    4  A    between atoms: C_12  and  N_67
REMARK    5  A    between atoms: C_13  and  C_14
REMARK    6  A    between atoms: C_13  and  N_67
REMARK    7  A    between atoms: C_19  and  C_24
REMARK    8  A    between atoms: C_19  and  N_67
REMARK    9  A    between atoms: N_28  and  C_29
REMARK                            x       y       z     vdW  Elec       q    Type
REMARK                         _______ _______ _______ _____ _____    ______ ____
ROOT
ATOM      1  N   UNL     1       5.071   4.463  -1.702  0.00  0.00    +0.394 N 
ATOM      2  H   UNL     1       4.186   4.981  -1.762  0.00  0.00    -0.079 HD
ENDROOT
BRANCH   1   3
ATOM      3  C   UNL     1       6.149   5.398  -1.313  0.00  0.00    -0.002 C 
ATOM      4  C   UNL     1       5.639   6.322  -0.193  0.00  0.00    -0.004 C 
ATOM      5  C   UNL     1       5.704   7.761  -0.746  0.00  0.00    -0.001 C 
ATOM      6  C   UNL     1       5.652   7.580  -2.283  0.00  0.00    -0.001 C 
ATOM      7  C   UNL     1       6.505   6.307  -2.507  0.00  0.00    -0.004 C 
BRANCH   3   8
ATOM      8  C   UNL     1       7.372   4.650  -0.850  0.00  0.00    +0.141 A 
ATOM      9  N   UNL     1       7.477   3.356  -0.670  0.00  0.00    -0.115 NA
ATOM     10  N   UNL     1       8.677   3.105  -0.272  0.00  0.00    -0.023 NA
ATOM     11  N   UNL     1       9.339   4.206  -0.193  0.00  0.00    -0.044 NA
ATOM     12  N   UNL     1       8.571   5.181  -0.547  0.00  0.00    -0.228 N 
BRANCH  12  13
ATOM     13  C   UNL     1       8.935   6.598  -0.604  0.00  0.00    +0.111 C 
ATOM     14  C   UNL     1      10.134   6.799  -1.554  0.00  0.00    +0.027 C 
ATOM     15  C   UNL     1      10.976   7.907  -0.873  0.00  0.00    +0.002 C 
ATOM     16  C   UNL     1      10.846   7.561   0.631  0.00  0.00    +0.002 C 
ATOM     17  C   UNL     1       9.387   7.083   0.784  0.00  0.00    +0.027 C 
ENDBRANCH  12  13
ENDBRANCH   3   8
ENDBRANCH   1   3
BRANCH   1  18
ATOM     18  C   UNL     1       4.936   3.397  -0.687  0.00  0.00    -0.036 C 
BRANCH  18  28
ATOM     19  C   UNL     1      -1.388   1.736  -0.829  0.00  0.00    +0.046 C 
ATOM     20  C   UNL     1      -0.153   1.009  -1.295  0.00  0.00    -0.024 A 
ATOM     21  C   UNL     1      -0.261  -0.221  -1.869  0.00  0.00    +0.005 A 
ATOM     22  C   UNL     1       0.867  -0.908  -2.311  0.00  0.00    +0.001 A 
ATOM     23  C   UNL     1       2.110  -0.367  -2.182  0.00  0.00    +0.010 A 
ATOM     24  C   UNL     1       2.258   0.899  -1.595  0.00  0.00    +0.001 A 
ATOM     25  C   UNL     1       1.112   1.600  -1.144  0.00  0.00    +0.078 A 
ATOM     26  N   UNL     1       1.247   2.808  -0.584  0.00  0.00    -0.213 NA
ATOM     27  C   UNL     1       2.429   3.366  -0.441  0.00  0.00    +0.214 A 
ATOM     28  C   UNL     1       3.599   2.725  -0.867  0.00  0.00    -0.002 A 
ATOM     29  C   UNL     1       3.528   1.493  -1.445  0.00  0.00    +0.017 A 
BRANCH  27  30
ATOM     30  O   UNL     1       2.517   4.591   0.132  0.00  0.00    -0.492 OA
ATOM     31  H   UNL     1       2.625   4.569   1.093  0.00  0.00    +0.294 HD
ENDBRANCH  27  30
ENDBRANCH  18  28
ENDBRANCH   1  18
BRANCH   1  32
ATOM     32  C   UNL     1       5.370   3.869  -3.022  0.00  0.00    -0.034 C 
BRANCH  32  33
ATOM     33  C   UNL     1       6.725   3.209  -3.010  0.00  0.00    -0.027 A 
ATOM     34  C   UNL     1       7.048   1.928  -2.710  0.00  0.00    +0.009 A 
ATOM     35  C   UNL     1       8.373   1.539  -2.769  0.00  0.00    +0.008 A 
ATOM     36  C   UNL     1       9.312   2.453  -3.116  0.00  0.00    +0.045 A 
ATOM     37  S   UNL     1       8.323   3.916  -3.379  0.00  0.00    -0.103 S 
ENDBRANCH  32  33
ENDBRANCH   1  32
TORSDOF 8
