REMARK  Name = ZINC63192149
REMARK  4 active torsions:
REMARK  status: ('A' for Active; 'I' for Inactive)
REMARK    1  A    between atoms: C_1  and  C_2
REMARK    2  A    between atoms: C_2  and  C_4
REMARK    3  A    between atoms: C_2  and  N_23
REMARK    4  A    between atoms: N_10  and  C_11
REMARK                            x       y       z     vdW  Elec       q    Type
REMARK                         _______ _______ _______ _____ _____    ______ ____
ROOT
ATOM      1  C   UNL     1       0.816  -0.646   1.131  0.00  0.00    +0.043 C 
ATOM      2  C   UNL     1       2.334  -0.455   1.075  0.00  0.00    +0.017 C 
ATOM      3  C   UNL     1       2.947  -0.890   2.408  0.00  0.00    +0.003 C 
ATOM      4  C   UNL     1       2.571  -2.349   2.682  0.00  0.00    +0.015 C 
ATOM      5  C   UNL     1       1.047  -2.485   2.692  0.00  0.00    +0.085 C 
ATOM      6  N   UNL     1       0.508  -2.057   1.394  0.00  0.00    -0.286 NA
ENDROOT
BRANCH   6   7
ATOM      7  C   UNL     1      -0.938  -2.304   1.317  0.00  0.00    +0.176 C 
ATOM      8  C   UNL     1      -1.639  -1.718   2.521  0.00  0.00    +0.001 A 
ATOM      9  C   UNL     1      -1.756  -0.434   3.003  0.00  0.00    +0.007 A 
ATOM     10  C   UNL     1      -2.479  -0.194   4.159  0.00  0.00    +0.002 A 
ATOM     11  C   UNL     1      -3.082  -1.245   4.825  0.00  0.00    +0.017 A 
ATOM     12  C   UNL     1      -2.966  -2.534   4.343  0.00  0.00    +0.039 A 
ATOM     13  C   UNL     1      -2.240  -2.783   3.180  0.00  0.00    +0.053 A 
ATOM     14  N   UNL     1      -1.981  -3.977   2.504  0.00  0.00    -0.283 N 
ATOM     15  C   UNL     1      -1.228  -3.787   1.404  0.00  0.00    +0.239 C 
ATOM     16  O   UNL     1      -0.852  -4.641   0.629  0.00  0.00    -0.273 OA
ATOM     17 BR   UNL     1      -3.794  -3.963   5.264  0.00  0.00    -0.048 Br
ATOM     18  H   UNL     1      -2.306  -4.843   2.794  0.00  0.00    +0.155 HD
ENDBRANCH   6   7
BRANCH   1  20
ATOM     19  C   UNL     1       0.693  -1.172  -1.309  0.00  0.00    -0.013 C 
ATOM     20  C   UNL     1       0.201  -0.231  -0.207  0.00  0.00    -0.061 C 
BRANCH  20  21
ATOM     21  N   UNL     1       0.601   1.146  -0.525  0.00  0.00    +0.381 N 
ATOM     22  H   UNL     1       1.597   1.179  -0.683  0.00  0.00    -0.090 HD
ATOM     23  H   UNL     1       0.119   1.454  -1.356  0.00  0.00    -0.090 HD
ATOM     24  H   UNL     1       0.363   1.752   0.246  0.00  0.00    -0.090 HD
ENDBRANCH  20  21
ENDBRANCH   1  20
TORSDOF 3
