REMARK  Name = ZINC12985680
REMARK  5 active torsions:
REMARK  status: ('A' for Active; 'I' for Inactive)
REMARK    1  A    between atoms: C_6  and  C_7
REMARK    2  A    between atoms: C_12  and  C_13
REMARK    3  A    between atoms: C_12  and  N_55
REMARK    4  A    between atoms: N_15  and  C_16
REMARK    5  A    between atoms: C_17  and  C_24
REMARK                            x       y       z     vdW  Elec       q    Type
REMARK                         _______ _______ _______ _____ _____    ______ ____
ROOT
ATOM      1  C   UNL     1      -2.285   3.509  -1.538  0.00  0.00    +0.020 C 
ENDROOT
BRANCH   1   6
ATOM      2  C   UNL     1      -1.565   2.817   0.682  0.00  0.00    -0.037 C 
ATOM      3  C   UNL     1      -0.778   1.605   1.246  0.00  0.00    -0.013 C 
ATOM      4  C   UNL     1      -0.013   1.086   0.008  0.00  0.00    -0.020 C 
ATOM      5  C   UNL     1      -0.799   1.616  -1.205  0.00  0.00    -0.077 C 
ATOM      6  N   UNL     1      -1.943   2.349  -0.661  0.00  0.00    +0.390 N 
ATOM      7  H   UNL     1      -2.755   1.725  -0.596  0.00  0.00    -0.080 HD
BRANCH   2  13
ATOM      8  C   UNL     1      -3.885   2.267   1.444  0.00  0.00    +0.006 A 
ATOM      9  C   UNL     1      -5.002   2.519   2.217  0.00  0.00    +0.049 A 
ATOM     10  C   UNL     1      -5.026   3.615   3.066  0.00  0.00    +0.162 A 
ATOM     11  C   UNL     1      -3.920   4.454   3.144  0.00  0.00    +0.162 A 
ATOM     12  C   UNL     1      -2.800   4.192   2.369  0.00  0.00    +0.051 A 
ATOM     13  C   UNL     1      -2.784   3.099   1.523  0.00  0.00    -0.057 A 
ATOM     14  O   UNL     1      -3.919   5.530   3.978  0.00  0.00    -0.485 OA
ATOM     15  C   UNL     1      -5.193   5.973   4.458  0.00  0.00    +0.270 C 
ATOM     16  C   UNL     1      -5.984   4.744   4.927  0.00  0.00    +0.270 C 
ATOM     17  O   UNL     1      -6.138   3.858   3.813  0.00  0.00    -0.485 OA
ENDBRANCH   2  13
ENDBRANCH   1   6
BRANCH   1  18
ATOM     18  C   UNL     1      -2.849   3.010  -2.844  0.00  0.00    +0.201 C 
ATOM     19  O   UNL     1      -2.968   1.819  -3.037  0.00  0.00    -0.278 OA
ATOM     20  N   UNL     1      -3.221   3.888  -3.796  0.00  0.00    -0.281 N 
ATOM     21  H   UNL     1      -3.126   4.841  -3.642  0.00  0.00    +0.155 HD
BRANCH  20  22
ATOM     22  C   UNL     1      -3.740   3.429  -4.997  0.00  0.00    +0.084 A 
ATOM     23  C   UNL     1      -4.179   4.168  -6.083  0.00  0.00    +0.068 A 
ATOM     24  C   UNL     1      -4.684   3.433  -7.242  0.00  0.00    -0.023 A 
ATOM     25  C   UNL     1      -4.674   2.093  -7.118  0.00  0.00    -0.004 A 
ATOM     26  S   UNL     1      -4.004   1.794  -5.501  0.00  0.00    -0.077 S 
ATOM     27  C   UNL     1      -5.209   1.409  -8.347  0.00  0.00    +0.043 C 
ATOM     28  C   UNL     1      -5.162   2.492  -9.447  0.00  0.00    +0.010 C 
ATOM     29  C   UNL     1      -5.253   3.788  -8.617  0.00  0.00    +0.037 C 
BRANCH  23  30
ATOM     30  C   UNL     1      -4.135   5.633  -6.073  0.00  0.00    +0.244 C 
ATOM     31  O   UNL     1      -3.146   6.215  -6.479  0.00  0.00    -0.270 OA
ATOM     32  N   UNL     1      -5.189   6.336  -5.614  0.00  0.00    -0.325 N 
ATOM     33  H   UNL     1      -5.977   5.872  -5.290  0.00  0.00    +0.145 HD
ATOM     34  H   UNL     1      -5.160   7.305  -5.607  0.00  0.00    +0.145 HD
ENDBRANCH  23  30
ENDBRANCH  20  22
ENDBRANCH   1  18
TORSDOF 5
