REMARK  Name = ZINC36202326
REMARK  16 active torsions:
REMARK  status: ('A' for Active; 'I' for Inactive)
REMARK    1  A    between atoms: C_1  and  C_2
REMARK    2  A    between atoms: C_2  and  C_3
REMARK    3  A    between atoms: C_2  and  C_4
REMARK    4  A    between atoms: C_4  and  N_5
REMARK    5  A    between atoms: N_5  and  C_6
REMARK    6  A    between atoms: N_5  and  C_17
REMARK    7  A    between atoms: C_6  and  C_7
REMARK    8  A    between atoms: C_11  and  O_15
REMARK    9  A    between atoms: C_12  and  O_13
REMARK   10  A    between atoms: O_13  and  C_14
REMARK   11  A    between atoms: O_15  and  C_16
REMARK   12  A    between atoms: C_17  and  C_18
REMARK   13  A    between atoms: C_21  and  C_23
REMARK   14  A    between atoms: C_23  and  C_24
REMARK   15  A    between atoms: C_23  and  C_30
REMARK   16  A    between atoms: C_23  and  O_36
REMARK                            x       y       z     vdW  Elec       q    Type
REMARK                         _______ _______ _______ _____ _____    ______ ____
ROOT
ATOM      1  C   UNL     1      -2.656  -0.131  -3.253  0.00  0.00    +0.089 A 
ATOM      2  C   UNL     1      -2.211   1.087  -3.610  0.00  0.00    +0.043 A 
ATOM      3  C   UNL     1      -2.854   1.419  -4.824  0.00  0.00    +0.048 A 
ATOM      4  C   UNL     1      -3.654   0.384  -5.137  0.00  0.00    +0.146 A 
ATOM      5  O   UNL     1      -3.525  -0.555  -4.185  0.00  0.00    -0.463 OA
ENDROOT
BRANCH   1   6
ATOM      6  C   UNL     1      -2.244  -0.894  -2.021  0.00  0.00    -0.003 C 
BRANCH   6   7
ATOM      7  N   UNL     1      -3.035  -0.433  -0.872  0.00  0.00    +0.387 N 
ATOM      8  H   UNL     1      -2.925   0.565  -0.767  0.00  0.00    -0.081 HD
BRANCH   7   9
ATOM      9  C   UNL     1      -2.569  -1.109   0.346  0.00  0.00    -0.075 C 
BRANCH   9  11
ATOM     10  C   UNL     1      -1.127   0.829   0.985  0.00  0.00    +0.005 C 
ATOM     11  C   UNL     1      -1.139  -0.666   0.660  0.00  0.00    -0.034 C 
ATOM     12  C   UNL     1      -0.613  -1.453   1.861  0.00  0.00    +0.005 C 
ENDBRANCH   9  11
ENDBRANCH   7   9
BRANCH   7  13
ATOM     13  C   UNL     1      -4.452  -0.748  -1.095  0.00  0.00    -0.039 C 
BRANCH  13  14
ATOM     14  C   UNL     1      -5.278  -0.167   0.023  0.00  0.00    -0.019 A 
ATOM     15  C   UNL     1      -5.699  -0.975   1.063  0.00  0.00    +0.005 A 
ATOM     16  C   UNL     1      -6.457  -0.446   2.091  0.00  0.00    +0.004 A 
ATOM     17  C   UNL     1      -6.798   0.895   2.083  0.00  0.00    +0.049 A 
ATOM     18  C   UNL     1      -6.380   1.710   1.044  0.00  0.00    +0.162 A 
ATOM     19  C   UNL     1      -5.611   1.177   0.012  0.00  0.00    +0.163 A 
BRANCH  19  20
ATOM     20  O   UNL     1      -5.194   1.975  -1.007  0.00  0.00    -0.491 OA
ATOM     21  C   UNL     1      -6.058   2.086  -2.140  0.00  0.00    +0.277 C 
ENDBRANCH  19  20
BRANCH  18  22
ATOM     22  O   UNL     1      -6.714   3.028   1.034  0.00  0.00    -0.491 OA
ATOM     23  C   UNL     1      -7.500   3.506   2.128  0.00  0.00    +0.277 C 
ENDBRANCH  18  22
ENDBRANCH  13  14
ENDBRANCH   7  13
ENDBRANCH   6   7
ENDBRANCH   1   6
BRANCH   4  24
ATOM     24  C   UNL     1      -4.539   0.291  -6.353  0.00  0.00    +0.174 C 
BRANCH  24  25
ATOM     25  C   UNL     1      -4.684  -1.153  -6.760  0.00  0.00    -0.004 A 
ATOM     26  C   UNL     1      -4.280  -1.561  -8.017  0.00  0.00    +0.007 A 
ATOM     27  C   UNL     1      -4.413  -2.885  -8.390  0.00  0.00    +0.000 A 
ATOM     28  C   UNL     1      -4.949  -3.802  -7.505  0.00  0.00    +0.000 A 
ATOM     29  C   UNL     1      -5.352  -3.394  -6.247  0.00  0.00    +0.000 A 
ATOM     30  C   UNL     1      -5.216  -2.071  -5.873  0.00  0.00    +0.007 A 
ENDBRANCH  24  25
BRANCH  24  31
ATOM     31  C   UNL     1      -5.897   0.860  -6.030  0.00  0.00    -0.004 A 
ATOM     32  C   UNL     1      -6.487   1.769  -6.889  0.00  0.00    +0.007 A 
ATOM     33  C   UNL     1      -7.732   2.291  -6.593  0.00  0.00    +0.000 A 
ATOM     34  C   UNL     1      -8.387   1.905  -5.439  0.00  0.00    +0.000 A 
ATOM     35  C   UNL     1      -7.798   0.996  -4.581  0.00  0.00    +0.000 A 
ATOM     36  C   UNL     1      -6.554   0.470  -4.879  0.00  0.00    +0.007 A 
ENDBRANCH  24  31
BRANCH  24  37
ATOM     37  O   UNL     1      -3.955   1.032  -7.426  0.00  0.00    -0.372 OA
ATOM     38  H   UNL     1      -3.832   1.971  -7.234  0.00  0.00    +0.212 HD
ENDBRANCH  24  37
ENDBRANCH   4  24
TORSDOF 12
