REMARK  Name = ZINC02251945
REMARK  6 active torsions:
REMARK  status: ('A' for Active; 'I' for Inactive)
REMARK    1  A    between atoms: C_1  and  O_2
REMARK    2  A    between atoms: O_2  and  C_3
REMARK    3  A    between atoms: C_6  and  C_9
REMARK    4  A    between atoms: C_20  and  C_22
REMARK    5  A    between atoms: C_34  and  S_36
REMARK    6  A    between atoms: S_36  and  C_37
REMARK                            x       y       z     vdW  Elec       q    Type
REMARK                         _______ _______ _______ _____ _____    ______ ____
ROOT
ATOM      1  C   UNL     1       2.520  -2.684  -4.392  0.00  0.00    +0.172 C 
ATOM      2  C   UNL     1       1.455  -3.454  -5.131  0.00  0.00    +0.025 C 
ATOM      3  C   UNL     1       1.380  -4.786  -5.091  0.00  0.00    +0.050 C 
ATOM      4  C   UNL     1       0.285  -5.454  -5.833  0.00  0.00    +0.039 A 
ATOM      5  C   UNL     1       0.323  -6.814  -6.117  0.00  0.00    +0.033 A 
ATOM      6  C   UNL     1      -0.722  -7.395  -6.812  0.00  0.00    +0.042 A 
ATOM      7  C   UNL     1      -1.799  -6.628  -7.223  0.00  0.00    +0.023 A 
ATOM      8  C   UNL     1      -1.844  -5.274  -6.945  0.00  0.00    +0.048 A 
ATOM      9  C   UNL     1      -0.806  -4.680  -6.251  0.00  0.00    +0.131 A 
ATOM     10  O   UNL     1      -0.812  -3.354  -5.961  0.00  0.00    -0.479 OA
ATOM     11  C   UNL     1       0.448  -2.684  -5.955  0.00  0.00    +0.234 C 
ATOM     12 CL   UNL     1      -0.682  -9.093  -7.171  0.00  0.00    -0.084 Cl
ATOM     13  N   UNL     1       2.301  -5.564  -4.381  0.00  0.00    -0.283 N 
ATOM     14  C   UNL     1       3.455  -4.938  -3.937  0.00  0.00    +0.220 A 
ATOM     15  N   UNL     1       3.571  -3.590  -3.941  0.00  0.00    -0.220 N 
ATOM     16  N   UNL     1       4.842  -3.303  -3.445  0.00  0.00    -0.141 NA
ATOM     17  C   UNL     1       5.411  -4.456  -3.168  0.00  0.00    +0.210 A 
ATOM     18  N   UNL     1       4.564  -5.442  -3.468  0.00  0.00    -0.187 NA
ATOM     19  H   UNL     1       2.139  -6.504  -4.206  0.00  0.00    +0.155 HD
ENDROOT
BRANCH  11  20
ATOM     20  C   UNL     1       0.953  -2.561  -7.369  0.00  0.00    -0.003 A 
ATOM     21  C   UNL     1       1.481  -1.363  -7.812  0.00  0.00    +0.010 A 
ATOM     22  C   UNL     1       1.944  -1.249  -9.109  0.00  0.00    +0.039 A 
ATOM     23  C   UNL     1       1.879  -2.336  -9.965  0.00  0.00    +0.123 A 
ATOM     24  C   UNL     1       1.350  -3.536  -9.520  0.00  0.00    +0.039 A 
ATOM     25  C   UNL     1       0.892  -3.649  -8.221  0.00  0.00    +0.010 A 
ATOM     26  F   UNL     1       2.332  -2.226 -11.233  0.00  0.00    -0.205 F 
ENDBRANCH  11  20
BRANCH   1  30
ATOM     27  C   UNL     1       0.773  -0.745  -1.008  0.00  0.00    +0.120 A 
ATOM     28  C   UNL     1       1.387   0.007  -1.999  0.00  0.00    +0.046 A 
ATOM     29  C   UNL     1       1.951  -0.622  -3.092  0.00  0.00    +0.009 A 
ATOM     30  C   UNL     1       1.904  -2.000  -3.198  0.00  0.00    -0.019 A 
ATOM     31  C   UNL     1       1.293  -2.752  -2.212  0.00  0.00    +0.009 A 
ATOM     32  C   UNL     1       0.733  -2.127  -1.114  0.00  0.00    +0.046 A 
BRANCH  27  34
ATOM     33  C   UNL     1       0.297   1.298   0.111  0.00  0.00    +0.277 C 
ATOM     34  O   UNL     1       0.218  -0.128   0.068  0.00  0.00    -0.495 OA
ENDBRANCH  27  34
ENDBRANCH   1  30
BRANCH  17  35
ATOM     35  S   UNL     1       7.031  -4.666  -2.508  0.00  0.00    -0.088 S 
ATOM     36  C   UNL     1       7.214  -6.465  -2.359  0.00  0.00    +0.093 C 
ENDBRANCH  17  35
TORSDOF 4
