REMARK  Name = ZINC09478032
REMARK  7 active torsions:
REMARK  status: ('A' for Active; 'I' for Inactive)
REMARK    1  A    between atoms: C_1  and  O_2
REMARK    2  A    between atoms: O_2  and  C_3
REMARK    3  A    between atoms: C_8  and  O_9
REMARK    4  A    between atoms: O_9  and  C_10
REMARK    5  A    between atoms: C_13  and  C_17
REMARK    6  A    between atoms: C_17  and  S_18
REMARK    7  A    between atoms: S_18  and  C_19
REMARK                            x       y       z     vdW  Elec       q    Type
REMARK                         _______ _______ _______ _____ _____    ______ ____
ROOT
ATOM      1  C   UNL     1      -9.817   0.698  -7.502  0.00  0.00    +0.162 A 
ATOM      2  C   UNL     1      -9.816   0.704  -6.122  0.00  0.00    +0.064 A 
ATOM      3  C   UNL     1      -8.653   1.059  -5.438  0.00  0.00    +0.068 A 
ATOM      4  C   UNL     1      -7.493   1.414  -6.152  0.00  0.00    +0.082 A 
ATOM      5  C   UNL     1      -7.506   1.400  -7.539  0.00  0.00    +0.078 A 
ATOM      6  C   UNL     1      -8.663   1.045  -8.210  0.00  0.00    +0.164 A 
ATOM      7  N   UNL     1      -6.360   1.754  -5.437  0.00  0.00    -0.233 NA
ATOM      8  H   UNL     1      -7.373   1.439  -2.289  0.00  0.00    +0.170 HD
ATOM      9  C   UNL     1      -6.374   1.744  -4.093  0.00  0.00    +0.121 A 
ATOM     10  N   UNL     1      -7.425   1.428  -3.388  0.00  0.00    -0.310 N 
ATOM     11  C   UNL     1      -8.590   1.083  -3.968  0.00  0.00    +0.259 A 
ATOM     12  O   UNL     1      -9.563   0.791  -3.294  0.00  0.00    -0.267 OA
ENDROOT
BRANCH   1  14
ATOM     13  C   UNL     1     -12.091   0.010  -7.391  0.00  0.00    +0.277 C 
ATOM     14  O   UNL     1     -10.947   0.353  -8.176  0.00  0.00    -0.491 OA
ENDBRANCH   1  14
BRANCH   6  15
ATOM     15  O   UNL     1      -8.678   1.036  -9.568  0.00  0.00    -0.491 OA
ATOM     16  C   UNL     1      -7.467   1.400 -10.233  0.00  0.00    +0.277 C 
ENDBRANCH   6  15
BRANCH   9  17
ATOM     17  C   UNL     1      -5.110   2.118  -3.363  0.00  0.00    +0.151 C 
BRANCH  17  18
ATOM     18  S   UNL     1      -4.120   0.632  -3.070  0.00  0.00    -0.085 S 
BRANCH  18  19
ATOM     19  C   UNL     1      -2.744   1.341  -2.228  0.00  0.00    +0.129 C 
ATOM     20  N   UNL     1      -2.648   2.608  -1.977  0.00  0.00    -0.363 N 
ATOM     21  C   UNL     1      -1.400   2.876  -1.225  0.00  0.00    +0.101 C 
ATOM     22  C   UNL     1      -1.786   3.417   0.137  0.00  0.00    +0.026 C 
ATOM     23  C   UNL     1      -0.782   3.057   1.223  0.00  0.00    +0.002 C 
ATOM     24  C   UNL     1      -0.683   1.527   1.284  0.00  0.00    +0.002 C 
ATOM     25  C   UNL     1      -0.008   1.057   0.000  0.00  0.00    +0.024 C 
ATOM     26  C   UNL     1      -0.695   1.538  -1.236  0.00  0.00    +0.094 C 
ATOM     27  N   UNL     1      -1.680   0.599  -1.779  0.00  0.00    -0.321 N 
ATOM     28  H   UNL     1      -1.474  -0.482  -1.766  0.00  0.00    +0.148 HD
ATOM     29  H   UNL     1      -3.435   3.298  -2.319  0.00  0.00    +0.162 HD
ENDBRANCH  18  19
ENDBRANCH  17  18
ENDBRANCH   9  17
TORSDOF 5
