REMARK  Name = ZINC06447457
REMARK  5 active torsions:
REMARK  status: ('A' for Active; 'I' for Inactive)
REMARK    1  A    between atoms: C_1  and  N_2
REMARK    2  A    between atoms: N_7  and  C_10
REMARK    3  A    between atoms: C_13  and  C_15
REMARK    4  A    between atoms: C_15  and  C_16
REMARK    5  A    between atoms: C_16  and  N_29
REMARK                            x       y       z     vdW  Elec       q    Type
REMARK                         _______ _______ _______ _____ _____    ______ ____
ROOT
ATOM      1  C   UNL     1      -1.127   5.507   0.040  0.00  0.00    +0.155 C 
ATOM      2  N   UNL     1      -1.589   4.117   0.038  0.00  0.00    -0.280 N 
ATOM      3  C   UNL     1      -0.668   3.082   0.024  0.00  0.00    +0.168 A 
ATOM      4  C   UNL     1      -1.132   1.772   0.016  0.00  0.00    +0.149 A 
ATOM      5  C   UNL     1      -2.523   1.534   0.033  0.00  0.00    +0.282 A 
ATOM      6  O   UNL     1      -2.954   0.395   0.031  0.00  0.00    -0.265 OA
ATOM      7  N   UNL     1      -3.370   2.584   0.047  0.00  0.00    -0.262 N 
ATOM      8  C   UNL     1      -2.909   3.847   0.049  0.00  0.00    +0.333 A 
ATOM      9  O   UNL     1      -3.702   4.768   0.061  0.00  0.00    -0.246 OA
ATOM     10  C   UNL     1      -4.816   2.345   0.059  0.00  0.00    +0.157 C 
ATOM     11  N   UNL     1      -0.011   0.966   0.007  0.00  0.00    -0.336 N 
ATOM     12  H   UNL     1       0.003  -0.034   0.006  0.00  0.00    +0.167 HD
ATOM     13  C   UNL     1       1.061   1.782   0.002  0.00  0.00    +0.108 A 
ATOM     14  N   UNL     1       0.666   3.030   0.011  0.00  0.00    -0.215 NA
ENDROOT
BRANCH  13  15
ATOM     15  C   UNL     1       2.498   1.327  -0.014  0.00  0.00    +0.055 C 
BRANCH  15  16
ATOM     16  C   UNL     1       3.223   1.968  -1.199  0.00  0.00    -0.079 C 
BRANCH  16  19
ATOM     17  H   UNL     1       5.124   1.934  -1.988  0.00  0.00    -0.090 HD
ATOM     18  H   UNL     1       5.078   1.733  -0.338  0.00  0.00    -0.090 HD
ATOM     19  N   UNL     1       4.620   1.499  -1.217  0.00  0.00    +0.378 N 
ATOM     20  H   UNL     1       4.632   0.480  -1.340  0.00  0.00    -0.090 HD
ENDBRANCH  16  19
ENDBRANCH  15  16
ENDBRANCH  13  15
TORSDOF 3
