REMARK  Name = ZINC36588352
REMARK  22 active torsions:
REMARK  status: ('A' for Active; 'I' for Inactive)
REMARK    1  A    between atoms: C_1  and  C_2
REMARK    2  A    between atoms: C_2  and  C_4
REMARK    3  A    between atoms: C_2  and  C_34
REMARK    4  A    between atoms: C_4  and  C_5
REMARK    5  A    between atoms: N_7  and  C_8
REMARK    6  A    between atoms: N_7  and  C_30
REMARK    7  A    between atoms: C_8  and  C_10
REMARK    8  A    between atoms: C_8  and  C_19
REMARK    9  A    between atoms: C_13  and  O_18
REMARK   10  A    between atoms: C_14  and  O_16
REMARK   11  A    between atoms: O_16  and  C_17
REMARK   12  A    between atoms: N_21  and  C_22
REMARK   13  A    between atoms: C_22  and  C_23
REMARK   14  A    between atoms: C_22  and  C_24
REMARK   15  A    between atoms: C_22  and  C_25
REMARK   16  A    between atoms: C_25  and  C_26
REMARK   17  A    between atoms: C_26  and  C_27
REMARK   18  A    between atoms: C_26  and  C_28
REMARK   19  A    between atoms: C_26  and  C_29
REMARK   20  A    between atoms: C_30  and  C_31
REMARK   21  A    between atoms: C_30  and  C_32
REMARK   22  A    between atoms: C_30  and  C_33
REMARK                            x       y       z     vdW  Elec       q    Type
REMARK                         _______ _______ _______ _____ _____    ______ ____
ROOT
ATOM      1  C   UNL     1       0.591  -0.254   5.430  0.00  0.00    +0.193 C 
ENDROOT
BRANCH   1   2
ATOM      2  C   UNL     1       0.250  -1.487   6.227  0.00  0.00    -0.015 A 
ATOM      3  C   UNL     1       1.251  -2.363   6.604  0.00  0.00    +0.010 A 
ATOM      4  C   UNL     1       0.943  -3.495   7.335  0.00  0.00    +0.049 A 
ATOM      5  C   UNL     1      -0.371  -3.754   7.691  0.00  0.00    +0.158 A 
ATOM      6  C   UNL     1      -1.378  -2.872   7.312  0.00  0.00    +0.162 A 
ATOM      7  C   UNL     1      -1.062  -1.736   6.584  0.00  0.00    +0.055 A 
BRANCH   6   8
ATOM      8  O   UNL     1      -2.669  -3.121   7.660  0.00  0.00    -0.491 OA
ATOM      9  C   UNL     1      -3.650  -2.172   7.236  0.00  0.00    +0.277 C 
ENDBRANCH   6   8
BRANCH   5  10
ATOM     10  O   UNL     1      -0.675  -4.867   8.410  0.00  0.00    -0.503 OA
ATOM     11  H   UNL     1      -0.649  -4.737   9.368  0.00  0.00    +0.292 HD
ENDBRANCH   5  10
ENDBRANCH   1   2
BRANCH   1  12
ATOM     12  C   UNL     1       0.559   0.952   6.332  0.00  0.00    +0.239 C 
ATOM     13  O   UNL     1       1.537   1.664   6.428  0.00  0.00    -0.273 OA
ATOM     14  N   UNL     1      -0.555   1.241   7.033  0.00  0.00    -0.308 N 
ATOM     15  H   UNL     1      -1.337   0.672   6.957  0.00  0.00    +0.149 HD
BRANCH  14  16
ATOM     16  C   UNL     1      -0.586   2.413   7.911  0.00  0.00    +0.030 C 
ATOM     17  C   UNL     1       0.369   2.196   9.086  0.00  0.00    +0.031 C 
ATOM     18  C   UNL     1      -0.153   3.651   7.123  0.00  0.00    +0.031 C 
BRANCH  16  19
ATOM     19  C   UNL     1      -2.007   2.617   8.440  0.00  0.00    +0.031 C 
BRANCH  19  20
ATOM     20  C   UNL     1      -2.990   2.641   7.267  0.00  0.00    -0.036 C 
ATOM     21  C   UNL     1      -3.048   1.254   6.623  0.00  0.00    +0.010 C 
ATOM     22  C   UNL     1      -4.381   3.026   7.775  0.00  0.00    +0.010 C 
ATOM     23  C   UNL     1      -2.523   3.665   6.231  0.00  0.00    +0.010 C 
ENDBRANCH  19  20
ENDBRANCH  16  19
ENDBRANCH  14  16
ENDBRANCH   1  12
BRANCH   1  26
ATOM     24  C   UNL     1       3.014  -0.367   5.656  0.00  0.00    +0.217 C 
ATOM     25  O   UNL     1       2.879  -0.247   6.855  0.00  0.00    -0.276 OA
ATOM     26  N   UNL     1       1.931  -0.399   4.855  0.00  0.00    -0.281 N 
BRANCH  26  27
ATOM     27  C   UNL     1       2.093  -0.578   3.410  0.00  0.00    +0.030 C 
ATOM     28  C   UNL     1       3.003  -1.779   3.144  0.00  0.00    +0.031 C 
ATOM     29  C   UNL     1       0.725  -0.824   2.771  0.00  0.00    +0.031 C 
ATOM     30  C   UNL     1       2.719   0.681   2.807  0.00  0.00    +0.031 C 
ENDBRANCH  26  27
BRANCH  24  31
ATOM     31  C   UNL     1       4.394  -0.481   5.061  0.00  0.00    +0.104 C 
BRANCH  31  33
ATOM     32  C   UNL     1       5.394  -1.168   7.246  0.00  0.00    +0.013 C 
ATOM     33  C   UNL     1       5.438  -0.129   6.123  0.00  0.00    +0.025 C 
BRANCH  33  34
ATOM     34  C   UNL     1       6.809  -0.123   5.498  0.00  0.00    -0.044 A 
ATOM     35  C   UNL     1       7.303  -1.270   4.904  0.00  0.00    +0.004 A 
ATOM     36  C   UNL     1       8.561  -1.264   4.331  0.00  0.00    +0.000 A 
ATOM     37  C   UNL     1       9.324  -0.112   4.350  0.00  0.00    +0.000 A 
ATOM     38  C   UNL     1       8.830   1.035   4.942  0.00  0.00    +0.000 A 
ATOM     39  C   UNL     1       7.570   1.031   5.512  0.00  0.00    +0.004 A 
ENDBRANCH  33  34
ENDBRANCH  31  33
ENDBRANCH  24  31
ENDBRANCH   1  26
TORSDOF 12
