REMARK  Name = ZINC38984119
REMARK  5 active torsions:
REMARK  status: ('A' for Active; 'I' for Inactive)
REMARK    1  A    between atoms: N_7  and  S_8
REMARK    2  A    between atoms: S_8  and  C_11
REMARK    3  A    between atoms: C_16  and  N_21
REMARK    4  A    between atoms: N_21  and  C_22
REMARK    5  A    between atoms: C_26  and  C_28
REMARK                            x       y       z     vdW  Elec       q    Type
REMARK                         _______ _______ _______ _____ _____    ______ ____
ROOT
ATOM      1  C   UNL     1      -0.274   1.097   0.323  0.00  0.00    +0.002 A 
ATOM      2  C   UNL     1       0.836   1.950   0.197  0.00  0.00    +0.002 A 
ATOM      3  C   UNL     1       2.097   1.491   0.051  0.00  0.00    +0.028 A 
ATOM      4  C   UNL     1       2.354   0.097   0.018  0.00  0.00    +0.064 A 
ATOM      5  N   UNL     1       3.586  -0.345  -0.125  0.00  0.00    -0.338 N 
ATOM      6  C   UNL     1       3.863  -1.659  -0.160  0.00  0.00    +0.170 C 
ATOM      7  N   UNL     1       5.088  -2.071  -0.302  0.00  0.00    -0.111 NA
ATOM      8  C   UNL     1       2.730  -2.651  -0.032  0.00  0.00    +0.235 C 
ATOM      9  N   UNL     1       1.366  -2.121   0.126  0.00  0.00    -0.359 N 
ATOM     10  C   UNL     1       1.201  -0.828   0.149  0.00  0.00    +0.061 A 
ATOM     11  C   UNL     1      -0.141  -0.247   0.305  0.00  0.00    +0.027 A 
ATOM     12  H   UNL     1       0.608  -2.720   0.212  0.00  0.00    +0.162 HD
ATOM     13  H   UNL     1       4.311   0.294  -0.206  0.00  0.00    +0.167 HD
ENDROOT
BRANCH   7  14
ATOM     14  S   UNL     1       6.320  -0.973  -0.441  0.00  0.00    +0.107 S 
ATOM     15  O   UNL     1       6.117  -0.287  -1.669  0.00  0.00    -0.146 OA
ATOM     16  O   UNL     1       6.402  -0.294   0.806  0.00  0.00    -0.146 OA
BRANCH  14  17
ATOM     17  C   UNL     1       7.816  -1.887  -0.615  0.00  0.00    +0.150 A 
ATOM     18  C   UNL     1       8.423  -2.323  -1.746  0.00  0.00    +0.037 A 
ATOM     19  C   UNL     1       9.606  -3.030  -1.641  0.00  0.00    +0.010 A 
ATOM     20  C   UNL     1      10.124  -3.268  -0.411  0.00  0.00    +0.047 A 
ATOM     21  S   UNL     1       8.929  -2.474   0.652  0.00  0.00    -0.076 S 
ENDBRANCH  14  17
ENDBRANCH   7  14
BRANCH   8  22
ATOM     22  N   UNL     1       2.742  -3.500  -1.226  0.00  0.00    -0.318 N 
ATOM     23  H   UNL     1       2.870  -3.104  -2.102  0.00  0.00    +0.148 HD
BRANCH  22  24
ATOM     24  C   UNL     1       2.571  -4.882  -1.103  0.00  0.00    +0.030 A 
ATOM     25  C   UNL     1       2.740  -5.705  -2.208  0.00  0.00    +0.024 A 
ATOM     26  C   UNL     1       2.570  -7.070  -2.084  0.00  0.00    +0.022 A 
ATOM     27  C   UNL     1       2.232  -7.617  -0.859  0.00  0.00    +0.053 A 
ATOM     28  C   UNL     1       2.062  -6.799   0.244  0.00  0.00    +0.075 A 
ATOM     29  C   UNL     1       2.236  -5.434   0.127  0.00  0.00    +0.036 A 
ATOM     30 CL   UNL     1       2.018  -9.334  -0.705  0.00  0.00    -0.083 Cl
BRANCH  28  31
ATOM     31  C   UNL     1       1.693  -7.399   1.577  0.00  0.00    +0.419 C 
ATOM     32  F   UNL     1       1.579  -6.382   2.530  0.00  0.00    -0.166 F 
ATOM     33  F   UNL     1       0.472  -8.072   1.463  0.00  0.00    -0.166 F 
ATOM     34  F   UNL     1       2.687  -8.300   1.974  0.00  0.00    -0.166 F 
ENDBRANCH  28  31
ENDBRANCH  22  24
ENDBRANCH   8  22
TORSDOF 5
