REMARK  Name = ZINC46286964
REMARK  9 active torsions:
REMARK  status: ('A' for Active; 'I' for Inactive)
REMARK    1  A    between atoms: C_1  and  N_2
REMARK    2  A    between atoms: N_2  and  C_3
REMARK    3  A    between atoms: C_7  and  C_10
REMARK    4  A    between atoms: C_10  and  N_11
REMARK    5  A    between atoms: N_14  and  N_15
REMARK    6  A    between atoms: C_16  and  C_18
REMARK    7  A    between atoms: C_18  and  O_19
REMARK    8  A    between atoms: O_19  and  C_20
REMARK    9  A    between atoms: C_25  and  C_26
REMARK                            x       y       z     vdW  Elec       q    Type
REMARK                         _______ _______ _______ _____ _____    ______ ____
ROOT
ATOM      1  N   UNL     1      -1.389  -2.939  -5.351  0.00  0.00    -0.294 N 
ATOM      2  C   UNL     1      -1.637  -3.548  -6.528  0.00  0.00    +0.316 C 
ATOM      3  O   UNL     1      -0.715  -3.901  -7.236  0.00  0.00    -0.251 OA
ATOM      4  N   UNL     1      -2.909  -3.766  -6.918  0.00  0.00    -0.218 N 
ATOM      5  H   UNL     1      -2.125  -2.658  -4.786  0.00  0.00    +0.151 HD
ATOM      6  H   UNL     1      -3.087  -4.205  -7.765  0.00  0.00    +0.174 HD
ENDROOT
BRANCH   4   7
ATOM      7  N   UNL     1      -3.972  -3.360  -6.101  0.00  0.00    -0.230 N 
ATOM      8  C   UNL     1      -5.243  -3.578  -6.492  0.00  0.00    +0.267 C 
ATOM      9  O   UNL     1      -5.467  -4.126  -7.551  0.00  0.00    -0.271 OA
ATOM     10  H   UNL     1      -3.793  -2.921  -5.255  0.00  0.00    +0.173 HD
BRANCH   8  11
ATOM     11  C   UNL     1      -6.387  -3.141  -5.614  0.00  0.00    +0.326 C 
BRANCH  11  12
ATOM     12  O   UNL     1      -7.626  -3.480  -6.240  0.00  0.00    -0.481 OA
BRANCH  12  13
ATOM     13  C   UNL     1      -8.762  -3.153  -5.575  0.00  0.00    +0.138 A 
ATOM     14  C   UNL     1      -8.691  -2.513  -4.347  0.00  0.00    +0.047 A 
ATOM     15  C   UNL     1      -9.849  -2.180  -3.672  0.00  0.00    +0.004 A 
ATOM     16  C   UNL     1     -11.088  -2.482  -4.213  0.00  0.00    +0.001 A 
ATOM     17  C   UNL     1     -11.177  -3.118  -5.433  0.00  0.00    +0.022 A 
ATOM     18  C   UNL     1     -10.014  -3.455  -6.129  0.00  0.00    +0.093 A 
BRANCH  18  19
ATOM     19  C   UNL     1     -10.100  -4.111  -7.400  0.00  0.00    +0.103 C 
ATOM     20  N   UNL     1     -10.168  -4.630  -8.407  0.00  0.00    -0.191 NA
ENDBRANCH  18  19
ENDBRANCH  12  13
ENDBRANCH  11  12
ENDBRANCH   8  11
ENDBRANCH   4   7
BRANCH   1  21
ATOM     21  C   UNL     1      -0.007  -2.702  -4.927  0.00  0.00    +0.142 C 
BRANCH  21  28
ATOM     22  C   UNL     1      -0.018   1.461   0.010  0.00  0.00    +0.130 C 
ATOM     23  N   UNL     1       0.002  -0.004   0.002  0.00  0.00    -0.323 N 
ATOM     24  C   UNL     1       0.024  -0.743   1.267  0.00  0.00    +0.130 C 
ATOM     25  C   UNL     1       0.000  -0.693  -1.206  0.00  0.00    +0.098 A 
ATOM     26  C   UNL     1       0.013  -2.084  -1.206  0.00  0.00    +0.042 A 
ATOM     27  C   UNL     1       0.011  -2.756  -2.415  0.00  0.00    +0.010 A 
ATOM     28  C   UNL     1      -0.004  -2.012  -3.587  0.00  0.00    -0.014 A 
ATOM     29  C   UNL     1      -0.017  -0.633  -3.513  0.00  0.00    +0.089 A 
ATOM     30  N   UNL     1      -0.020  -0.019  -2.345  0.00  0.00    -0.349 N 
ATOM     31  H   UNL     1      -0.033   0.951  -2.321  0.00  0.00    +0.167 HD
ENDBRANCH  21  28
ENDBRANCH   1  21
TORSDOF 7
