REMARK  Name = ZINC37822301
REMARK  5 active torsions:
REMARK  status: ('A' for Active; 'I' for Inactive)
REMARK    1  A    between atoms: C_6  and  C_7
REMARK    2  A    between atoms: C_7  and  N_8
REMARK    3  A    between atoms: N_8  and  C_9
REMARK    4  A    between atoms: C_9  and  C_10
REMARK    5  A    between atoms: C_13  and  C_15
REMARK                            x       y       z     vdW  Elec       q    Type
REMARK                         _______ _______ _______ _____ _____    ______ ____
ROOT
ATOM      1  N   UNL     1      -2.318  -1.133  -1.088  0.00  0.00    -0.290 N 
ATOM      2  C   UNL     1      -2.599  -0.130  -1.944  0.00  0.00    +0.202 C 
ATOM      3  O   UNL     1      -2.343   1.016  -1.640  0.00  0.00    -0.277 OA
ENDROOT
BRANCH   2   4
ATOM      4  C   UNL     1      -3.233  -0.433  -3.277  0.00  0.00    +0.016 C 
ATOM      5  C   UNL     1      -2.137  -0.684  -4.334  0.00  0.00    -0.009 C 
ATOM      6  C   UNL     1      -2.717  -0.011  -5.606  0.00  0.00    -0.020 C 
ATOM      7  C   UNL     1      -3.449   1.215  -5.005  0.00  0.00    -0.082 C 
ATOM      8  N   UNL     1      -4.025   0.725  -3.731  0.00  0.00    +0.387 N 
ATOM      9  H   UNL     1      -4.984   0.446  -3.874  0.00  0.00    -0.085 HD
ATOM     10  H   UNL     1      -3.986   1.456  -3.036  0.00  0.00    -0.085 HD
ENDBRANCH   2   4
BRANCH   1  11
ATOM     11  C   UNL     1      -1.804  -0.831   0.250  0.00  0.00    +0.143 C 
BRANCH  11  17
ATOM     12  C   UNL     1       0.345   0.415  -0.053  0.00  0.00    +0.006 A 
ATOM     13  C   UNL     1       1.726   0.463  -0.090  0.00  0.00    +0.015 A 
ATOM     14  C   UNL     1       2.464  -0.685   0.138  0.00  0.00    +0.018 A 
ATOM     15  C   UNL     1       1.819  -1.880   0.402  0.00  0.00    +0.015 A 
ATOM     16  C   UNL     1       0.439  -1.927   0.438  0.00  0.00    +0.006 A 
ATOM     17  C   UNL     1      -0.298  -0.780   0.211  0.00  0.00    -0.030 A 
ATOM     18 BR   UNL     1       4.353  -0.620   0.088  0.00  0.00    -0.050 Br
ENDBRANCH  11  17
ENDBRANCH   1  11
BRANCH   1  19
ATOM     19  C   UNL     1      -2.525  -2.524  -1.497  0.00  0.00    +0.203 C 
BRANCH  19  20
ATOM     20  C   UNL     1      -3.921  -2.954  -1.126  0.00  0.00    +0.228 C 
ATOM     21  O   UNL     1      -4.669  -2.175  -0.574  0.00  0.00    -0.274 OA
ATOM     22  N   UNL     1      -4.338  -4.205  -1.407  0.00  0.00    -0.328 N 
ATOM     23  H   UNL     1      -3.740  -4.828  -1.848  0.00  0.00    +0.145 HD
ATOM     24  H   UNL     1      -5.237  -4.481  -1.168  0.00  0.00    +0.145 HD
ENDBRANCH  19  20
ENDBRANCH   1  19
TORSDOF 5
