REMARK  Name = ZINC12667440
REMARK  11 active torsions:
REMARK  status: ('A' for Active; 'I' for Inactive)
REMARK    1  A    between atoms: C_1  and  C_2
REMARK    2  A    between atoms: C_2  and  N_3
REMARK    3  A    between atoms: C_7  and  C_9
REMARK    4  A    between atoms: C_9  and  C_11
REMARK    5  A    between atoms: C_9  and  N_55
REMARK    6  A    between atoms: C_12  and  C_14
REMARK    7  A    between atoms: C_12  and  C_23
REMARK    8  A    between atoms: C_12  and  N_55
REMARK    9  A    between atoms: C_14  and  C_15
REMARK   10  A    between atoms: C_15  and  C_16
REMARK   11  A    between atoms: C_16  and  C_17
REMARK                            x       y       z     vdW  Elec       q    Type
REMARK                         _______ _______ _______ _____ _____    ______ ____
ROOT
ATOM      1  C   UNL     1       3.672   2.182  -0.024  0.00  0.00    -0.040 C 
ENDROOT
BRANCH   1   2
ATOM      2  C   UNL     1       2.377   1.411  -0.015  0.00  0.00    -0.061 A 
ATOM      3  C   UNL     1       1.171   2.086   0.002  0.00  0.00    +0.002 A 
ATOM      4  C   UNL     1      -0.017   1.378   0.010  0.00  0.00    +0.000 A 
ATOM      5  C   UNL     1       0.002  -0.004   0.002  0.00  0.00    +0.000 A 
ATOM      6  C   UNL     1       1.208  -0.679  -0.013  0.00  0.00    +0.000 A 
ATOM      7  C   UNL     1       2.396   0.029  -0.022  0.00  0.00    +0.002 A 
ENDBRANCH   1   2
BRANCH   1   8
ATOM      8  N   UNL     1       3.538   3.358  -0.904  0.00  0.00    +0.391 N 
ATOM      9  H   UNL     1       2.581   3.724  -0.838  0.00  0.00    -0.084 HD
ATOM     10  H   UNL     1       4.203   4.082  -0.606  0.00  0.00    -0.084 HD
BRANCH   8  11
ATOM     11  C   UNL     1       3.820   2.985  -2.304  0.00  0.00    +0.014 C 
ATOM     12  C   UNL     1       2.549   2.434  -2.951  0.00  0.00    -0.004 C 
BRANCH  11  17
ATOM     13  N   UNL     1       5.320   5.110  -6.347  0.00  0.00    -0.299 N 
ATOM     14  C   UNL     1       5.005   5.204  -5.040  0.00  0.00    +0.306 C 
ATOM     15  O   UNL     1       5.091   6.274  -4.469  0.00  0.00    -0.252 OA
ATOM     16  N   UNL     1       4.594   4.112  -4.365  0.00  0.00    -0.242 N 
ATOM     17  C   UNL     1       4.279   4.206  -3.058  0.00  0.00    +0.206 C 
ATOM     18  O   UNL     1       4.366   5.274  -2.489  0.00  0.00    -0.277 OA
ATOM     19  H   UNL     1       5.251   4.256  -6.802  0.00  0.00    +0.150 HD
ATOM     20  H   UNL     1       4.526   3.258  -4.820  0.00  0.00    +0.159 HD
BRANCH  13  22
ATOM     21  C   UNL     1       6.057   5.919  -8.534  0.00  0.00    +0.024 C 
ATOM     22  C   UNL     1       5.766   6.297  -7.080  0.00  0.00    +0.102 C 
ENDBRANCH  13  22
ENDBRANCH  11  17
ENDBRANCH   8  11
ENDBRANCH   1   8
BRANCH   1  23
ATOM     23  C   UNL     1       3.996   2.651   1.395  0.00  0.00    -0.011 C 
BRANCH  23  24
ATOM     24  C   UNL     1       5.370   3.325   1.409  0.00  0.00    +0.003 C 
BRANCH  24  25
ATOM     25  C   UNL     1       5.694   3.795   2.828  0.00  0.00    +0.035 C 
BRANCH  25  26
ATOM     26  C   UNL     1       7.046   4.459   2.841  0.00  0.00    -0.047 A 
ATOM     27  C   UNL     1       8.182   3.709   3.084  0.00  0.00    +0.003 A 
ATOM     28  C   UNL     1       9.424   4.317   3.091  0.00  0.00    +0.000 A 
ATOM     29  C   UNL     1       9.528   5.677   2.865  0.00  0.00    +0.000 A 
ATOM     30  C   UNL     1       8.392   6.428   2.628  0.00  0.00    +0.000 A 
ATOM     31  C   UNL     1       7.151   5.819   2.616  0.00  0.00    +0.003 A 
ENDBRANCH  25  26
ENDBRANCH  24  25
ENDBRANCH  23  24
ENDBRANCH   1  23
TORSDOF 9
