REMARK  Name = ZINC49596348
REMARK  6 active torsions:
REMARK  status: ('A' for Active; 'I' for Inactive)
REMARK    1  A    between atoms: C_3  and  C_18
REMARK    2  A    between atoms: C_5  and  O_7
REMARK    3  A    between atoms: O_7  and  C_8
REMARK    4  A    between atoms: C_8  and  C_9
REMARK    5  A    between atoms: C_9  and  O_10
REMARK    6  A    between atoms: O_10  and  C_11
REMARK                            x       y       z     vdW  Elec       q    Type
REMARK                         _______ _______ _______ _____ _____    ______ ____
ROOT
ATOM      1  C   UNL     1      -0.017   1.378   0.010  0.00  0.00    +0.004 A 
ATOM      2  C   UNL     1       1.167   2.089   0.002  0.00  0.00    +0.011 A 
ATOM      3  C   UNL     1       2.386   1.411  -0.013  0.00  0.00    +0.016 A 
ATOM      4  C   UNL     1       2.404   0.017  -0.021  0.00  0.00    +0.056 A 
ATOM      5  C   UNL     1       1.211  -0.687  -0.013  0.00  0.00    +0.121 A 
ATOM      6  C   UNL     1       0.002  -0.004   0.002  0.00  0.00    +0.046 A 
ENDROOT
BRANCH   3   7
ATOM      7  C   UNL     1       3.657   2.170  -0.022  0.00  0.00    +0.094 C 
ATOM      8  N   UNL     1       3.711   3.371  -0.593  0.00  0.00    -0.387 N 
ATOM      9  N   UNL     1       4.746   1.651   0.542  0.00  0.00    -0.345 N 
ATOM     10  H   UNL     1       2.917   3.749  -1.003  0.00  0.00    +0.157 HD
ATOM     11  H   UNL     1       4.706   0.775   0.958  0.00  0.00    +0.144 HD
ATOM     12  H   UNL     1       5.579   2.148   0.536  0.00  0.00    +0.144 HD
ATOM     13  H   UNL     1       4.544   3.869  -0.598  0.00  0.00    +0.157 HD
ENDBRANCH   3   7
BRANCH   5  14
ATOM     14  O   UNL     1       1.224  -2.046  -0.021  0.00  0.00    -0.489 OA
BRANCH  14  15
ATOM     15  C   UNL     1      -0.043  -2.706  -0.012  0.00  0.00    +0.270 C 
BRANCH  15  16
ATOM     16  C   UNL     1       0.172  -4.221  -0.023  0.00  0.00    +0.270 C 
BRANCH  16  17
ATOM     17  O   UNL     1       0.814  -4.620   1.190  0.00  0.00    -0.489 OA
BRANCH  17  18
ATOM     18  C   UNL     1       1.079  -5.944   1.341  0.00  0.00    +0.121 A 
ATOM     19  C   UNL     1       0.733  -6.841   0.340  0.00  0.00    +0.047 A 
ATOM     20  C   UNL     1       1.004  -8.186   0.496  0.00  0.00    +0.019 A 
ATOM     21  C   UNL     1       1.619  -8.640   1.649  0.00  0.00    +0.018 A 
ATOM     22  C   UNL     1       1.964  -7.748   2.648  0.00  0.00    +0.019 A 
ATOM     23  C   UNL     1       1.701  -6.401   2.494  0.00  0.00    +0.047 A 
ATOM     24 BR   UNL     1       1.988 -10.483   1.859  0.00  0.00    -0.050 Br
ENDBRANCH  17  18
ENDBRANCH  16  17
ENDBRANCH  15  16
ENDBRANCH  14  15
ENDBRANCH   5  14
TORSDOF 6
