REMARK  Name = ZINC56153629
REMARK  11 active torsions:
REMARK  status: ('A' for Active; 'I' for Inactive)
REMARK    1  A    between atoms: C_1  and  C_2
REMARK    2  A    between atoms: C_5  and  O_26
REMARK    3  A    between atoms: C_6  and  N_8
REMARK    4  A    between atoms: C_9  and  C_11
REMARK    5  A    between atoms: C_11  and  C_13
REMARK    6  A    between atoms: C_11  and  N_19
REMARK    7  A    between atoms: N_19  and  C_20
REMARK    8  A    between atoms: C_20  and  C_21
REMARK    9  A    between atoms: C_21  and  C_22
REMARK   10  A    between atoms: C_22  and  C_23
REMARK   11  A    between atoms: O_26  and  C_27
REMARK                            x       y       z     vdW  Elec       q    Type
REMARK                         _______ _______ _______ _____ _____    ______ ____
ROOT
ATOM      1  C   UNL     1       0.279  -2.894   4.860  0.00  0.00    +0.047 C 
ENDROOT
BRANCH   1   2
ATOM      2  C   UNL     1      -0.928  -3.777   5.045  0.00  0.00    -0.053 A 
ATOM      3  C   UNL     1      -2.112  -3.241   5.514  0.00  0.00    +0.002 A 
ATOM      4  C   UNL     1      -3.219  -4.051   5.684  0.00  0.00    +0.000 A 
ATOM      5  C   UNL     1      -3.142  -5.398   5.383  0.00  0.00    +0.000 A 
ATOM      6  C   UNL     1      -1.958  -5.935   4.912  0.00  0.00    +0.000 A 
ATOM      7  C   UNL     1      -0.852  -5.123   4.739  0.00  0.00    +0.002 A 
ENDBRANCH   1   2
BRANCH   1   9
ATOM      8  N   UNL     1       0.050  -2.795   2.399  0.00  0.00    -0.284 N 
ATOM      9  C   UNL     1       0.149  -2.130   3.568  0.00  0.00    +0.208 C 
ATOM     10  O   UNL     1       0.134  -0.917   3.579  0.00  0.00    -0.277 OA
ATOM     11  H   UNL     1      -0.018  -3.762   2.396  0.00  0.00    +0.155 HD
BRANCH   8  17
ATOM     12  C   UNL     1       1.263   1.227  -0.157  0.00  0.00    +0.044 C 
ATOM     13  C   UNL     1       0.627  -0.137  -0.079  0.00  0.00    -0.048 A 
ATOM     14  C   UNL     1       0.040  -0.689  -1.202  0.00  0.00    +0.007 A 
ATOM     15  C   UNL     1      -0.546  -1.940  -1.136  0.00  0.00    +0.048 A 
ATOM     16  C   UNL     1      -0.545  -2.643   0.058  0.00  0.00    +0.141 A 
ATOM     17  C   UNL     1       0.047  -2.088   1.189  0.00  0.00    +0.076 A 
ATOM     18  C   UNL     1       0.637  -0.835   1.114  0.00  0.00    +0.030 A 
BRANCH  16  19
ATOM     19  O   UNL     1      -1.121  -3.873   0.124  0.00  0.00    -0.493 OA
ATOM     20  C   UNL     1      -1.709  -4.380  -1.076  0.00  0.00    +0.277 C 
ENDBRANCH  16  19
ENDBRANCH   8  17
ENDBRANCH   1   9
BRANCH   1  21
ATOM     21  N   UNL     1       0.369  -1.948   5.981  0.00  0.00    +0.389 N 
ATOM     22  H   UNL     1       1.128  -1.304   5.817  0.00  0.00    -0.084 HD
ATOM     23  H   UNL     1      -0.497  -1.436   6.059  0.00  0.00    -0.084 HD
BRANCH  21  24
ATOM     24  C   UNL     1       0.615  -2.687   7.226  0.00  0.00    -0.081 C 
BRANCH  24  25
ATOM     25  C   UNL     1       0.709  -1.702   8.393  0.00  0.00    -0.010 C 
BRANCH  25  26
ATOM     26  C   UNL     1       0.966  -2.472   9.691  0.00  0.00    +0.094 C 
BRANCH  26  27
ATOM     27  C   UNL     1       1.058  -1.502  10.840  0.00  0.00    +0.210 C 
ATOM     28  O   UNL     1       0.932  -0.312  10.642  0.00  0.00    -0.276 OA
ATOM     29  N   UNL     1       1.282  -1.956  12.089  0.00  0.00    -0.329 N 
ATOM     30  H   UNL     1       1.383  -2.908  12.248  0.00  0.00    +0.145 HD
ATOM     31  H   UNL     1       1.342  -1.332  12.829  0.00  0.00    +0.145 HD
ENDBRANCH  26  27
ENDBRANCH  25  26
ENDBRANCH  24  25
ENDBRANCH  21  24
ENDBRANCH   1  21
TORSDOF 9
