REMARK  Name = ZINC35271482
REMARK  12 active torsions:
REMARK  status: ('A' for Active; 'I' for Inactive)
REMARK    1  A    between atoms: C_1  and  C_2
REMARK    2  A    between atoms: C_4  and  O_43
REMARK    3  A    between atoms: C_6  and  O_42
REMARK    4  A    between atoms: C_8  and  O_41
REMARK    5  A    between atoms: C_10  and  O_13
REMARK    6  A    between atoms: O_13  and  C_14
REMARK    7  A    between atoms: C_16  and  O_40
REMARK    8  A    between atoms: C_18  and  O_39
REMARK    9  A    between atoms: C_20  and  C_37
REMARK   10  A    between atoms: C_23  and  O_25
REMARK   11  A    between atoms: O_25  and  C_26
REMARK   12  A    between atoms: C_37  and  O_38
REMARK                            x       y       z     vdW  Elec       q    Type
REMARK                         _______ _______ _______ _____ _____    ______ ____
ROOT
ATOM      1  C   UNL     1      -1.165  -2.111   2.657  0.00  0.00    +0.221 C 
ATOM      2  C   UNL     1      -2.002  -3.287   3.171  0.00  0.00    +0.180 C 
ATOM      3  C   UNL     1      -3.012  -3.691   2.093  0.00  0.00    +0.177 C 
ATOM      4  C   UNL     1      -3.874  -2.479   1.732  0.00  0.00    +0.179 C 
ATOM      5  O   UNL     1      -3.033  -1.411   1.291  0.00  0.00    -0.331 OA
ATOM      6  C   UNL     1      -2.098  -0.959   2.275  0.00  0.00    +0.340 C 
ENDROOT
BRANCH   3   7
ATOM      7  O   UNL     1      -2.314  -4.145   0.931  0.00  0.00    -0.386 OA
ATOM      8  H   UNL     1      -2.893  -4.417   0.206  0.00  0.00    +0.210 HD
ENDBRANCH   3   7
BRANCH   2   9
ATOM      9  O   UNL     1      -1.144  -4.392   3.463  0.00  0.00    -0.386 OA
ATOM     10  H   UNL     1      -1.608  -5.173   3.794  0.00  0.00    +0.210 HD
ENDBRANCH   2   9
BRANCH   1  11
ATOM     11  O   UNL     1      -0.419  -2.522   1.509  0.00  0.00    -0.337 OA
BRANCH  11  17
ATOM     12  C   UNL     1       2.619   0.372   1.594  0.00  0.00    +0.041 C 
ATOM     13  C   UNL     1       1.772  -0.808   1.113  0.00  0.00    +0.149 C 
ATOM     14  C   UNL     1       2.406  -1.415  -0.141  0.00  0.00    +0.174 C 
ATOM     15  C   UNL     1       1.586  -2.631  -0.582  0.00  0.00    +0.179 C 
ATOM     16  C   UNL     1       1.515  -3.632   0.576  0.00  0.00    +0.201 C 
ATOM     17  C   UNL     1       0.915  -2.939   1.803  0.00  0.00    +0.282 C 
ATOM     18  O   UNL     1       1.708  -1.799   2.140  0.00  0.00    -0.343 OA
BRANCH  16  19
ATOM     19  O   UNL     1       0.693  -4.739   0.202  0.00  0.00    -0.384 OA
ATOM     20  H   UNL     1       0.604  -5.413   0.889  0.00  0.00    +0.210 HD
ENDBRANCH  16  19
BRANCH  15  21
ATOM     21  O   UNL     1       0.266  -2.215  -0.936  0.00  0.00    -0.386 OA
ATOM     22  H   UNL     1      -0.310  -2.936  -1.226  0.00  0.00    +0.210 HD
ENDBRANCH  15  21
BRANCH  14  23
ATOM     23  O   UNL     1       2.419  -0.442  -1.188  0.00  0.00    -0.387 OA
ATOM     24  H   UNL     1       2.918   0.358  -0.975  0.00  0.00    +0.210 HD
ENDBRANCH  14  23
ENDBRANCH  11  17
ENDBRANCH   1  11
BRANCH   6  25
ATOM     25  O   UNL     1      -1.328   0.121   1.743  0.00  0.00    -0.461 OA
BRANCH  25  26
ATOM     26  C   UNL     1      -1.973   1.299   1.544  0.00  0.00    +0.128 A 
ATOM     27  C   UNL     1      -3.295   1.442   1.964  0.00  0.00    +0.046 A 
ATOM     28  C   UNL     1      -3.957   2.620   1.770  0.00  0.00    +0.015 A 
ATOM     29  C   UNL     1      -3.306   3.690   1.147  0.00  0.00    +0.018 A 
ATOM     30  C   UNL     1      -3.991   4.965   0.926  0.00  0.00    +0.018 A 
ATOM     31  C   UNL     1      -3.305   5.966   0.316  0.00  0.00    +0.092 A 
ATOM     32  C   UNL     1      -1.969   5.757  -0.085  0.00  0.00    +0.337 A 
ATOM     33  O   UNL     1      -1.365   6.663  -0.631  0.00  0.00    -0.245 OA
ATOM     34  O   UNL     1      -1.346   4.586   0.120  0.00  0.00    -0.422 OA
ATOM     35  C   UNL     1      -1.972   3.551   0.721  0.00  0.00    +0.143 A 
ATOM     36  C   UNL     1      -1.312   2.349   0.930  0.00  0.00    +0.092 A 
ENDBRANCH  25  26
ENDBRANCH   6  25
BRANCH   4  37
ATOM     37  C   UNL     1      -4.846  -2.858   0.613  0.00  0.00    +0.190 C 
BRANCH  37  38
ATOM     38  O   UNL     1      -5.729  -1.764   0.357  0.00  0.00    -0.392 OA
ATOM     39  H   UNL     1      -6.374  -1.934  -0.342  0.00  0.00    +0.210 HD
ENDBRANCH  37  38
ENDBRANCH   4  37
TORSDOF 11
