REMARK  Name = ZINC38050212
REMARK  6 active torsions:
REMARK  status: ('A' for Active; 'I' for Inactive)
REMARK    1  A    between atoms: C_1  and  C_2
REMARK    2  A    between atoms: C_2  and  C_3
REMARK    3  A    between atoms: C_2  and  S_4
REMARK    4  A    between atoms: S_4  and  N_7
REMARK    5  A    between atoms: N_7  and  C_8
REMARK    6  A    between atoms: C_14  and  N_16
REMARK                            x       y       z     vdW  Elec       q    Type
REMARK                         _______ _______ _______ _____ _____    ______ ____
ROOT
ATOM      1  C   UNL     1       3.275  -0.380  -0.309  0.00  0.00    +0.062 C 
ATOM      2  C   UNL     1       3.181   0.611   0.853  0.00  0.00    +0.019 C 
ATOM      3  C   UNL     1       3.587   2.004   0.369  0.00  0.00    +0.001 C 
ATOM      4  C   UNL     1       5.026   1.964  -0.151  0.00  0.00    -0.001 C 
ATOM      5  C   UNL     1       5.120   0.973  -1.313  0.00  0.00    -0.015 C 
ATOM      6  C   UNL     1       4.714  -0.421  -0.830  0.00  0.00    -0.056 C 
ENDROOT
BRANCH   6   7
ATOM      7  N   UNL     1       4.804  -1.372  -1.945  0.00  0.00    +0.381 N 
ATOM      8  H   UNL     1       4.186  -1.080  -2.687  0.00  0.00    -0.090 HD
ATOM      9  H   UNL     1       5.753  -1.399  -2.288  0.00  0.00    -0.090 HD
ATOM     10  H   UNL     1       4.536  -2.291  -1.626  0.00  0.00    -0.090 HD
ENDBRANCH   6   7
BRANCH   1  11
ATOM     11  N   UNL     1       2.378   0.044  -1.387  0.00  0.00    -0.193 NA
ATOM     12  H   UNL     1       2.678   0.695  -2.040  0.00  0.00    +0.148 HD
BRANCH  11  13
ATOM     13  S   UNL     1       0.851  -0.589  -1.490  0.00  0.00    +0.032 S 
ATOM     14  O   UNL     1       1.037  -1.996  -1.428  0.00  0.00    -0.158 OA
ATOM     15  O   UNL     1       0.285   0.016  -2.645  0.00  0.00    -0.158 OA
BRANCH  13  17
ATOM     16  C   UNL     1      -0.019   1.526   0.010  0.00  0.00    +0.033 C 
ATOM     17  C   UNL     1       0.002  -0.004   0.002  0.00  0.00    +0.142 C 
ATOM     18  C   UNL     1      -1.433  -0.534   0.013  0.00  0.00    +0.033 C 
ENDBRANCH  13  17
ENDBRANCH  11  13
ENDBRANCH   1  11
TORSDOF 4
