REMARK  Name = ZINC61714111
REMARK  4 active torsions:
REMARK  status: ('A' for Active; 'I' for Inactive)
REMARK    1  A    between atoms: C_1  and  C_2
REMARK    2  A    between atoms: C_6  and  C_12
REMARK    3  A    between atoms: C_9  and  N_11
REMARK    4  A    between atoms: C_17  and  O_20
REMARK                            x       y       z     vdW  Elec       q    Type
REMARK                         _______ _______ _______ _____ _____    ______ ____
ROOT
ATOM      1  C   UNL     1      -0.017   1.512  -0.372  0.00  0.00    +0.006 C 
ATOM      2  C   UNL     1       0.004  -0.013  -0.253  0.00  0.00    -0.029 C 
ATOM      3  C   UNL     1       0.757  -0.608  -1.444  0.00  0.00    +0.002 C 
ATOM      4  C   UNL     1       0.777  -2.134  -1.324  0.00  0.00    +0.013 C 
ATOM      5  C   UNL     1       1.479  -2.534  -0.025  0.00  0.00    +0.074 C 
ATOM      6  C   UNL     1       0.725  -1.939   1.166  0.00  0.00    -0.003 C 
ATOM      7  C   UNL     1       0.705  -0.414   1.046  0.00  0.00    -0.072 C 
ENDROOT
BRANCH   5   8
ATOM      8  C   UNL     1       2.893  -2.013  -0.036  0.00  0.00    +0.219 C 
ATOM      9  O   UNL     1       3.099  -0.821  -0.124  0.00  0.00    -0.275 OA
ATOM     10  N   UNL     1       3.928  -2.871   0.051  0.00  0.00    -0.299 N 
ATOM     11  C   UNL     1       3.828  -4.338   0.050  0.00  0.00    +0.110 C 
ATOM     12  C   UNL     1       5.264  -4.895   0.140  0.00  0.00    +0.052 C 
ATOM     13  C   UNL     1       6.128  -3.717  -0.384  0.00  0.00    +0.133 C 
ATOM     14  C   UNL     1       5.350  -2.494   0.156  0.00  0.00    +0.139 C 
BRANCH  13  15
ATOM     15  O   UNL     1       7.448  -3.769   0.159  0.00  0.00    -0.390 OA
ATOM     16  H   UNL     1       7.940  -4.567  -0.078  0.00  0.00    +0.210 HD
ENDBRANCH  13  15
ENDBRANCH   5   8
BRANCH   7  17
ATOM     17  N   UNL     1      -0.018   0.157   2.190  0.00  0.00    +0.380 N 
ATOM     18  H   UNL     1      -0.965  -0.192   2.198  0.00  0.00    -0.090 HD
ATOM     19  H   UNL     1       0.444  -0.107   3.047  0.00  0.00    -0.090 HD
ATOM     20  H   UNL     1      -0.032   1.163   2.111  0.00  0.00    -0.090 HD
ENDBRANCH   7  17
TORSDOF 3
