REMARK  Name = ZINC66250917
REMARK  6 active torsions:
REMARK  status: ('A' for Active; 'I' for Inactive)
REMARK    1  A    between atoms: C_3  and  S_9
REMARK    2  A    between atoms: C_5  and  N_6
REMARK    3  A    between atoms: S_9  and  N_12
REMARK    4  A    between atoms: N_12  and  C_13
REMARK    5  A    between atoms: C_15  and  C_18
REMARK    6  A    between atoms: C_20  and  C_24
REMARK                            x       y       z     vdW  Elec       q    Type
REMARK                         _______ _______ _______ _____ _____    ______ ____
ROOT
ATOM      1  C   UNL     1       5.751   2.545   1.849  0.00  0.00    +0.202 A 
ATOM      2  N   UNL     1       6.297   2.725   3.031  0.00  0.00    -0.222 NA
ATOM      3  C   UNL     1       7.542   3.172   3.150  0.00  0.00    +0.082 A 
ATOM      4  C   UNL     1       8.213   3.430   1.990  0.00  0.00    +0.077 A 
ATOM      5  S   UNL     1       6.973   2.992   0.782  0.00  0.00    -0.057 S 
ENDROOT
BRANCH   3   6
ATOM      6  C   UNL     1       8.172   3.381   4.479  0.00  0.00    +0.019 A 
ATOM      7  C   UNL     1       7.611   3.050   5.727  0.00  0.00    +0.042 A 
ATOM      8  C   UNL     1       8.519   3.409   6.685  0.00  0.00    +0.102 A 
ATOM      9  N   UNL     1       9.615   3.948   6.051  0.00  0.00    -0.356 N 
ATOM     10  H   UNL     1      10.411   4.286   6.490  0.00  0.00    +0.165 HD
ATOM     11  C   UNL     1       9.403   3.924   4.713  0.00  0.00    +0.093 A 
BRANCH   8  12
ATOM     12  C   UNL     1       8.353   3.247   8.134  0.00  0.00    +0.258 C 
ATOM     13  O   UNL     1       7.333   2.754   8.578  0.00  0.00    -0.269 OA
ATOM     14  N   UNL     1       9.330   3.644   8.972  0.00  0.00    -0.324 N 
ATOM     15  H   UNL     1      10.143   4.037   8.618  0.00  0.00    +0.145 HD
ATOM     16  H   UNL     1       9.221   3.537   9.930  0.00  0.00    +0.145 HD
ENDBRANCH   8  12
ENDBRANCH   3   6
BRANCH   1  17
ATOM     17  N   UNL     1       4.477   2.089   1.552  0.00  0.00    -0.070 NA
BRANCH  17  18
ATOM     18  S   UNL     1       4.001   1.932  -0.026  0.00  0.00    +0.100 S 
ATOM     19  O   UNL     1       4.799   0.900  -0.590  0.00  0.00    -0.148 OA
ATOM     20  O   UNL     1       3.957   3.244  -0.570  0.00  0.00    -0.148 OA
BRANCH  18  23
ATOM     21  C   UNL     1      -0.016   1.351   0.009  0.00  0.00    +0.042 A 
ATOM     22  C   UNL     1       1.183   2.038   0.002  0.00  0.00    +0.039 A 
ATOM     23  C   UNL     1       2.343   1.336  -0.013  0.00  0.00    +0.150 A 
ATOM     24  S   UNL     1       1.754  -0.349  -0.017  0.00  0.00    -0.044 S 
ATOM     25  C   UNL     1       0.002  -0.004   0.002  0.00  0.00    +0.165 A 
BRANCH  25  26
ATOM     26  N   UNL     1      -1.135  -0.952   0.008  0.00  0.00    +0.063 N 
ATOM     27  O   UNL     1      -2.270  -0.535   0.021  0.00  0.00    -0.126 OA
ATOM     28  O   UNL     1      -0.929  -2.143  -0.001  0.00  0.00    -0.126 OA
ENDBRANCH  25  26
ENDBRANCH  18  23
ENDBRANCH  17  18
ENDBRANCH   1  17
TORSDOF 6
