REMARK  Name = ZINC15768959
REMARK  14 active torsions:
REMARK  status: ('A' for Active; 'I' for Inactive)
REMARK    1  A    between atoms: C_1  and  C_2
REMARK    2  A    between atoms: C_4  and  C_30
REMARK    3  A    between atoms: C_6  and  C_20
REMARK    4  A    between atoms: C_8  and  C_19
REMARK    5  A    between atoms: C_10  and  C_11
REMARK    6  A    between atoms: C_10  and  O_18
REMARK    7  A    between atoms: C_22  and  O_28
REMARK    8  A    between atoms: C_25  and  O_26
REMARK    9  A    between atoms: O_26  and  C_27
REMARK   10  A    between atoms: O_28  and  C_29
REMARK   11  A    between atoms: C_32  and  O_38
REMARK   12  A    between atoms: C_35  and  O_36
REMARK   13  A    between atoms: O_36  and  C_37
REMARK   14  A    between atoms: O_38  and  C_39
REMARK                            x       y       z     vdW  Elec       q    Type
REMARK                         _______ _______ _______ _____ _____    ______ ____
ROOT
ATOM      1  C   UNL     1       5.466   2.290   1.736  0.00  0.00    +0.009 C 
ATOM      2  C   UNL     1       5.328   1.078   0.813  0.00  0.00    +0.013 C 
ATOM      3  C   UNL     1       4.841   1.536  -0.564  0.00  0.00    -0.030 C 
ATOM      4  C   UNL     1       2.527   1.244   0.094  0.00  0.00    -0.030 C 
ATOM      5  C   UNL     1       2.945   0.776   1.490  0.00  0.00    +0.013 C 
ATOM      6  C   UNL     1       4.314   0.096   1.407  0.00  0.00    +0.094 C 
ATOM      7  C   UNL     1       1.912  -0.217   2.026  0.00  0.00    +0.009 C 
ATOM      8  N   UNL     1       3.526   2.193  -0.433  0.00  0.00    +0.389 N 
ATOM      9  H   UNL     1       3.222   2.527  -1.355  0.00  0.00    -0.084 HD
ATOM     10  H   UNL     1       3.608   2.989   0.210  0.00  0.00    -0.084 HD
ENDROOT
BRANCH   6  11
ATOM     11  C   UNL     1       4.757  -0.315   2.787  0.00  0.00    -0.016 A 
ATOM     12  C   UNL     1       4.358   0.420   3.888  0.00  0.00    +0.009 A 
ATOM     13  C   UNL     1       4.760   0.042   5.155  0.00  0.00    +0.039 A 
ATOM     14  C   UNL     1       5.572  -1.067   5.321  0.00  0.00    +0.123 A 
ATOM     15  C   UNL     1       5.976  -1.799   4.217  0.00  0.00    +0.039 A 
ATOM     16  C   UNL     1       5.568  -1.422   2.951  0.00  0.00    +0.009 A 
ATOM     17  F   UNL     1       5.969  -1.435   6.558  0.00  0.00    -0.205 F 
ENDBRANCH   6  11
BRANCH   4  18
ATOM     18  C   UNL     1       1.189   1.932   0.174  0.00  0.00    -0.016 A 
ATOM     19  C   UNL     1       1.121   3.312   0.190  0.00  0.00    +0.051 A 
ATOM     20  C   UNL     1      -0.110   3.945   0.264  0.00  0.00    +0.121 A 
ATOM     21  C   UNL     1      -1.274   3.193   0.324  0.00  0.00    +0.049 A 
ATOM     22  C   UNL     1      -1.207   1.814   0.302  0.00  0.00    +0.049 A 
ATOM     23  C   UNL     1       0.025   1.180   0.233  0.00  0.00    +0.122 A 
BRANCH  23  24
ATOM     24  O   UNL     1       0.091  -0.178   0.217  0.00  0.00    -0.495 OA
ATOM     25  C   UNL     1      -1.147  -0.889   0.281  0.00  0.00    +0.277 C 
ENDBRANCH  23  24
BRANCH  20  26
ATOM     26  O   UNL     1      -0.176   5.303   0.279  0.00  0.00    -0.495 OA
ATOM     27  C   UNL     1      -1.478   5.888   0.357  0.00  0.00    +0.277 C 
ENDBRANCH  20  26
ENDBRANCH   4  18
BRANCH   3  28
ATOM     28  C   UNL     1       4.724   0.344  -1.478  0.00  0.00    -0.016 A 
ATOM     29  C   UNL     1       3.591   0.175  -2.250  0.00  0.00    +0.051 A 
ATOM     30  C   UNL     1       3.486  -0.920  -3.096  0.00  0.00    +0.121 A 
ATOM     31  C   UNL     1       4.512  -1.851  -3.156  0.00  0.00    +0.049 A 
ATOM     32  C   UNL     1       5.642  -1.685  -2.380  0.00  0.00    +0.049 A 
ATOM     33  C   UNL     1       5.750  -0.587  -1.539  0.00  0.00    +0.122 A 
BRANCH  33  34
ATOM     34  O   UNL     1       6.862  -0.423  -0.774  0.00  0.00    -0.495 OA
ATOM     35  C   UNL     1       7.880  -1.420  -0.887  0.00  0.00    +0.277 C 
ENDBRANCH  33  34
BRANCH  30  36
ATOM     36  O   UNL     1       2.373  -1.083  -3.861  0.00  0.00    -0.495 OA
ATOM     37  C   UNL     1       2.330  -2.236  -4.705  0.00  0.00    +0.277 C 
ENDBRANCH  30  36
ENDBRANCH   3  28
BRANCH   6  38
ATOM     38  O   UNL     1       4.223  -1.060   0.571  0.00  0.00    -0.384 OA
ATOM     39  H   UNL     1       5.056  -1.541   0.473  0.00  0.00    +0.211 HD
ENDBRANCH   6  38
TORSDOF 8
