REMARK  Name = ZINC12882394
REMARK  7 active torsions:
REMARK  status: ('A' for Active; 'I' for Inactive)
REMARK    1  A    between atoms: C_1  and  C_2
REMARK    2  A    between atoms: C_7  and  C_8
REMARK    3  A    between atoms: C_17  and  C_19
REMARK    4  A    between atoms: C_19  and  C_21
REMARK    5  A    between atoms: C_19  and  O_22
REMARK    6  A    between atoms: N_25  and  C_28
REMARK    7  A    between atoms: C_28  and  C_29
REMARK                            x       y       z     vdW  Elec       q    Type
REMARK                         _______ _______ _______ _____ _____    ______ ____
ROOT
ATOM      1  C   UNL     1      -1.295  -0.771   0.011  0.00  0.00    +0.044 C 
ATOM      2  C   UNL     1       0.002  -0.004   0.002  0.00  0.00    -0.046 A 
ATOM      3  C   UNL     1       1.205  -0.686  -0.014  0.00  0.00    +0.004 A 
ATOM      4  C   UNL     1       2.396   0.018  -0.022  0.00  0.00    +0.005 A 
ATOM      5  C   UNL     1       2.382   1.395  -0.014  0.00  0.00    -0.027 A 
ATOM      6  C   UNL     1       1.178   2.092   0.002  0.00  0.00    +0.039 A 
ATOM      7  C   UNL     1      -0.017   1.375   0.010  0.00  0.00    -0.026 A 
ATOM      8  C   UNL     1      -1.333   2.109   0.020  0.00  0.00    +0.046 C 
ATOM      9  N   UNL     1       1.416   3.468   0.008  0.00  0.00    -0.286 N 
ATOM     10  C   UNL     1       2.732   3.756  -0.002  0.00  0.00    +0.211 C 
ATOM     11  O   UNL     1       3.232   4.861   0.001  0.00  0.00    -0.277 OA
ATOM     12  C   UNL     1       3.461   2.440  -0.018  0.00  0.00    +0.050 C 
ATOM     13  C   UNL     1       4.388   2.296   1.195  0.00  0.00    +0.088 C 
ATOM     14  C   UNL     1       5.619   1.515   0.654  0.00  0.00    +0.075 C 
ATOM     15  C   UNL     1       5.305   1.261  -0.835  0.00  0.00    -0.028 C 
ATOM     16  C   UNL     1       6.756   2.506   0.764  0.00  0.00    +0.224 C 
ATOM     17  O   UNL     1       7.904   2.293   0.440  0.00  0.00    -0.275 OA
ATOM     18  N   UNL     1       6.296   3.655   1.274  0.00  0.00    -0.237 N 
ATOM     19  C   UNL     1       4.988   3.655   1.551  0.00  0.00    +0.225 C 
ATOM     20  O   UNL     1       4.371   4.589   2.019  0.00  0.00    -0.275 OA
ATOM     21  H   UNL     1       0.716   4.139   0.018  0.00  0.00    +0.155 HD
ATOM     22  N   UNL     1       4.330   2.299  -1.174  0.00  0.00    +0.396 N 
ATOM     23  H   UNL     1       4.809   3.186  -1.369  0.00  0.00    -0.083 HD
ATOM     24  H   UNL     1       3.783   2.018  -1.996  0.00  0.00    -0.083 HD
ENDROOT
BRANCH  15  25
ATOM     25  C   UNL     1       6.576   1.393  -1.677  0.00  0.00    +0.098 C 
ATOM     26  C   UNL     1       6.228   1.213  -3.156  0.00  0.00    +0.036 C 
BRANCH  25  27
ATOM     27  O   UNL     1       7.515   0.390  -1.283  0.00  0.00    -0.394 OA
ATOM     28  H   UNL     1       7.192  -0.515  -1.392  0.00  0.00    +0.210 HD
ENDBRANCH  25  27
ENDBRANCH  15  25
BRANCH  18  29
ATOM     29  C   UNL     1       7.157   4.817   1.509  0.00  0.00    +0.151 C 
BRANCH  29  30
ATOM     30  C   UNL     1       7.173   5.687   0.279  0.00  0.00    -0.026 A 
ATOM     31  C   UNL     1       6.240   6.697   0.135  0.00  0.00    +0.009 A 
ATOM     32  C   UNL     1       6.251   7.497  -0.992  0.00  0.00    +0.050 A 
ATOM     33  C   UNL     1       7.199   7.290  -1.980  0.00  0.00    +0.166 A 
ATOM     34  C   UNL     1       8.139   6.272  -1.836  0.00  0.00    +0.167 A 
ATOM     35  C   UNL     1       8.125   5.477  -0.702  0.00  0.00    +0.054 A 
ATOM     36  O   UNL     1       8.953   6.271  -2.932  0.00  0.00    -0.453 OA
ATOM     37  C   UNL     1       8.249   7.029  -3.934  0.00  0.00    +0.466 C 
ATOM     38  O   UNL     1       7.423   7.926  -3.167  0.00  0.00    -0.453 OA
ENDBRANCH  29  30
ENDBRANCH  18  29
TORSDOF 4
