REMARK  Name = ZINC40757768
REMARK  6 active torsions:
REMARK  status: ('A' for Active; 'I' for Inactive)
REMARK    1  A    between atoms: C_1  and  C_2
REMARK    2  A    between atoms: C_3  and  C_23
REMARK    3  A    between atoms: C_9  and  N_22
REMARK    4  A    between atoms: C_10  and  N_14
REMARK    5  A    between atoms: N_14  and  C_15
REMARK    6  A    between atoms: N_14  and  C_16
REMARK                            x       y       z     vdW  Elec       q    Type
REMARK                         _______ _______ _______ _____ _____    ______ ____
ROOT
ATOM      1  C   UNL     1      -0.534   1.506   0.040  0.00  0.00    +0.066 C 
ATOM      2  C   UNL     1      -0.456   0.001   0.021  0.00  0.00    +0.050 A 
ATOM      3  C   UNL     1      -0.479  -0.693  -1.143  0.00  0.00    +0.011 A 
ATOM      4  S   UNL     1      -0.361  -2.367  -0.534  0.00  0.00    -0.057 S 
ATOM      5  C   UNL     1      -0.295  -2.013   1.110  0.00  0.00    +0.164 A 
ATOM      6  N   UNL     1      -0.357  -0.699   1.136  0.00  0.00    -0.230 NA
ATOM      7  N   UNL     1      -0.195  -2.893   2.178  0.00  0.00    -0.277 N 
ATOM      8  C   UNL     1      -0.154  -2.405   3.480  0.00  0.00    +0.150 A 
ATOM      9  C   UNL     1      -0.047  -3.280   4.562  0.00  0.00    +0.104 A 
ATOM     10  C   UNL     1      -0.010  -2.737   5.848  0.00  0.00    +0.128 A 
ATOM     11  N   UNL     1      -0.077  -1.415   5.992  0.00  0.00    -0.333 N 
ATOM     12  C   UNL     1      -0.177  -0.624   4.943  0.00  0.00    +0.200 A 
ATOM     13  N   UNL     1      -0.210  -1.096   3.713  0.00  0.00    -0.221 NA
ATOM     14  C   UNL     1      -0.578  -0.191  -2.560  0.00  0.00    +0.053 C 
ATOM     15  H   UNL     1      -0.153  -3.849   2.017  0.00  0.00    +0.156 HD
ATOM     16  H   UNL     1      -0.052  -1.029   6.881  0.00  0.00    +0.168 HD
ENDROOT
BRANCH   9  17
ATOM     17  N   UNL     1       0.020  -4.668   4.364  0.00  0.00    -0.353 N 
ATOM     18  H   UNL     1      -0.081  -5.036   3.472  0.00  0.00    +0.143 HD
ATOM     19  H   UNL     1       0.168  -5.259   5.118  0.00  0.00    +0.143 HD
ENDBRANCH   9  17
BRANCH  10  20
ATOM     20  N   UNL     1       0.096  -3.564   6.961  0.00  0.00    -0.288 N 
ATOM     21  C   UNL     1      -1.108  -4.158   7.548  0.00  0.00    +0.137 C 
BRANCH  20  22
ATOM     22  C   UNL     1       1.349  -3.827   7.520  0.00  0.00    +0.035 A 
ATOM     23  C   UNL     1       2.499  -3.343   6.909  0.00  0.00    +0.023 A 
ATOM     24  C   UNL     1       3.736  -3.605   7.464  0.00  0.00    +0.002 A 
ATOM     25  C   UNL     1       3.831  -4.349   8.626  0.00  0.00    +0.000 A 
ATOM     26  C   UNL     1       2.688  -4.832   9.236  0.00  0.00    +0.002 A 
ATOM     27  C   UNL     1       1.448  -4.569   8.690  0.00  0.00    +0.023 A 
ENDBRANCH  20  22
ENDBRANCH  10  20
TORSDOF 3
