REMARK  Name = ZINC43740119
REMARK  6 active torsions:
REMARK  status: ('A' for Active; 'I' for Inactive)
REMARK    1  A    between atoms: C_1  and  C_2
REMARK    2  A    between atoms: C_4  and  O_38
REMARK    3  A    between atoms: C_14  and  C_16
REMARK    4  A    between atoms: C_16  and  C_21
REMARK    5  A    between atoms: C_26  and  C_37
REMARK    6  A    between atoms: N_28  and  O_29
REMARK                            x       y       z     vdW  Elec       q    Type
REMARK                         _______ _______ _______ _____ _____    ______ ____
ROOT
ATOM      1  C   UNL     1       0.113   1.710  -0.643  0.00  0.00    +0.012 C 
ATOM      2  C   UNL     1       0.300   0.213  -0.901  0.00  0.00    -0.019 C 
ATOM      3  C   UNL     1       1.540  -0.011  -1.743  0.00  0.00    +0.039 C 
ATOM      4  C   UNL     1       2.715   0.665  -1.017  0.00  0.00    +0.119 C 
ATOM      5  C   UNL     1       2.885   0.119   0.397  0.00  0.00    +0.033 C 
ATOM      6  C   UNL     1       1.590   0.248   1.212  0.00  0.00    -0.001 C 
ATOM      7  C   UNL     1       0.514  -0.529   0.446  0.00  0.00    -0.001 C 
ATOM      8  C   UNL     1      -0.894  -0.485   1.052  0.00  0.00    +0.005 C 
ATOM      9  C   UNL     1      -1.806  -0.789  -0.168  0.00  0.00    +0.009 C 
ATOM     10  C   UNL     1      -1.000  -0.386  -1.428  0.00  0.00    +0.054 C 
ATOM     11  C   UNL     1       1.808  -0.364   2.597  0.00  0.00    +0.004 C 
ATOM     12  C   UNL     1       2.926   0.396   3.313  0.00  0.00    +0.005 C 
ATOM     13  C   UNL     1       4.218   0.296   2.505  0.00  0.00    +0.006 C 
ATOM     14  C   UNL     1       4.000   0.880   1.118  0.00  0.00    +0.018 C 
ATOM     15  C   UNL     1       5.287   0.706   0.338  0.00  0.00    +0.069 C 
ATOM     16  N   UNL     1       5.844   1.699  -0.245  0.00  0.00    -0.096 NA
ATOM     17  C   UNL     1       5.896  -0.678   0.270  0.00  0.00    +0.119 C 
ATOM     18  C   UNL     1       6.013  -1.233   1.693  0.00  0.00    +0.176 C 
ATOM     19  C   UNL     1       4.654  -1.165   2.391  0.00  0.00    +0.069 C 
ATOM     20  O   UNL     1       6.459  -2.598   1.637  0.00  0.00    -0.346 OA
ATOM     21  C   UNL     1       7.894  -2.526   1.818  0.00  0.00    +0.191 C 
ATOM     22  C   UNL     1       8.026  -1.359   2.829  0.00  0.00    +0.191 C 
ATOM     23  O   UNL     1       6.969  -0.462   2.432  0.00  0.00    -0.346 OA
ATOM     24  C   UNL     1       3.635   2.362   1.228  0.00  0.00    +0.018 C 
ENDROOT
BRANCH  10  25
ATOM     25  C   UNL     1      -0.706  -1.617  -2.287  0.00  0.00    +0.171 C 
ATOM     26  O   UNL     1       0.170  -1.255  -3.367  0.00  0.00    -0.346 OA
ATOM     27  C   UNL     1      -0.268  -2.062  -4.486  0.00  0.00    +0.191 C 
ATOM     28  C   UNL     1      -1.802  -2.091  -4.271  0.00  0.00    +0.191 C 
ATOM     29  O   UNL     1      -1.930  -2.125  -2.836  0.00  0.00    -0.346 OA
ATOM     30  C   UNL     1      -0.042  -2.696  -1.429  0.00  0.00    +0.074 C 
ENDBRANCH  10  25
BRANCH  16  31
ATOM     31  O   UNL     1       7.047   1.513  -0.968  0.00  0.00    -0.409 OA
ATOM     32  H   UNL     1       7.391   2.321  -1.374  0.00  0.00    +0.328 HD
ENDBRANCH  16  31
BRANCH   4  33
ATOM     33  O   UNL     1       2.474   2.072  -0.947  0.00  0.00    -0.391 OA
ATOM     34  H   UNL     1       2.383   2.499  -1.810  0.00  0.00    +0.210 HD
ENDBRANCH   4  33
TORSDOF 3
