REMARK  Name = ZINC09777233
REMARK  11 active torsions:
REMARK  status: ('A' for Active; 'I' for Inactive)
REMARK    1  A    between atoms: C_1  and  C_2
REMARK    2  A    between atoms: C_2  and  C_3
REMARK    3  A    between atoms: C_3  and  C_4
REMARK    4  A    between atoms: C_4  and  N_5
REMARK    5  A    between atoms: C_6  and  C_31
REMARK    6  A    between atoms: C_14  and  C_20
REMARK    7  A    between atoms: N_22  and  C_23
REMARK    8  A    between atoms: C_26  and  C_30
REMARK    9  A    between atoms: N_33  and  C_34
REMARK   10  A    between atoms: C_39  and  C_44
REMARK   11  A    between atoms: C_41  and  C_43
REMARK                            x       y       z     vdW  Elec       q    Type
REMARK                         _______ _______ _______ _____ _____    ______ ____
ROOT
ATOM      1  N   UNL     1       4.413   4.123  -0.633  0.00  0.00    -0.287 N 
ATOM      2  C   UNL     1       5.159   3.045  -1.355  0.00  0.00    +0.198 C 
ATOM      3  C   UNL     1       4.135   1.955  -1.425  0.00  0.00    +0.127 C 
ATOM      4  C   UNL     1       3.012   2.263  -2.399  0.00  0.00    +0.009 C 
ATOM      5  C   UNL     1       2.202   1.216  -2.357  0.00  0.00    +0.004 C 
ATOM      6  C   UNL     1       2.808   0.286  -1.296  0.00  0.00    +0.155 C 
ATOM      7  O   UNL     1       4.262   0.553  -1.474  0.00  0.00    -0.358 OA
ATOM      8  C   UNL     1       2.491   1.060   0.042  0.00  0.00    +0.123 C 
ATOM      9  C   UNL     1       3.579   2.103   0.048  0.00  0.00    +0.128 C 
ATOM     10  C   UNL     1       3.407   3.566   0.118  0.00  0.00    +0.223 C 
ATOM     11  O   UNL     1       2.542   4.163   0.723  0.00  0.00    -0.275 OA
ENDROOT
BRANCH   8  12
ATOM     12  C   UNL     1       1.128   1.700  -0.013  0.00  0.00    +0.224 C 
ATOM     13  O   UNL     1       0.963   2.723  -0.643  0.00  0.00    -0.275 OA
ATOM     14  N   UNL     1       0.092   1.136   0.639  0.00  0.00    -0.285 N 
ATOM     15  H   UNL     1       0.207   0.284   1.088  0.00  0.00    +0.155 HD
BRANCH  14  16
ATOM     16  C   UNL     1      -1.152   1.777   0.664  0.00  0.00    +0.035 A 
ATOM     17  C   UNL     1      -1.584   2.499  -0.440  0.00  0.00    +0.023 A 
ATOM     18  C   UNL     1      -2.812   3.131  -0.414  0.00  0.00    +0.006 A 
ATOM     19  C   UNL     1      -3.611   3.045   0.712  0.00  0.00    -0.032 A 
ATOM     20  C   UNL     1      -3.184   2.326   1.814  0.00  0.00    +0.046 A 
ATOM     21  C   UNL     1      -1.958   1.688   1.791  0.00  0.00    +0.043 A 
ATOM     22 CL   UNL     1      -4.190   2.221   3.225  0.00  0.00    -0.083 Cl
ATOM     23  C   UNL     1      -4.951   3.735   0.737  0.00  0.00    +0.045 C 
ENDBRANCH  14  16
ENDBRANCH   8  12
BRANCH   2  24
ATOM     24  C   UNL     1       6.364   2.602  -0.565  0.00  0.00    +0.237 C 
ATOM     25  O   UNL     1       6.436   2.849   0.620  0.00  0.00    -0.274 OA
ATOM     26  N   UNL     1       7.361   1.932  -1.176  0.00  0.00    -0.311 N 
ATOM     27  H   UNL     1       7.303   1.734  -2.124  0.00  0.00    +0.149 HD
BRANCH  26  28
ATOM     28  C   UNL     1       8.532   1.501  -0.408  0.00  0.00    +0.076 C 
ATOM     29  C   UNL     1       9.543   2.647  -0.336  0.00  0.00    +0.022 C 
ATOM     30  C   UNL     1      10.767   2.197   0.465  0.00  0.00    +0.002 C 
ATOM     31  C   UNL     1      11.410   0.990  -0.220  0.00  0.00    +0.003 C 
ATOM     32  C   UNL     1      10.398  -0.155  -0.292  0.00  0.00    -0.009 C 
ATOM     33  C   UNL     1       9.175   0.294  -1.094  0.00  0.00    +0.009 C 
ATOM     34  C   UNL     1       9.608   0.682  -2.509  0.00  0.00    +0.009 C 
ATOM     35  C   UNL     1      11.042  -1.362  -0.977  0.00  0.00    +0.008 C 
ENDBRANCH  26  28
ENDBRANCH   2  24
BRANCH   1  36
ATOM     36  C   UNL     1       4.711   5.556  -0.716  0.00  0.00    +0.108 C 
BRANCH  36  37
ATOM     37  C   UNL     1       5.717   5.931   0.374  0.00  0.00    +0.019 C 
BRANCH  37  39
ATOM     38  C   UNL     1       7.034   7.802   1.377  0.00  0.00    +0.004 C 
ATOM     39  C   UNL     1       6.028   7.427   0.288  0.00  0.00    -0.002 C 
ENDBRANCH  37  39
ENDBRANCH  36  37
ENDBRANCH   1  36
TORSDOF 7
