REMARK  Name = ZINC40740297
REMARK  13 active torsions:
REMARK  status: ('A' for Active; 'I' for Inactive)
REMARK    1  A    between atoms: C_1  and  C_2
REMARK    2  A    between atoms: C_2  and  CA_3
REMARK    3  A    between atoms: CA_3  and  C_5
REMARK    4  A    between atoms: CA_3  and  N_7
REMARK    5  A    between atoms: C_5  and  O_6
REMARK    6  A    between atoms: N_7  and  C_8
REMARK    7  A    between atoms: C_8  and  C_9
REMARK    8  A    between atoms: C_11  and  O_26
REMARK    9  A    between atoms: C_12  and  O_16
REMARK   10  A    between atoms: O_16  and  C_17
REMARK   11  A    between atoms: C_17  and  C_18
REMARK   12  A    between atoms: O_26  and  C_27
REMARK   13  A    between atoms: C_27  and  C_28
REMARK                            x       y       z     vdW  Elec       q    Type
REMARK                         _______ _______ _______ _____ _____    ______ ____
ROOT
ATOM      1  C   UNL     1       4.280  -0.066   2.343  0.00  0.00    -0.060 A 
ATOM      2  C   UNL     1       5.224  -0.932   1.824  0.00  0.00    +0.051 A 
ATOM      3  C   UNL     1       6.554  -0.549   1.757  0.00  0.00    +0.163 A 
ATOM      4  C   UNL     1       6.937   0.709   2.212  0.00  0.00    +0.176 A 
ATOM      5  C   UNL     1       5.986   1.573   2.731  0.00  0.00    +0.063 A 
ATOM      6  C   UNL     1       4.659   1.186   2.791  0.00  0.00    +0.021 A 
ATOM      7 BR   UNL     1       6.500   3.283   3.352  0.00  0.00    -0.046 Br
ENDROOT
BRANCH   1   8
ATOM      8  C   UNL     1       2.834  -0.484   2.415  0.00  0.00    -0.046 C 
BRANCH   8   9
ATOM      9  N   UNL     1       2.151  -0.103   1.171  0.00  0.00    +0.385 N 
ATOM     10  H1  UNL     1       2.596  -0.560   0.390  0.00  0.00    -0.085 HD
ATOM     11  H2  UNL     1       2.206   0.898   1.051  0.00  0.00    -0.085 HD
BRANCH   9  12
ATOM     12  CA  UNL     1       0.742  -0.511   1.242  0.00  0.00    -0.046 C 
BRANCH  12  14
ATOM     13  C   UNL     1      -0.019   1.526   0.010  0.00  0.00    +0.002 C 
ATOM     14  C   UNL     1       0.002  -0.004   0.002  0.00  0.00    -0.017 C 
ENDBRANCH  12  14
BRANCH  12  15
ATOM     15  C   UNL     1       0.655  -2.037   1.299  0.00  0.00    +0.140 C 
BRANCH  15  16
ATOM     16  O   UNL     1       1.148  -2.588   0.076  0.00  0.00    -0.397 OA
ATOM     17  H   UNL     1       1.123  -3.555   0.041  0.00  0.00    +0.209 HD
ENDBRANCH  15  16
ENDBRANCH  12  15
ENDBRANCH   9  12
ENDBRANCH   8   9
ENDBRANCH   1   8
BRANCH   4  18
ATOM     18  O   UNL     1       8.241   1.089   2.149  0.00  0.00    -0.483 OA
BRANCH  18  19
ATOM     19  C   UNL     1       8.666   1.751   0.956  0.00  0.00    +0.267 C 
BRANCH  19  20
ATOM     20  C   UNL     1      10.130   2.094   1.067  0.00  0.00    +0.026 A 
ATOM     21  C   UNL     1      10.517   3.307   1.609  0.00  0.00    +0.049 A 
ATOM     22  C   UNL     1      11.861   3.621   1.710  0.00  0.00    +0.020 A 
ATOM     23  C   UNL     1      12.816   2.724   1.270  0.00  0.00    +0.003 A 
ATOM     24  C   UNL     1      12.429   1.513   0.728  0.00  0.00    +0.020 A 
ATOM     25  C   UNL     1      11.086   1.194   0.632  0.00  0.00    +0.049 A 
ATOM     26 CL   UNL     1      10.601  -0.331  -0.041  0.00  0.00    -0.083 Cl
ATOM     27 CL   UNL     1       9.318   4.434   2.161  0.00  0.00    -0.083 Cl
ENDBRANCH  19  20
ENDBRANCH  18  19
ENDBRANCH   4  18
BRANCH   3  28
ATOM     28  O   UNL     1       7.484  -1.401   1.247  0.00  0.00    -0.489 OA
BRANCH  28  29
ATOM     29  C   UNL     1       7.019  -2.676   0.799  0.00  0.00    +0.226 C 
ATOM     30  C   UNL     1       8.198  -3.489   0.262  0.00  0.00    +0.048 C 
ENDBRANCH  28  29
ENDBRANCH   3  28
TORSDOF 11
