REMARK  Name = ZINC25382094
REMARK  9 active torsions:
REMARK  status: ('A' for Active; 'I' for Inactive)
REMARK    1  A    between atoms: C_1  and  C_2
REMARK    2  A    between atoms: N_5  and  C_8
REMARK    3  A    between atoms: C_8  and  C_10
REMARK    4  A    between atoms: C_8  and  C_25
REMARK    5  A    between atoms: C_10  and  N_11
REMARK    6  A    between atoms: C_12  and  C_14
REMARK    7  A    between atoms: C_17  and  O_20
REMARK    8  A    between atoms: O_20  and  C_21
REMARK    9  A    between atoms: C_21  and  C_22
REMARK                            x       y       z     vdW  Elec       q    Type
REMARK                         _______ _______ _______ _____ _____    ______ ____
ROOT
ATOM      1  N   UNL     1      -1.050   4.048  -0.113  0.00  0.00    -0.313 N 
ATOM      2  C   UNL     1      -0.994   5.377  -0.328  0.00  0.00    +0.244 C 
ATOM      3  O   UNL     1      -0.586   6.118   0.546  0.00  0.00    -0.270 OA
ATOM      4  H   UNL     1      -1.420   3.378  -0.903  0.00  0.00    +0.149 HD
ENDROOT
BRANCH   2   5
ATOM      5  C   UNL     1      -1.429   5.934  -1.623  0.00  0.00    +0.037 A 
ATOM      6  C   UNL     1      -1.894   5.084  -2.631  0.00  0.00    +0.016 A 
ATOM      7  C   UNL     1      -2.304   5.609  -3.836  0.00  0.00    +0.046 A 
ATOM      8  C   UNL     1      -2.245   6.980  -4.056  0.00  0.00    +0.121 A 
ATOM      9  C   UNL     1      -1.779   7.828  -3.059  0.00  0.00    +0.046 A 
ATOM     10  C   UNL     1      -1.372   7.312  -1.848  0.00  0.00    +0.016 A 
BRANCH   8  11
ATOM     11  O   UNL     1      -2.645   7.492  -5.247  0.00  0.00    -0.483 OA
BRANCH  11  12
ATOM     12  C   UNL     1      -3.114   6.564  -6.228  0.00  0.00    +0.324 C 
BRANCH  12  13
ATOM     13  C   UNL     1      -3.511   7.310  -7.476  0.00  0.00    +0.248 C 
ATOM     14  O   UNL     1      -3.403   8.517  -7.521  0.00  0.00    -0.272 OA
ATOM     15  N   UNL     1      -3.986   6.635  -8.542  0.00  0.00    -0.327 N 
ATOM     16  H   UNL     1      -4.275   7.179  -9.453  0.00  0.00    +0.145 HD
ATOM     17  H   UNL     1      -4.083   5.540  -8.501  0.00  0.00    +0.145 HD
ENDBRANCH  12  13
ENDBRANCH  11  12
ENDBRANCH   8  11
ENDBRANCH   2   5
BRANCH   1  18
ATOM     18  C   UNL     1      -0.619   3.495   1.174  0.00  0.00    +0.094 C 
BRANCH  18  19
ATOM     19  C   UNL     1      -0.783   1.974   1.156  0.00  0.00    -0.013 C 
BRANCH  19  24
ATOM     20  C   UNL     1       2.645  -0.537  -2.667  0.00  0.00    +0.007 C 
ATOM     21  C   UNL     1       2.031  -0.038  -1.357  0.00  0.00    -0.018 C 
ATOM     22  C   UNL     1       0.614  -0.600  -1.211  0.00  0.00    -0.015 C 
ATOM     23  C   UNL     1      -0.018  -0.050   0.070  0.00  0.00    -0.078 C 
ATOM     24  N   UNL     1      -0.058   1.417   0.006  0.00  0.00    +0.386 N 
ATOM     25  C   UNL     1       1.294   1.982  -0.087  0.00  0.00    -0.078 C 
ATOM     26  C   UNL     1       1.965   1.492  -1.373  0.00  0.00    -0.015 C 
ATOM     27  H   UNL     1      -0.603   1.698  -0.907  0.00  0.00    -0.081 HD
ENDBRANCH  19  24
BRANCH  19  28
ATOM     28  C   UNL     1      -0.226   1.394   2.430  0.00  0.00    -0.022 A 
ATOM     29  C   UNL     1      -0.888   0.865   3.488  0.00  0.00    +0.009 A 
ATOM     30  C   UNL     1      -0.161   0.386   4.562  0.00  0.00    +0.008 A 
ATOM     31  C   UNL     1       1.192   0.459   4.525  0.00  0.00    +0.045 A 
ATOM     32  S   UNL     1       1.478   1.217   2.934  0.00  0.00    -0.103 S 
ENDBRANCH  19  28
ENDBRANCH  18  19
ENDBRANCH   1  18
TORSDOF 8
