REMARK  Name = ZINC38793472
REMARK  8 active torsions:
REMARK  status: ('A' for Active; 'I' for Inactive)
REMARK    1  A    between atoms: C_1  and  C_2
REMARK    2  A    between atoms: C_2  and  C_4
REMARK    3  A    between atoms: C_2  and  S_15
REMARK    4  A    between atoms: N_6  and  C_7
REMARK    5  A    between atoms: C_10  and  C_13
REMARK    6  A    between atoms: S_15  and  C_16
REMARK    7  A    between atoms: C_20  and  C_29
REMARK    8  A    between atoms: N_21  and  C_22
REMARK                            x       y       z     vdW  Elec       q    Type
REMARK                         _______ _______ _______ _____ _____    ______ ____
ROOT
ATOM      1  C   UNL     1       0.396  -0.140   2.450  0.00  0.00    +0.242 C 
ATOM      2  N   UNL     1      -0.838  -0.919   2.645  0.00  0.00    -0.237 N 
ATOM      3  N   UNL     1      -1.854   0.006   2.914  0.00  0.00    -0.169 NA
ATOM      4  C   UNL     1      -1.395   1.230   2.906  0.00  0.00    +0.151 C 
ATOM      5  N   UNL     1      -0.022   1.260   2.633  0.00  0.00    -0.254 N 
ATOM      6  H   UNL     1      -0.930  -1.883   2.596  0.00  0.00    +0.171 HD
ENDROOT
BRANCH   4   7
ATOM      7  C   UNL     1      -2.179   2.370   3.143  0.00  0.00    +0.022 C 
ATOM      8  C   UNL     1      -3.524   2.408   3.511  0.00  0.00    +0.006 A 
ATOM      9  C   UNL     1      -4.476   1.393   3.749  0.00  0.00    +0.010 A 
ATOM     10  C   UNL     1      -5.744   1.728   4.102  0.00  0.00    +0.001 A 
ATOM     11  C   UNL     1      -6.137   3.061   4.237  0.00  0.00    +0.002 A 
ATOM     12  C   UNL     1      -5.276   4.086   4.024  0.00  0.00    +0.026 A 
ATOM     13  C   UNL     1      -3.934   3.814   3.652  0.00  0.00    +0.043 A 
ATOM     14  N   UNL     1      -2.921   4.618   3.393  0.00  0.00    -0.380 N 
ATOM     15  C   UNL     1      -1.740   3.815   3.060  0.00  0.00    +0.152 C 
ATOM     16  H   UNL     1      -2.951   5.587   3.421  0.00  0.00    +0.160 HD
ENDBRANCH   4   7
BRANCH   5  17
ATOM     17  C   UNL     1       0.792   2.393   2.549  0.00  0.00    +0.038 A 
ATOM     18  C   UNL     1       0.569   3.337   1.555  0.00  0.00    +0.025 A 
ATOM     19  C   UNL     1       1.375   4.456   1.474  0.00  0.00    +0.022 A 
ATOM     20  C   UNL     1       2.404   4.636   2.382  0.00  0.00    +0.041 A 
ATOM     21  C   UNL     1       2.628   3.696   3.373  0.00  0.00    +0.022 A 
ATOM     22  C   UNL     1       1.821   2.579   3.462  0.00  0.00    +0.025 A 
ATOM     23 CL   UNL     1       3.416   6.043   2.277  0.00  0.00    -0.084 Cl
ENDBRANCH   5  17
BRANCH   1  24
ATOM     24  S   UNL     1       1.048  -0.394   0.776  0.00  0.00    -0.105 S 
BRANCH  24  26
ATOM     25  C   UNL     1      -0.922   1.188  -0.271  0.00  0.00    +0.029 C 
ATOM     26  C   UNL     1      -0.412  -0.254  -0.290  0.00  0.00    +0.133 C 
BRANCH  26  27
ATOM     27  C   UNL     1      -0.044  -0.638  -1.700  0.00  0.00    +0.230 C 
ATOM     28  O   UNL     1       1.117  -0.620  -2.049  0.00  0.00    -0.274 OA
ATOM     29  N   UNL     1      -1.004  -1.001  -2.572  0.00  0.00    -0.285 N 
ATOM     30  H   UNL     1      -1.938  -0.948  -2.316  0.00  0.00    +0.155 HD
BRANCH  29  31
ATOM     31  C   UNL     1      -0.656  -1.454  -3.845  0.00  0.00    +0.033 A 
ATOM     32  C   UNL     1       0.569  -2.082  -4.047  0.00  0.00    +0.024 A 
ATOM     33  C   UNL     1       0.917  -2.530  -5.301  0.00  0.00    +0.020 A 
ATOM     34  C   UNL     1       0.037  -2.354  -6.373  0.00  0.00    +0.052 A 
ATOM     35  C   UNL     1      -1.193  -1.723  -6.167  0.00  0.00    +0.020 A 
ATOM     36  C   UNL     1      -1.536  -1.282  -4.909  0.00  0.00    +0.024 A 
BRANCH  34  37
ATOM     37  C   UNL     1       0.396  -2.818  -7.680  0.00  0.00    +0.099 C 
ATOM     38  N   UNL     1       0.680  -3.187  -8.716  0.00  0.00    -0.191 NA
ENDBRANCH  34  37
ENDBRANCH  29  31
ENDBRANCH  26  27
ENDBRANCH  24  26
ENDBRANCH   1  24
TORSDOF 7
