REMARK  Name = ZINC04288648
REMARK  6 active torsions:
REMARK  status: ('A' for Active; 'I' for Inactive)
REMARK    1  A    between atoms: C_4  and  C_7
REMARK    2  A    between atoms: C_7  and  C_8
REMARK    3  A    between atoms: C_14  and  S_16
REMARK    4  A    between atoms: S_16  and  C_17
REMARK    5  A    between atoms: C_28  and  C_29
REMARK    6  A    between atoms: C_28  and  N_54
REMARK                            x       y       z     vdW  Elec       q    Type
REMARK                         _______ _______ _______ _____ _____    ______ ____
ROOT
ATOM      1  S   UNL     1       0.526   4.876  -1.482  0.00  0.00    -0.095 S 
ENDROOT
BRANCH   1   8
ATOM      2  C   UNL     1      -0.603  11.307   0.065  0.00  0.00    +0.223 C 
ATOM      3  O   UNL     1      -1.578  10.752   0.527  0.00  0.00    -0.275 OA
ATOM      4  N   UNL     1       0.346  10.587  -0.565  0.00  0.00    -0.263 N 
ATOM      5  C   UNL     1       0.208   9.206  -0.685  0.00  0.00    +0.189 A 
ATOM      6  N   UNL     1      -0.759   8.409  -0.263  0.00  0.00    -0.125 NA
ATOM      7  N   UNL     1      -0.734   7.163  -0.461  0.00  0.00    -0.133 NA
ATOM      8  C   UNL     1       0.270   6.576  -1.096  0.00  0.00    +0.160 A 
ATOM      9  S   UNL     1       1.287   8.004  -1.457  0.00  0.00    -0.024 S 
ATOM     10  H   UNL     1       1.125  11.030  -0.935  0.00  0.00    +0.157 HD
BRANCH   2  11
ATOM     11  C   UNL     1      -0.454  12.801   0.195  0.00  0.00    +0.131 C 
BRANCH  11  15
ATOM     12  C   UNL     1      -3.818  14.392   2.291  0.00  0.00    +0.000 A 
ATOM     13  C   UNL     1      -2.697  13.986   2.990  0.00  0.00    +0.000 A 
ATOM     14  C   UNL     1      -1.608  13.471   2.312  0.00  0.00    +0.004 A 
ATOM     15  C   UNL     1      -1.640  13.362   0.934  0.00  0.00    -0.039 A 
ATOM     16  C   UNL     1      -2.760  13.773   0.235  0.00  0.00    +0.004 A 
ATOM     17  C   UNL     1      -3.850  14.284   0.913  0.00  0.00    +0.000 A 
ENDBRANCH  11  15
ENDBRANCH   2  11
ENDBRANCH   1   8
BRANCH   1  18
ATOM     18  C   UNL     1      -0.931   4.045  -0.792  0.00  0.00    +0.041 C 
ATOM     19  C   UNL     1      -0.881   4.065   0.756  0.00  0.00    +0.015 C 
ATOM     20  C   UNL     1      -0.868   2.558   1.158  0.00  0.00    -0.015 C 
ATOM     21  C   UNL     1      -2.282   2.044   0.737  0.00  0.00    -0.073 C 
ATOM     22  C   UNL     1      -0.920   2.530  -1.162  0.00  0.00    -0.041 C 
ATOM     23  C   UNL     1      -0.015   1.955  -0.016  0.00  0.00    +0.046 C 
ATOM     24 BR   UNL     1      -0.006  -0.011   0.006  0.00  0.00    -0.089 Br
ATOM     25  N   UNL     1      -2.243   2.020  -0.731  0.00  0.00    +0.386 N 
ATOM     26  H   UNL     1      -2.365   1.056  -1.063  0.00  0.00    -0.081 HD
BRANCH  25  27
ATOM     27  C   UNL     1      -3.335   2.876  -1.291  0.00  0.00    -0.043 C 
BRANCH  27  28
ATOM     28  C   UNL     1      -4.650   2.144  -1.203  0.00  0.00    -0.064 A 
ATOM     29  C   UNL     1      -5.069   1.347  -2.252  0.00  0.00    +0.002 A 
ATOM     30  C   UNL     1      -6.273   0.673  -2.169  0.00  0.00    +0.000 A 
ATOM     31  C   UNL     1      -7.062   0.803  -1.042  0.00  0.00    +0.000 A 
ATOM     32  C   UNL     1      -6.645   1.604   0.005  0.00  0.00    +0.000 A 
ATOM     33  C   UNL     1      -5.439   2.275  -0.076  0.00  0.00    +0.002 A 
ENDBRANCH  27  28
ENDBRANCH  25  27
ENDBRANCH   1  18
TORSDOF 6
