REMARK  Name = ZINC17315955
REMARK  13 active torsions:
REMARK  status: ('A' for Active; 'I' for Inactive)
REMARK    1  A    between atoms: C_1  and  C_2
REMARK    2  A    between atoms: C_2  and  O_3
REMARK    3  A    between atoms: O_3  and  C_4
REMARK    4  A    between atoms: C_9  and  N_10
REMARK    5  A    between atoms: C_11  and  C_13
REMARK    6  A    between atoms: C_13  and  N_14
REMARK    7  A    between atoms: C_22  and  C_27
REMARK    8  A    between atoms: C_29  and  O_37
REMARK    9  A    between atoms: C_30  and  O_35
REMARK   10  A    between atoms: C_31  and  O_33
REMARK   11  A    between atoms: O_33  and  C_34
REMARK   12  A    between atoms: O_35  and  C_36
REMARK   13  A    between atoms: O_37  and  C_38
REMARK                            x       y       z     vdW  Elec       q    Type
REMARK                         _______ _______ _______ _____ _____    ______ ____
ROOT
ATOM      1  N   UNL     1       0.613  -2.940   7.386  0.00  0.00    -0.261 N 
ATOM      2  C   UNL     1       0.964  -2.415   8.639  0.00  0.00    +0.050 A 
ATOM      3  C   UNL     1       1.455  -3.240   9.638  0.00  0.00    +0.024 A 
ATOM      4  C   UNL     1       1.798  -2.701  10.865  0.00  0.00    +0.002 A 
ATOM      5  C   UNL     1       1.653  -1.346  11.098  0.00  0.00    +0.001 A 
ATOM      6  C   UNL     1       1.163  -0.516  10.106  0.00  0.00    +0.016 A 
ATOM      7  C   UNL     1       0.816  -1.051   8.876  0.00  0.00    +0.030 A 
ATOM      8  S   UNL     1       0.181  -0.019   7.594  0.00  0.00    -0.115 S 
ATOM      9  C   UNL     1       1.561   0.065   6.404  0.00  0.00    +0.090 C 
ATOM     10  C   UNL     1       2.167  -1.346   6.305  0.00  0.00    +0.115 C 
ATOM     11  C   UNL     1       1.083  -2.381   6.264  0.00  0.00    +0.222 C 
ATOM     12  O   UNL     1       0.622  -2.718   5.194  0.00  0.00    -0.275 OA
ENDROOT
BRANCH   9  13
ATOM     13  C   UNL     1       1.050   0.499   5.055  0.00  0.00    -0.027 A 
ATOM     14  C   UNL     1       1.710   1.490   4.353  0.00  0.00    +0.054 A 
ATOM     15  C   UNL     1       1.242   1.892   3.112  0.00  0.00    +0.165 A 
ATOM     16  C   UNL     1       0.107   1.298   2.573  0.00  0.00    +0.204 A 
ATOM     17  C   UNL     1      -0.557   0.305   3.284  0.00  0.00    +0.165 A 
ATOM     18  C   UNL     1      -0.079  -0.095   4.522  0.00  0.00    +0.054 A 
BRANCH  17  19
ATOM     19  O   UNL     1      -1.671  -0.276   2.763  0.00  0.00    -0.491 OA
ATOM     20  C   UNL     1      -2.302  -1.288   3.549  0.00  0.00    +0.277 C 
ENDBRANCH  17  19
BRANCH  16  21
ATOM     21  O   UNL     1      -0.355   1.690   1.355  0.00  0.00    -0.488 OA
ATOM     22  C   UNL     1       0.152   0.996   0.213  0.00  0.00    +0.277 C 
ENDBRANCH  16  21
BRANCH  15  23
ATOM     23  O   UNL     1       1.893   2.867   2.422  0.00  0.00    -0.491 OA
ATOM     24  C   UNL     1       3.052   3.433   3.037  0.00  0.00    +0.277 C 
ENDBRANCH  15  23
ENDBRANCH   9  13
BRANCH   1  25
ATOM     25  C   UNL     1      -0.273  -4.105   7.305  0.00  0.00    +0.209 C 
BRANCH  25  27
ATOM     26  N   UNL     1      -0.052  -6.568   7.256  0.00  0.00    -0.281 N 
ATOM     27  C   UNL     1       0.553  -5.365   7.322  0.00  0.00    +0.235 C 
ATOM     28  O   UNL     1       1.762  -5.297   7.394  0.00  0.00    -0.274 OA
ATOM     29  H   UNL     1      -1.013  -6.622   7.137  0.00  0.00    +0.155 HD
BRANCH  26  35
ATOM     30  C   UNL     1       0.132  -8.903   7.868  0.00  0.00    +0.142 A 
ATOM     31  C   UNL     1       0.888 -10.060   7.968  0.00  0.00    +0.047 A 
ATOM     32  C   UNL     1       2.211 -10.059   7.566  0.00  0.00    +0.004 A 
ATOM     33  C   UNL     1       2.783  -8.905   7.062  0.00  0.00    +0.002 A 
ATOM     34  C   UNL     1       2.034  -7.749   6.953  0.00  0.00    +0.027 A 
ATOM     35  C   UNL     1       0.708  -7.741   7.360  0.00  0.00    +0.076 A 
BRANCH  30  36
ATOM     36  O   UNL     1      -1.169  -8.902   8.264  0.00  0.00    -0.490 OA
BRANCH  36  38
ATOM     37  C   UNL     1      -3.159  -9.936   9.165  0.00  0.00    +0.048 C 
ATOM     38  C   UNL     1      -1.692 -10.130   8.774  0.00  0.00    +0.226 C 
ENDBRANCH  36  38
ENDBRANCH  30  36
ENDBRANCH  26  35
ENDBRANCH  25  27
ENDBRANCH   1  25
TORSDOF 9
