REMARK  Name = ZINC20764438
REMARK  10 active torsions:
REMARK  status: ('A' for Active; 'I' for Inactive)
REMARK    1  A    between atoms: C_1  and  C_2
REMARK    2  A    between atoms: C_2  and  O_3
REMARK    3  A    between atoms: O_3  and  C_4
REMARK    4  A    between atoms: C_8  and  C_11
REMARK    5  A    between atoms: C_9  and  O_10
REMARK    6  A    between atoms: C_14  and  C_29
REMARK    7  A    between atoms: C_16  and  C_19
REMARK    8  A    between atoms: C_22  and  C_25
REMARK    9  A    between atoms: C_25  and  O_27
REMARK   10  A    between atoms: O_27  and  C_28
REMARK                            x       y       z     vdW  Elec       q    Type
REMARK                         _______ _______ _______ _____ _____    ______ ____
ROOT
ATOM      1  C   UNL     1       2.027   4.995  -2.124  0.00  0.00    -0.028 C 
ATOM      2  C   UNL     1       3.327   4.462  -2.735  0.00  0.00    +0.044 C 
ATOM      3  C   UNL     1       3.868   3.353  -1.876  0.00  0.00    +0.040 C 
ATOM      4  N   UNL     1       3.473   3.142  -0.677  0.00  0.00    -0.299 NA
ATOM      5  C   UNL     1       2.452   3.933  -0.001  0.00  0.00    +0.081 C 
ATOM      6  N   UNL     1       2.252   5.216  -0.685  0.00  0.00    +0.401 N 
ATOM      7  H   UNL     1       3.146   5.842  -0.546  0.00  0.00    -0.081 HD
ATOM      8  H   UNL     1       1.378   5.723  -0.251  0.00  0.00    -0.081 HD
ENDROOT
BRANCH   3   9
ATOM      9  C   UNL     1       4.903   2.466  -2.442  0.00  0.00    -0.003 A 
ATOM     10  C   UNL     1       5.356   2.661  -3.748  0.00  0.00    +0.010 A 
ATOM     11  C   UNL     1       6.327   1.832  -4.269  0.00  0.00    +0.002 A 
ATOM     12  C   UNL     1       6.845   0.802  -3.505  0.00  0.00    +0.015 A 
ATOM     13  C   UNL     1       6.397   0.599  -2.211  0.00  0.00    +0.018 A 
ATOM     14  C   UNL     1       5.429   1.425  -1.675  0.00  0.00    +0.025 A 
ATOM     15 BR   UNL     1       7.112  -0.813  -1.175  0.00  0.00    -0.050 Br
ENDBRANCH   3   9
BRANCH   1  20
ATOM     16  C   UNL     1       0.559   7.489  -4.564  0.00  0.00    +0.162 A 
ATOM     17  C   UNL     1       0.956   8.689  -3.996  0.00  0.00    +0.049 A 
ATOM     18  C   UNL     1       1.697   8.690  -2.829  0.00  0.00    +0.004 A 
ATOM     19  C   UNL     1       2.037   7.496  -2.221  0.00  0.00    +0.006 A 
ATOM     20  C   UNL     1       1.649   6.295  -2.785  0.00  0.00    -0.016 A 
ATOM     21  C   UNL     1       0.907   6.287  -3.956  0.00  0.00    +0.160 A 
BRANCH  21  22
ATOM     22  O   UNL     1       0.519   5.106  -4.508  0.00  0.00    -0.503 OA
ATOM     23  H   UNL     1       0.794   4.157  -4.027  0.00  0.00    +0.292 HD
ENDBRANCH  21  22
BRANCH  16  24
ATOM     24  O   UNL     1      -0.169   7.487  -5.712  0.00  0.00    -0.489 OA
BRANCH  24  26
ATOM     25  C   UNL     1      -1.305   8.555  -7.559  0.00  0.00    +0.048 C 
ATOM     26  C   UNL     1      -0.489   8.758  -6.280  0.00  0.00    +0.226 C 
ENDBRANCH  24  26
ENDBRANCH  16  24
ENDBRANCH   1  20
BRANCH   5  27
ATOM     27  C   UNL     1       1.155   3.167   0.008  0.00  0.00    -0.040 A 
ATOM     28  C   UNL     1       1.172   1.783   0.000  0.00  0.00    +0.004 A 
ATOM     29  C   UNL     1      -0.013   1.076   0.008  0.00  0.00    +0.015 A 
ATOM     30  C   UNL     1      -1.230   1.759   0.017  0.00  0.00    +0.059 A 
ATOM     31  C   UNL     1      -1.240   3.155   0.030  0.00  0.00    +0.015 A 
ATOM     32  C   UNL     1      -0.048   3.850   0.023  0.00  0.00    +0.004 A 
BRANCH  30  33
ATOM     33  C   UNL     1      -2.502   1.008   0.020  0.00  0.00    +0.339 C 
ATOM     34  O   UNL     1      -2.491  -0.206   0.013  0.00  0.00    -0.245 OA
BRANCH  33  35
ATOM     35  O   UNL     1      -3.675   1.670   0.029  0.00  0.00    -0.464 OA
ATOM     36  C   UNL     1      -4.886   0.868   0.031  0.00  0.00    +0.280 C 
ENDBRANCH  33  35
ENDBRANCH  30  33
ENDBRANCH   5  27
TORSDOF 8
