REMARK  Name = ZINC59845319
REMARK  8 active torsions:
REMARK  status: ('A' for Active; 'I' for Inactive)
REMARK    1  A    between atoms: C_1  and  C_2
REMARK    2  A    between atoms: C_2  and  C_4
REMARK    3  A    between atoms: C_2  and  S_11
REMARK    4  A    between atoms: N_6  and  N_7
REMARK    5  A    between atoms: C_8  and  C_10
REMARK    6  A    between atoms: S_11  and  C_12
REMARK    7  A    between atoms: C_15  and  C_18
REMARK    8  A    between atoms: N_16  and  N_17
REMARK                            x       y       z     vdW  Elec       q    Type
REMARK                         _______ _______ _______ _____ _____    ______ ____
ROOT
ATOM      1  C   UNL     1      -2.334  -0.160  -1.565  0.00  0.00    +0.209 A 
ATOM      2  N   UNL     1      -1.763   0.670  -2.409  0.00  0.00    -0.121 NA
ATOM      3  N   UNL     1      -2.563   0.932  -3.380  0.00  0.00    -0.127 NA
ATOM      4  C   UNL     1      -3.694   0.286  -3.216  0.00  0.00    +0.183 A 
ATOM      5  N   UNL     1      -3.580  -0.437  -2.051  0.00  0.00    -0.224 N 
ENDROOT
BRANCH   4   6
ATOM      6  C   UNL     1      -4.866   0.325  -4.116  0.00  0.00    +0.035 A 
ATOM      7  C   UNL     1      -6.145   0.521  -3.593  0.00  0.00    +0.013 A 
ATOM      8  C   UNL     1      -7.235   0.556  -4.438  0.00  0.00    +0.001 A 
ATOM      9  C   UNL     1      -7.062   0.398  -5.802  0.00  0.00    +0.001 A 
ATOM     10  C   UNL     1      -5.798   0.203  -6.327  0.00  0.00    +0.016 A 
ATOM     11  C   UNL     1      -4.698   0.171  -5.494  0.00  0.00    +0.029 A 
ATOM     12 BR   UNL     1      -2.969  -0.088  -6.215  0.00  0.00    -0.050 Br
ENDBRANCH   4   6
BRANCH   5  13
ATOM     13  N   UNL     1      -4.519  -1.260  -1.496  0.00  0.00    -0.295 N 
ATOM     14  H   UNL     1      -5.170  -0.736  -0.932  0.00  0.00    +0.163 HD
ATOM     15  H   UNL     1      -5.000  -1.790  -2.206  0.00  0.00    +0.163 HD
ENDBRANCH   5  13
BRANCH   1  16
ATOM     16  S   UNL     1      -1.623  -0.800  -0.085  0.00  0.00    -0.072 S 
BRANCH  16  18
ATOM     17  C   UNL     1      -0.116   1.471   0.138  0.00  0.00    +0.029 C 
ATOM     18  C   UNL     1       0.024  -0.043  -0.027  0.00  0.00    +0.138 C 
BRANCH  18  19
ATOM     19  C   UNL     1       0.795  -0.607   1.139  0.00  0.00    +0.242 C 
ATOM     20  O   UNL     1       0.205  -1.139   2.055  0.00  0.00    -0.273 OA
ATOM     21  N   UNL     1       2.139  -0.519   1.164  0.00  0.00    -0.233 N 
ATOM     22  H   UNL     1       2.611  -0.093   0.431  0.00  0.00    +0.173 HD
BRANCH  21  23
ATOM     23  N   UNL     1       2.856  -1.043   2.248  0.00  0.00    -0.235 N 
ATOM     24  C   UNL     1       4.200  -0.956   2.273  0.00  0.00    +0.226 C 
ATOM     25  O   UNL     1       4.790  -0.423   1.356  0.00  0.00    -0.275 OA
ATOM     26  C   UNL     1       4.971  -1.519   3.439  0.00  0.00    +0.110 C 
ATOM     27  H   UNL     1       2.384  -1.469   2.981  0.00  0.00    +0.173 HD
ENDBRANCH  21  23
ENDBRANCH  18  19
ENDBRANCH  16  18
ENDBRANCH   1  16
TORSDOF 6
