REMARK  Name = ZINC41025658
REMARK  9 active torsions:
REMARK  status: ('A' for Active; 'I' for Inactive)
REMARK    1  A    between atoms: C_1  and  O_2
REMARK    2  A    between atoms: O_2  and  C_3
REMARK    3  A    between atoms: C_6  and  C_11
REMARK    4  A    between atoms: C_8  and  O_9
REMARK    5  A    between atoms: O_9  and  C_10
REMARK    6  A    between atoms: C_13  and  N_22
REMARK    7  A    between atoms: N_14  and  C_16
REMARK    8  A    between atoms: C_23  and  C_25
REMARK    9  A    between atoms: C_27  and  C_30
REMARK                            x       y       z     vdW  Elec       q    Type
REMARK                         _______ _______ _______ _____ _____    ______ ____
ROOT
ATOM      1  C   UNL     1       2.582  -2.539   4.300  0.00  0.00    +0.095 A 
ATOM      2  C   UNL     1       3.113  -1.898   5.435  0.00  0.00    +0.074 A 
ATOM      3  C   UNL     1       3.650  -2.853   6.238  0.00  0.00    +0.129 A 
ATOM      4  N   UNL     1       3.463  -4.058   5.630  0.00  0.00    -0.218 N 
ATOM      5  N   UNL     1       2.789  -3.833   4.423  0.00  0.00    -0.165 NA
ENDROOT
BRANCH   1   9
ATOM      6  C   UNL     1       0.626  -0.619   1.042  0.00  0.00    +0.162 A 
ATOM      7  C   UNL     1       1.202   0.140   2.050  0.00  0.00    +0.050 A 
ATOM      8  C   UNL     1       1.836  -0.480   3.107  0.00  0.00    +0.014 A 
ATOM      9  C   UNL     1       1.899  -1.871   3.164  0.00  0.00    +0.006 A 
ATOM     10  C   UNL     1       1.321  -2.635   2.151  0.00  0.00    +0.059 A 
ATOM     11  C   UNL     1       0.681  -2.009   1.096  0.00  0.00    +0.162 A 
BRANCH   6  13
ATOM     12  C   UNL     1      -0.017   1.425   0.010  0.00  0.00    +0.277 C 
ATOM     13  O   UNL     1       0.002  -0.004   0.002  0.00  0.00    -0.491 OA
ENDBRANCH   6  13
BRANCH  11  14
ATOM     14  O   UNL     1       0.111  -2.751   0.110  0.00  0.00    -0.491 OA
ATOM     15  C   UNL     1       0.206  -4.172   0.230  0.00  0.00    +0.277 C 
ENDBRANCH  11  14
ENDBRANCH   1   9
BRANCH   4  16
ATOM     16  C   UNL     1       3.870  -5.303   6.127  0.00  0.00    +0.067 A 
ATOM     17  C   UNL     1       5.049  -5.411   6.853  0.00  0.00    +0.028 A 
ATOM     18  C   UNL     1       5.447  -6.640   7.341  0.00  0.00    +0.002 A 
ATOM     19  C   UNL     1       4.673  -7.762   7.108  0.00  0.00    +0.000 A 
ATOM     20  C   UNL     1       3.499  -7.658   6.385  0.00  0.00    +0.002 A 
ATOM     21  C   UNL     1       3.092  -6.431   5.898  0.00  0.00    +0.028 A 
ENDBRANCH   4  16
BRANCH   3  22
ATOM     22  N   UNL     1       4.279  -2.640   7.463  0.00  0.00    -0.264 N 
ATOM     23  C   UNL     1       4.396  -1.389   7.951  0.00  0.00    +0.287 C 
ATOM     24  O   UNL     1       3.953  -0.447   7.322  0.00  0.00    -0.266 OA
ATOM     25  H   UNL     1       4.632  -3.391   7.965  0.00  0.00    +0.157 HD
BRANCH  23  26
ATOM     26  C   UNL     1       5.061  -1.163   9.248  0.00  0.00    +0.222 A 
ATOM     27  C   UNL     1       5.242   0.040   9.855  0.00  0.00    +0.086 A 
ATOM     28  C   UNL     1       5.921  -0.188  11.074  0.00  0.00    +0.114 A 
ATOM     29  N   UNL     1       6.134  -1.476  11.185  0.00  0.00    -0.077 NA
ATOM     30  O   UNL     1       5.593  -2.112  10.042  0.00  0.00    -0.349 OA
BRANCH  28  31
ATOM     31  C   UNL     1       6.322   0.851  12.056  0.00  0.00    +0.004 A 
ATOM     32  C   UNL     1       6.028   2.192  11.818  0.00  0.00    +0.010 A 
ATOM     33  C   UNL     1       6.408   3.146  12.736  0.00  0.00    +0.004 A 
ATOM     34  C   UNL     1       7.081   2.785  13.898  0.00  0.00    -0.044 A 
ATOM     35  C   UNL     1       7.369   1.460  14.141  0.00  0.00    -0.044 A 
ATOM     36  C   UNL     1       6.988   0.492  13.223  0.00  0.00    +0.014 A 
ATOM     37  C   UNL     1       8.080   0.999  15.387  0.00  0.00    +0.035 C 
ATOM     38  C   UNL     1       8.791   2.169  16.063  0.00  0.00    +0.005 C 
ATOM     39  C   UNL     1       7.786   3.315  16.231  0.00  0.00    +0.005 C 
ATOM     40  C   UNL     1       7.471   3.886  14.850  0.00  0.00    +0.035 C 
ENDBRANCH  28  31
ENDBRANCH  23  26
ENDBRANCH   3  22
TORSDOF 7
