REMARK  Name = ZINC54645321
REMARK  7 active torsions:
REMARK  status: ('A' for Active; 'I' for Inactive)
REMARK    1  A    between atoms: C_1  and  C_2
REMARK    2  A    between atoms: C_7  and  C_8
REMARK    3  A    between atoms: C_7  and  C_9
REMARK    4  A    between atoms: N_12  and  C_15
REMARK    5  A    between atoms: C_15  and  C_16
REMARK    6  A    between atoms: N_18  and  C_19
REMARK    7  A    between atoms: C_20  and  C_27
REMARK                            x       y       z     vdW  Elec       q    Type
REMARK                         _______ _______ _______ _____ _____    ______ ____
ROOT
ATOM      1  C   UNL     1       0.800  -3.112  -3.272  0.00  0.00    +0.235 C 
ATOM      2  O   UNL     1      -0.378  -3.105  -2.982  0.00  0.00    -0.274 OA
ATOM      3  N   UNL     1       1.208  -3.698  -4.415  0.00  0.00    -0.278 N 
ATOM      4  H   UNL     1       2.150  -3.705  -4.647  0.00  0.00    +0.155 HD
ENDROOT
BRANCH   3   5
ATOM      5  C   UNL     1       0.283  -4.293  -5.259  0.00  0.00    +0.084 A 
ATOM      6  C   UNL     1       0.518  -4.939  -6.458  0.00  0.00    +0.068 A 
ATOM      7  C   UNL     1      -0.641  -5.485  -7.163  0.00  0.00    -0.023 A 
ATOM      8  C   UNL     1      -1.812  -5.279  -6.535  0.00  0.00    -0.004 A 
ATOM      9  S   UNL     1      -1.379  -4.398  -5.057  0.00  0.00    -0.077 S 
ATOM     10  C   UNL     1      -2.970  -5.856  -7.304  0.00  0.00    +0.043 C 
ATOM     11  C   UNL     1      -2.416  -6.088  -8.727  0.00  0.00    +0.010 C 
ATOM     12  C   UNL     1      -0.907  -6.254  -8.456  0.00  0.00    +0.037 C 
BRANCH   6  13
ATOM     13  C   UNL     1       1.873  -5.072  -7.000  0.00  0.00    +0.244 C 
ATOM     14  O   UNL     1       2.553  -6.040  -6.711  0.00  0.00    -0.270 OA
ATOM     15  N   UNL     1       2.367  -4.123  -7.820  0.00  0.00    -0.325 N 
ATOM     16  H   UNL     1       1.826  -3.352  -8.050  0.00  0.00    +0.145 HD
ATOM     17  H   UNL     1       3.264  -4.210  -8.179  0.00  0.00    +0.145 HD
ENDBRANCH   6  13
ENDBRANCH   3   5
BRANCH   1  18
ATOM     18  C   UNL     1       1.806  -2.467  -2.354  0.00  0.00    +0.212 C 
BRANCH  18  29
ATOM     19  C   UNL     1      -0.019   1.526   0.010  0.00  0.00    +0.021 C 
ATOM     20  C   UNL     1       0.002  -0.004   0.002  0.00  0.00    +0.051 C 
ATOM     21  C   UNL     1      -1.410  -0.632   0.090  0.00  0.00    +0.017 C 
ATOM     22  C   UNL     1      -1.232  -1.978   0.818  0.00  0.00    +0.014 C 
ATOM     23  C   UNL     1       0.279  -2.095   1.133  0.00  0.00    +0.082 C 
ATOM     24  C   UNL     1       0.737  -0.613   1.230  0.00  0.00    -0.010 C 
ATOM     25  C   UNL     1       0.259   0.029   2.534  0.00  0.00    +0.012 C 
ATOM     26  C   UNL     1       2.255  -0.492   1.081  0.00  0.00    +0.012 C 
ATOM     27  C   UNL     1       0.943  -2.678  -0.102  0.00  0.00    +0.226 C 
ATOM     28  O   UNL     1       1.316  -3.831  -0.107  0.00  0.00    -0.275 OA
ATOM     29  N   UNL     1       1.116  -1.905  -1.190  0.00  0.00    -0.233 N 
ATOM     30  C   UNL     1       0.688  -0.582  -1.223  0.00  0.00    +0.229 C 
ATOM     31  O   UNL     1       0.821   0.092  -2.222  0.00  0.00    -0.275 OA
ENDBRANCH  18  29
ENDBRANCH   1  18
TORSDOF 4
