REMARK  Name = ZINC42015250
REMARK  4 active torsions:
REMARK  status: ('A' for Active; 'I' for Inactive)
REMARK    1  A    between atoms: C_3  and  N_9
REMARK    2  A    between atoms: C_10  and  C_14
REMARK    3  A    between atoms: C_16  and  N_21
REMARK    4  A    between atoms: C_18  and  N_20
REMARK                            x       y       z     vdW  Elec       q    Type
REMARK                         _______ _______ _______ _____ _____    ______ ____
ROOT
ATOM      1  N   UNL     1       3.606   2.122  -0.202  0.00  0.00    -0.190 N 
ATOM      2  C   UNL     1       4.851   1.627   0.053  0.00  0.00    +0.187 A 
ATOM      3  N   UNL     1       5.654   2.662   0.186  0.00  0.00    -0.108 NA
ATOM      4  N   UNL     1       5.004   3.759   0.034  0.00  0.00    -0.022 NA
ATOM      5  N   UNL     1       3.762   3.519  -0.209  0.00  0.00    -0.039 NA
ENDROOT
BRANCH   1   8
ATOM      6  C   UNL     1       1.206  -0.270  -1.637  0.00  0.00    +0.017 A 
ATOM      7  C   UNL     1       2.369   0.446  -1.428  0.00  0.00    +0.032 A 
ATOM      8  C   UNL     1       2.427   1.394  -0.416  0.00  0.00    +0.105 A 
ATOM      9  C   UNL     1       1.313   1.621   0.385  0.00  0.00    +0.150 A 
ATOM     10  C   UNL     1       0.151   0.901   0.171  0.00  0.00    +0.055 A 
ATOM     11  C   UNL     1       0.099  -0.043  -0.839  0.00  0.00    +0.021 A 
ATOM     12 BR   UNL     1      -1.491  -1.026  -1.130  0.00  0.00    -0.050 Br
ATOM     13  F   UNL     1       1.365   2.543   1.371  0.00  0.00    -0.203 F 
ENDBRANCH   1   8
BRANCH   2  14
ATOM     14  C   UNL     1       5.227   0.200   0.160  0.00  0.00    +0.025 A 
ATOM     15  C   UNL     1       4.249  -0.765   0.396  0.00  0.00    +0.034 A 
ATOM     16  C   UNL     1       4.605  -2.102   0.495  0.00  0.00    +0.027 A 
ATOM     17  C   UNL     1       5.934  -2.480   0.359  0.00  0.00    +0.045 A 
ATOM     18  C   UNL     1       6.911  -1.522   0.123  0.00  0.00    +0.027 A 
ATOM     19  C   UNL     1       6.560  -0.183   0.018  0.00  0.00    +0.034 A 
BRANCH  18  20
ATOM     20  N   UNL     1       8.247  -1.906  -0.013  0.00  0.00    -0.358 N 
ATOM     21  H   UNL     1       8.492  -2.842   0.058  0.00  0.00    +0.142 HD
ATOM     22  H   UNL     1       8.930  -1.237  -0.177  0.00  0.00    +0.142 HD
ENDBRANCH  18  20
BRANCH  16  23
ATOM     23  N   UNL     1       3.625  -3.069   0.733  0.00  0.00    -0.358 N 
ATOM     24  H   UNL     1       2.697  -2.805   0.829  0.00  0.00    +0.142 HD
ATOM     25  H   UNL     1       3.873  -4.004   0.803  0.00  0.00    +0.142 HD
ENDBRANCH  16  23
ENDBRANCH   2  14
TORSDOF 4
