REMARK  Name = ZINC22567569
REMARK  13 active torsions:
REMARK  status: ('A' for Active; 'I' for Inactive)
REMARK    1  A    between atoms: C_1  and  C_2
REMARK    2  A    between atoms: C_7  and  C_8
REMARK    3  A    between atoms: C_8  and  N_9
REMARK    4  A    between atoms: N_9  and  C_10
REMARK    5  A    between atoms: N_9  and  C_20
REMARK    6  A    between atoms: C_12  and  C_18
REMARK    7  A    between atoms: C_12  and  C_19
REMARK    8  A    between atoms: C_14  and  C_16
REMARK    9  A    between atoms: C_14  and  C_17
REMARK   10  A    between atoms: C_20  and  N_22
REMARK   11  A    between atoms: N_22  and  C_23
REMARK   12  A    between atoms: C_28  and  O_29
REMARK   13  A    between atoms: O_29  and  C_30
REMARK                            x       y       z     vdW  Elec       q    Type
REMARK                         _______ _______ _______ _____ _____    ______ ____
ROOT
ATOM      1  N   UNL     1       0.404   5.040  -1.234  0.00  0.00    -0.305 N 
ENDROOT
BRANCH   1   2
ATOM      2  C   UNL     1       0.410   3.572  -1.224  0.00  0.00    +0.073 C 
ATOM      3  C   UNL     1       1.279   3.081  -0.066  0.00  0.00    +0.009 C 
ATOM      4  C   UNL     1       1.288   1.555  -0.019  0.00  0.00    -0.072 C 
ATOM      5  N   UNL     1      -0.040   0.981  -0.080  0.00  0.00    +0.386 N 
ATOM      6  C   UNL     1      -1.036   1.538  -0.972  0.00  0.00    -0.072 C 
ATOM      7  C   UNL     1      -1.015   3.064  -1.010  0.00  0.00    +0.009 C 
ATOM      8  C   UNL     1      -0.876   0.987  -2.394  0.00  0.00    -0.010 C 
ATOM      9  C   UNL     1      -2.430   1.104  -0.468  0.00  0.00    -0.010 C 
ATOM     10  C   UNL     1       1.934   1.134   1.320  0.00  0.00    -0.010 C 
ATOM     11  C   UNL     1       2.179   1.012  -1.143  0.00  0.00    -0.010 C 
ATOM     12  H   UNL     1       0.030  -0.073  -0.390  0.00  0.00    -0.084 HD
ATOM     13  H   UNL     1      -0.512   1.041   0.911  0.00  0.00    -0.084 HD
ENDBRANCH   1   2
BRANCH   1  14
ATOM     14  C   UNL     1      -0.097   5.719  -0.183  0.00  0.00    +0.138 C 
ATOM     15  S   UNL     1      -0.608   4.876   1.216  0.00  0.00    -0.018 S 
BRANCH  14  16
ATOM     16  N   UNL     1      -0.196   7.062  -0.234  0.00  0.00    -0.294 N 
ATOM     17  H   UNL     1      -1.165   7.535  -0.453  0.00  0.00    +0.154 HD
BRANCH  16  18
ATOM     18  C   UNL     1       0.935   7.857  -0.006  0.00  0.00    +0.076 A 
ATOM     19  C   UNL     1       2.176   7.264   0.176  0.00  0.00    +0.047 A 
ATOM     20  C   UNL     1       3.292   8.051   0.400  0.00  0.00    +0.043 A 
ATOM     21  C   UNL     1       3.172   9.429   0.443  0.00  0.00    +0.024 A 
ATOM     22  C   UNL     1       1.938  10.026   0.262  0.00  0.00    +0.049 A 
ATOM     23  C   UNL     1       0.818   9.245   0.032  0.00  0.00    +0.141 A 
ATOM     24 CL   UNL     1       4.844   7.308   0.627  0.00  0.00    -0.083 Cl
BRANCH  23  25
ATOM     25  O   UNL     1      -0.396   9.831  -0.151  0.00  0.00    -0.493 OA
ATOM     26  C   UNL     1      -0.441  11.258  -0.099  0.00  0.00    +0.277 C 
ENDBRANCH  23  25
ENDBRANCH  16  18
ENDBRANCH  14  16
ENDBRANCH   1  14
BRANCH   1  27
ATOM     27  C   UNL     1       0.941   5.767  -2.387  0.00  0.00    +0.142 C 
BRANCH  27  34
ATOM     28  C   UNL     1       1.522   7.024  -4.923  0.00  0.00    +0.044 C 
ATOM     29  C   UNL     1       0.096   6.714  -4.544  0.00  0.00    -0.046 A 
ATOM     30  C   UNL     1      -0.933   7.028  -5.412  0.00  0.00    +0.003 A 
ATOM     31  C   UNL     1      -2.241   6.748  -5.062  0.00  0.00    +0.000 A 
ATOM     32  C   UNL     1      -2.519   6.152  -3.846  0.00  0.00    +0.000 A 
ATOM     33  C   UNL     1      -1.490   5.834  -2.981  0.00  0.00    +0.005 A 
ATOM     34  C   UNL     1      -0.181   6.113  -3.330  0.00  0.00    -0.027 A 
ENDBRANCH  27  34
ENDBRANCH   1  27
TORSDOF 7
