REMARK  Name = ZINC20358910
REMARK  10 active torsions:
REMARK  status: ('A' for Active; 'I' for Inactive)
REMARK    1  A    between atoms: C_1  and  N_2
REMARK    2  A    between atoms: N_5  and  C_8
REMARK    3  A    between atoms: C_8  and  C_9
REMARK    4  A    between atoms: C_10  and  O_35
REMARK    5  A    between atoms: C_16  and  C_31
REMARK    6  A    between atoms: C_17  and  O_20
REMARK    7  A    between atoms: O_20  and  C_21
REMARK    8  A    between atoms: C_24  and  C_27
REMARK    9  A    between atoms: C_27  and  O_29
REMARK   10  A    between atoms: O_29  and  C_30
REMARK                            x       y       z     vdW  Elec       q    Type
REMARK                         _______ _______ _______ _____ _____    ______ ____
ROOT
ATOM      1  C   UNL     1       2.073  -4.603   0.845  0.00  0.00    +0.051 A 
ATOM      2  C   UNL     1       3.396  -4.765   0.469  0.00  0.00    +0.125 A 
ATOM      3  C   UNL     1       4.354  -5.160   1.400  0.00  0.00    +0.046 A 
ATOM      4  C   UNL     1       4.001  -5.393   2.699  0.00  0.00    +0.019 A 
ATOM      5  C   UNL     1       2.672  -5.233   3.094  0.00  0.00    +0.068 A 
ATOM      6  C   UNL     1       1.699  -4.829   2.162  0.00  0.00    +0.147 A 
ATOM      7  O   UNL     1       0.419  -4.673   2.556  0.00  0.00    -0.447 OA
ATOM      8  C   UNL     1       0.026  -4.884   3.818  0.00  0.00    +0.254 A 
ATOM      9  C   UNL     1       0.875  -5.267   4.792  0.00  0.00    +0.222 A 
ATOM     10  C   UNL     1       2.250  -5.474   4.484  0.00  0.00    +0.235 A 
ATOM     11  O   UNL     1       3.047  -5.822   5.339  0.00  0.00    -0.283 OA
ENDROOT
BRANCH   8  12
ATOM     12  C   UNL     1      -1.427  -4.685   4.165  0.00  0.00    +0.454 C 
ATOM     13  F   UNL     1      -1.651  -5.084   5.487  0.00  0.00    -0.163 F 
ATOM     14  F   UNL     1      -1.759  -3.333   4.024  0.00  0.00    -0.163 F 
ATOM     15  F   UNL     1      -2.221  -5.452   3.306  0.00  0.00    -0.163 F 
ENDBRANCH   8  12
BRANCH   2  16
ATOM     16  O   UNL     1       3.763  -4.538  -0.818  0.00  0.00    -0.506 OA
ATOM     17  H   UNL     1       4.028  -3.625  -0.996  0.00  0.00    +0.292 HD
ENDBRANCH   2  16
BRANCH   1  18
ATOM     18  C   UNL     1       1.045  -4.175  -0.171  0.00  0.00    +0.126 C 
BRANCH  18  23
ATOM     19  C   UNL     1      -0.434   1.261  -0.140  0.00  0.00    -0.096 C 
ATOM     20  N   UNL     1      -0.409  -0.207  -0.104  0.00  0.00    +0.379 N 
ATOM     21  C   UNL     1       0.146  -0.718  -1.365  0.00  0.00    -0.064 C 
ATOM     22  C   UNL     1       0.154  -2.248  -1.335  0.00  0.00    +0.066 C 
ATOM     23  N   UNL     1       0.966  -2.709  -0.200  0.00  0.00    -0.301 NA
ATOM     24  C   UNL     1       0.437  -2.185   1.067  0.00  0.00    +0.066 C 
ATOM     25  C   UNL     1       0.426  -0.655   1.018  0.00  0.00    -0.064 C 
ATOM     26  H   UNL     1      -1.349  -0.556   0.015  0.00  0.00    -0.082 HD
ENDBRANCH  18  23
ENDBRANCH   1  18
BRANCH   9  27
ATOM     27  O   UNL     1       0.420  -5.466   6.059  0.00  0.00    -0.448 OA
BRANCH  27  28
ATOM     28  C   UNL     1       0.846  -4.620   7.030  0.00  0.00    +0.129 A 
ATOM     29  C   UNL     1       1.625  -3.517   6.696  0.00  0.00    +0.047 A 
ATOM     30  C   UNL     1       2.059  -2.656   7.677  0.00  0.00    +0.018 A 
ATOM     31  C   UNL     1       1.717  -2.891   9.012  0.00  0.00    +0.059 A 
ATOM     32  C   UNL     1       0.934  -4.000   9.344  0.00  0.00    +0.018 A 
ATOM     33  C   UNL     1       0.498  -4.854   8.356  0.00  0.00    +0.047 A 
BRANCH  31  34
ATOM     34  C   UNL     1       2.181  -1.971  10.067  0.00  0.00    +0.339 C 
ATOM     35  O   UNL     1       2.862  -1.007   9.777  0.00  0.00    -0.245 OA
BRANCH  34  36
ATOM     36  O   UNL     1       1.850  -2.199  11.353  0.00  0.00    -0.464 OA
ATOM     37  C   UNL     1       2.333  -1.267  12.323  0.00  0.00    +0.280 C 
ENDBRANCH  34  36
ENDBRANCH  31  34
ENDBRANCH  27  28
ENDBRANCH   9  27
TORSDOF 8
