REMARK  Name = ZINC04221599
REMARK  12 active torsions:
REMARK  status: ('A' for Active; 'I' for Inactive)
REMARK    1  A    between atoms: C_1  and  C_2
REMARK    2  A    between atoms: C_2  and  C_4
REMARK    3  A    between atoms: C_2  and  N_50
REMARK    4  A    between atoms: N_6  and  C_7
REMARK    5  A    between atoms: C_10  and  C_18
REMARK    6  A    between atoms: C_12  and  O_17
REMARK    7  A    between atoms: C_14  and  O_16
REMARK    8  A    between atoms: N_20  and  C_21
REMARK    9  A    between atoms: C_21  and  C_23
REMARK   10  A    between atoms: C_21  and  C_27
REMARK   11  A    between atoms: C_23  and  C_24
REMARK   12  A    between atoms: C_30  and  N_50
REMARK                            x       y       z     vdW  Elec       q    Type
REMARK                         _______ _______ _______ _____ _____    ______ ____
ROOT
ATOM      1  C   UNL     1      -4.603   1.863  -1.334  0.00  0.00    +0.127 C 
ATOM      2  C   UNL     1      -5.140   0.495  -1.638  0.00  0.00    +0.006 C 
ATOM      3  C   UNL     1      -5.867   0.213  -2.698  0.00  0.00    +0.015 C 
ATOM      4  C   UNL     1      -6.260   1.226  -3.734  0.00  0.00    +0.074 C 
ATOM      5  C   UNL     1      -5.372   2.467  -3.620  0.00  0.00    +0.149 C 
ATOM      6  C   UNL     1      -5.350   2.917  -2.154  0.00  0.00    +0.167 C 
ENDROOT
BRANCH   1   9
ATOM      7  C   UNL     1      -2.262   1.479  -0.777  0.00  0.00    +0.199 C 
ATOM      8  O   UNL     1      -2.619   1.052   0.301  0.00  0.00    -0.278 OA
ATOM      9  N   UNL     1      -3.177   1.910  -1.667  0.00  0.00    -0.308 N 
ATOM     10  H   UNL     1      -2.891   2.252  -2.529  0.00  0.00    +0.149 HD
BRANCH   7  12
ATOM     11  C   UNL     1      -0.534   0.673  -2.362  0.00  0.00    -0.004 C 
ATOM     12  C   UNL     1      -0.795   1.527  -1.120  0.00  0.00    +0.012 C 
BRANCH  12  14
ATOM     13  C   UNL     1       1.353   1.550  -0.003  0.00  0.00    -0.099 C 
ATOM     14  N   UNL     1      -0.015   0.998   0.015  0.00  0.00    +0.385 N 
ATOM     15  H   UNL     1       0.032  -0.025  -0.054  0.00  0.00    -0.085 HD
ATOM     16  H   UNL     1      -0.475   1.261   0.894  0.00  0.00    -0.085 HD
ENDBRANCH  12  14
ENDBRANCH   7  12
ENDBRANCH   1   9
BRANCH   3  17
ATOM     17  C   UNL     1      -6.321  -1.174  -2.878  0.00  0.00    +0.241 C 
ATOM     18  O   UNL     1      -6.022  -2.022  -2.059  0.00  0.00    -0.271 OA
ATOM     19  N   UNL     1      -7.067  -1.505  -3.950  0.00  0.00    -0.300 N 
ATOM     20  H   UNL     1      -7.305  -0.829  -4.603  0.00  0.00    +0.150 HD
BRANCH  19  21
ATOM     21  C   UNL     1      -7.519  -2.887  -4.130  0.00  0.00    +0.168 C 
BRANCH  21  22
ATOM     22  C   UNL     1      -8.794  -3.103  -3.356  0.00  0.00    +0.231 C 
ATOM     23  O   UNL     1      -9.278  -2.192  -2.718  0.00  0.00    -0.274 OA
ATOM     24  N   UNL     1      -9.397  -4.309  -3.374  0.00  0.00    -0.328 N 
ATOM     25  H   UNL     1      -9.010  -5.037  -3.884  0.00  0.00    +0.145 HD
ATOM     26  H   UNL     1     -10.218  -4.447  -2.876  0.00  0.00    +0.145 HD
ENDBRANCH  21  22
BRANCH  21  27
ATOM     27  C   UNL     1      -7.772  -3.152  -5.615  0.00  0.00    +0.127 C 
BRANCH  27  28
ATOM     28  C   UNL     1      -6.472  -3.057  -6.371  0.00  0.00    +0.213 C 
ATOM     29  O   UNL     1      -5.444  -2.802  -5.780  0.00  0.00    -0.276 OA
ATOM     30  N   UNL     1      -6.451  -3.255  -7.704  0.00  0.00    -0.329 N 
ATOM     31  H   UNL     1      -7.273  -3.459  -8.177  0.00  0.00    +0.145 HD
ATOM     32  H   UNL     1      -5.614  -3.193  -8.191  0.00  0.00    +0.145 HD
ENDBRANCH  27  28
ENDBRANCH  21  27
ENDBRANCH  19  21
ENDBRANCH   3  17
BRANCH   6  33
ATOM     33  O   UNL     1      -4.678   4.174  -2.047  0.00  0.00    -0.387 OA
ATOM     34  H   UNL     1      -5.100   4.888  -2.544  0.00  0.00    +0.210 HD
ENDBRANCH   6  33
BRANCH   5  35
ATOM     35  O   UNL     1      -5.904   3.514  -4.435  0.00  0.00    -0.389 OA
ATOM     36  H   UNL     1      -5.947   3.296  -5.377  0.00  0.00    +0.210 HD
ENDBRANCH   5  35
TORSDOF 10
