REMARK  Name = ZINC45419215
REMARK  8 active torsions:
REMARK  status: ('A' for Active; 'I' for Inactive)
REMARK    1  A    between atoms: C_1  and  C_2
REMARK    2  A    between atoms: C_2  and  C_3
REMARK    3  A    between atoms: C_2  and  C_19
REMARK    4  A    between atoms: C_2  and  N_22
REMARK    5  A    between atoms: C_3  and  C_4
REMARK    6  A    between atoms: C_4  and  C_5
REMARK    7  A    between atoms: C_5  and  C_6
REMARK    8  A    between atoms: C_6  and  N_7
REMARK                            x       y       z     vdW  Elec       q    Type
REMARK                         _______ _______ _______ _____ _____    ______ ____
ROOT
ATOM      1  C   UNL     1       0.698  -0.630   3.737  0.00  0.00    -0.019 C 
ENDROOT
BRANCH   1   2
ATOM      2  C   UNL     1      -0.042  -0.124   2.497  0.00  0.00    -0.003 C 
BRANCH   2   3
ATOM      3  C   UNL     1       0.742  -0.511   1.242  0.00  0.00    -0.002 C 
BRANCH   3   5
ATOM      4  C   UNL     1      -0.019   1.526   0.010  0.00  0.00    +0.001 C 
ATOM      5  C   UNL     1       0.002  -0.004   0.002  0.00  0.00    +0.030 C 
BRANCH   5   6
ATOM      6  N   UNL     1      -1.376  -0.512   0.012  0.00  0.00    +0.389 N 
ATOM      7  H   UNL     1      -1.864  -0.178  -0.805  0.00  0.00    -0.088 HD
ATOM      8  H   UNL     1      -1.362  -1.521   0.007  0.00  0.00    -0.088 HD
ATOM      9  H   UNL     1      -1.848  -0.187   0.843  0.00  0.00    -0.088 HD
ENDBRANCH   5   6
BRANCH   5  10
ATOM     10  C   UNL     1       0.707  -0.490  -1.238  0.00  0.00    +0.345 C 
ATOM     11  O   UNL     1       1.869  -0.179  -1.440  0.00  0.00    -0.248 OA
ATOM     12  O   UNL     1       0.117  -1.195  -2.039  0.00  0.00    -0.248 OA
ENDBRANCH   5  10
ENDBRANCH   3   5
ENDBRANCH   2   3
ENDBRANCH   1   2
BRANCH   1  13
ATOM     13  C   UNL     1      -0.085  -0.243   4.992  0.00  0.00    -0.079 C 
BRANCH  13  14
ATOM     14  N   UNL     1       0.625  -0.730   6.183  0.00  0.00    +0.380 N 
ATOM     15  C   UNL     1       0.654  -2.197   6.167  0.00  0.00    -0.079 C 
ATOM     16  C   UNL     1       1.457  -2.711   7.364  0.00  0.00    -0.015 C 
ATOM     17  C   UNL     1       0.793  -2.227   8.658  0.00  0.00    -0.011 C 
ATOM     18  C   UNL     1      -0.614  -2.823   8.750  0.00  0.00    +0.004 C 
ATOM     19  C   UNL     1      -1.304  -2.318  10.018  0.00  0.00    +0.000 C 
ATOM     20  C   UNL     1      -1.406  -0.792   9.967  0.00  0.00    +0.000 C 
ATOM     21  C   UNL     1      -0.001  -0.192   9.882  0.00  0.00    +0.002 C 
ATOM     22  C   UNL     1       0.715  -0.698   8.629  0.00  0.00    -0.025 C 
ATOM     23  C   UNL     1      -0.063  -0.255   7.389  0.00  0.00    -0.075 C 
ATOM     24  H   UNL     1       1.571  -0.377   6.176  0.00  0.00    -0.082 HD
ENDBRANCH  13  14
ENDBRANCH   1  13
TORSDOF 7
