REMARK  Name = ZINC52588067
REMARK  7 active torsions:
REMARK  status: ('A' for Active; 'I' for Inactive)
REMARK    1  A    between atoms: C_1  and  C_2
REMARK    2  A    between atoms: C_7  and  C_9
REMARK    3  A    between atoms: C_7  and  N_26
REMARK    4  A    between atoms: C_9  and  N_10
REMARK    5  A    between atoms: N_13  and  N_14
REMARK    6  A    between atoms: N_26  and  C_27
REMARK    7  A    between atoms: N_26  and  C_28
REMARK                            x       y       z     vdW  Elec       q    Type
REMARK                         _______ _______ _______ _____ _____    ______ ____
ROOT
ATOM      1  N   UNL     1      -0.700  -4.079   0.966  0.00  0.00    -0.300 N 
ATOM      2  C   UNL     1      -1.874  -4.698   0.732  0.00  0.00    +0.316 C 
ATOM      3  O   UNL     1      -2.846  -4.051   0.392  0.00  0.00    -0.251 OA
ATOM      4  N   UNL     1      -1.972  -6.035   0.874  0.00  0.00    -0.219 N 
ATOM      5  H   UNL     1       0.075  -4.596   1.237  0.00  0.00    +0.150 HD
ATOM      6  H   UNL     1      -2.817  -6.480   0.706  0.00  0.00    +0.174 HD
ENDROOT
BRANCH   4   7
ATOM      7  N   UNL     1      -0.852  -6.781   1.266  0.00  0.00    -0.246 N 
ATOM      8  C   UNL     1      -0.953  -8.161   1.413  0.00  0.00    +0.158 A 
ATOM      9  C   UNL     1       0.159  -8.905   1.809  0.00  0.00    +0.050 A 
ATOM     10  C   UNL     1       0.010 -10.275   1.942  0.00  0.00    +0.053 A 
ATOM     11  C   UNL     1      -1.243 -10.826   1.673  0.00  0.00    +0.176 A 
ATOM     12  N   UNL     1      -2.241 -10.042   1.303  0.00  0.00    -0.128 NA
ATOM     13  N   UNL     1      -2.105  -8.771   1.184  0.00  0.00    -0.131 NA
ATOM     14  N   UNL     1      -1.443 -12.206   1.793  0.00  0.00    -0.220 N 
ATOM     15  C   UNL     1      -2.603 -12.870   1.557  0.00  0.00    +0.116 A 
ATOM     16  C   UNL     1      -2.377 -14.184   1.786  0.00  0.00    +0.041 A 
ATOM     17  C   UNL     1      -1.041 -14.331   2.174  0.00  0.00    +0.135 A 
ATOM     18  N   UNL     1      -0.479 -13.149   2.173  0.00  0.00    -0.173 NA
ATOM     19  H   UNL     1      -0.007  -6.335   1.435  0.00  0.00    +0.172 HD
ENDBRANCH   4   7
BRANCH   1  20
ATOM     20  C   UNL     1      -0.595  -2.626   0.811  0.00  0.00    +0.094 C 
BRANCH  20  26
ATOM     21  C   UNL     1       0.647   1.336  -0.408  0.00  0.00    +0.007 C 
ATOM     22  C   UNL     1       0.561  -0.190  -0.335  0.00  0.00    -0.015 C 
ATOM     23  C   UNL     1       1.543  -0.805  -1.333  0.00  0.00    +0.003 C 
ATOM     24  C   UNL     1       1.456  -2.331  -1.260  0.00  0.00    -0.001 C 
ATOM     25  C   UNL     1       1.810  -2.794   0.154  0.00  0.00    -0.010 C 
ATOM     26  C   UNL     1       0.828  -2.179   1.153  0.00  0.00    -0.050 C 
ATOM     27  C   UNL     1       0.915  -0.653   1.080  0.00  0.00    -0.007 C 
BRANCH  26  28
ATOM     28  N   UNL     1       1.168  -2.624   2.511  0.00  0.00    +0.381 N 
ATOM     29  C   UNL     1       2.504  -2.129   2.869  0.00  0.00    -0.096 C 
ATOM     30  C   UNL     1       0.179  -2.096   3.461  0.00  0.00    -0.096 C 
ATOM     31  H   UNL     1       1.162  -3.632   2.546  0.00  0.00    -0.082 HD
ENDBRANCH  26  28
ENDBRANCH  20  26
ENDBRANCH   1  20
TORSDOF 4
