REMARK  Name = ZINC08747904
REMARK  10 active torsions:
REMARK  status: ('A' for Active; 'I' for Inactive)
REMARK    1  A    between atoms: C_1  and  O_2
REMARK    2  A    between atoms: O_2  and  C_3
REMARK    3  A    between atoms: C_5  and  C_14
REMARK    4  A    between atoms: C_8  and  O_9
REMARK    5  A    between atoms: O_9  and  C_10
REMARK    6  A    between atoms: C_10  and  C_11
REMARK    7  A    between atoms: C_21  and  C_23
REMARK    8  A    between atoms: C_23  and  O_24
REMARK    9  A    between atoms: C_26  and  N_30
REMARK   10  A    between atoms: C_27  and  C_28
REMARK                            x       y       z     vdW  Elec       q    Type
REMARK                         _______ _______ _______ _____ _____    ______ ____
ROOT
ATOM      1  C   UNL     1       3.535   2.359  -0.018  0.00  0.00    +0.134 C 
ATOM      2  C   UNL     1       2.308   1.482  -0.012  0.00  0.00    +0.164 A 
ATOM      3  C   UNL     1       2.431   0.139  -0.021  0.00  0.00    +0.215 A 
ATOM      4  C   UNL     1       1.256  -0.666  -0.013  0.00  0.00    +0.228 A 
ATOM      5  O   UNL     1       1.325  -1.885  -0.021  0.00  0.00    -0.284 OA
ATOM      6  C   UNL     1       0.002  -0.004   0.002  0.00  0.00    +0.098 A 
ATOM      7  C   UNL     1      -0.016   1.343   0.009  0.00  0.00    +0.134 A 
ATOM      8  O   UNL     1       1.100   2.067   0.003  0.00  0.00    -0.457 OA
ATOM      9  O   UNL     1       3.644  -0.466  -0.036  0.00  0.00    -0.434 OA
ATOM     10  C   UNL     1       4.729   0.217  -0.441  0.00  0.00    +0.199 C 
ATOM     11  C   UNL     1       4.738   1.573  -0.456  0.00  0.00    +0.101 C 
ENDROOT
BRANCH   1  14
ATOM     12  C   UNL     1       3.968   4.760   2.867  0.00  0.00    +0.162 A 
ATOM     13  C   UNL     1       3.752   4.263   1.592  0.00  0.00    +0.054 A 
ATOM     14  C   UNL     1       3.770   2.898   1.369  0.00  0.00    -0.028 A 
ATOM     15  C   UNL     1       3.998   2.027   2.418  0.00  0.00    +0.008 A 
ATOM     16  C   UNL     1       4.220   2.516   3.692  0.00  0.00    +0.050 A 
ATOM     17  C   UNL     1       4.203   3.883   3.922  0.00  0.00    +0.163 A 
BRANCH  12  19
ATOM     18  C   UNL     1       3.704   6.941   1.958  0.00  0.00    +0.277 C 
ATOM     19  O   UNL     1       3.951   6.101   3.087  0.00  0.00    -0.491 OA
ENDBRANCH  12  19
BRANCH  17  20
ATOM     20  O   UNL     1       4.415   4.366   5.175  0.00  0.00    -0.479 OA
BRANCH  20  21
ATOM     21  C   UNL     1       4.649   3.407   6.209  0.00  0.00    +0.324 C 
BRANCH  21  22
ATOM     22  C   UNL     1       4.862   4.122   7.518  0.00  0.00    +0.248 C 
ATOM     23  O   UNL     1       4.817   5.334   7.562  0.00  0.00    -0.272 OA
ATOM     24  N   UNL     1       5.102   3.416   8.641  0.00  0.00    -0.327 N 
ATOM     25  H   UNL     1       5.138   2.447   8.605  0.00  0.00    +0.145 HD
ATOM     26  H   UNL     1       5.239   3.876   9.483  0.00  0.00    +0.145 HD
ENDBRANCH  21  22
ENDBRANCH  20  21
ENDBRANCH  17  20
ENDBRANCH   1  14
BRANCH  10  27
ATOM     27  N   UNL     1       5.846  -0.469  -0.846  0.00  0.00    -0.328 N 
ATOM     28  H   UNL     1       5.849  -1.440  -0.839  0.00  0.00    +0.145 HD
ATOM     29  H   UNL     1       6.633   0.015  -1.140  0.00  0.00    +0.145 HD
ENDBRANCH  10  27
BRANCH  11  30
ATOM     30  C   UNL     1       5.912   2.266  -0.896  0.00  0.00    +0.101 C 
ATOM     31  N   UNL     1       6.843   2.815  -1.245  0.00  0.00    -0.191 NA
ENDBRANCH  11  30
BRANCH   7  32
ATOM     32  C   UNL     1      -1.345   2.053   0.019  0.00  0.00    +0.230 C 
BRANCH  32  33
ATOM     33  O   UNL     1      -1.759   2.270   1.370  0.00  0.00    -0.387 OA
ATOM     34  H   UNL     1      -2.609   2.724   1.453  0.00  0.00    +0.210 HD
ENDBRANCH  32  33
ENDBRANCH   7  32
TORSDOF 9
