REMARK  Name = ZINC52860328
REMARK  4 active torsions:
REMARK  status: ('A' for Active; 'I' for Inactive)
REMARK    1  A    between atoms: C_1  and  C_2
REMARK    2  A    between atoms: C_5  and  O_9
REMARK    3  A    between atoms: O_9  and  C_10
REMARK    4  A    between atoms: C_15  and  C_16
REMARK                            x       y       z     vdW  Elec       q    Type
REMARK                         _______ _______ _______ _____ _____    ______ ____
ROOT
ATOM      1  C   UNL     1      -0.172  -4.759  -1.218  0.00  0.00    +0.139 A 
ATOM      2  C   UNL     1      -0.178  -4.024  -2.395  0.00  0.00    +0.048 A 
ATOM      3  C   UNL     1      -0.154  -4.670  -3.615  0.00  0.00    +0.023 A 
ATOM      4  C   UNL     1      -0.124  -6.055  -3.674  0.00  0.00    +0.042 A 
ATOM      5  C   UNL     1      -0.118  -6.800  -2.513  0.00  0.00    +0.035 A 
ATOM      6  C   UNL     1      -0.135  -6.158  -1.273  0.00  0.00    +0.056 A 
ATOM      7 CL   UNL     1      -0.095  -6.854  -5.214  0.00  0.00    -0.084 Cl
ENDROOT
BRANCH   6   8
ATOM      8  C   UNL     1      -0.122  -6.950  -0.027  0.00  0.00    +0.098 C 
ATOM      9  N   UNL     1      -1.060  -7.872   0.187  0.00  0.00    -0.387 N 
ATOM     10  N   UNL     1       0.829  -6.743   0.884  0.00  0.00    -0.344 N 
ATOM     11  H   UNL     1      -1.793  -7.972  -0.440  0.00  0.00    +0.157 HD
ATOM     12  H   UNL     1       1.512  -6.072   0.728  0.00  0.00    +0.144 HD
ATOM     13  H   UNL     1       0.838  -7.263   1.703  0.00  0.00    +0.144 HD
ATOM     14  H   UNL     1      -1.010  -8.442   0.970  0.00  0.00    +0.157 HD
ENDBRANCH   6   8
BRANCH   1  15
ATOM     15  O   UNL     1      -0.195  -4.125  -0.019  0.00  0.00    -0.454 OA
BRANCH  15  20
ATOM     16  C   UNL     1      -0.825   1.473  -0.001  0.00  0.00    +0.044 C 
ATOM     17  C   UNL     1      -0.657  -0.025  -0.005  0.00  0.00    -0.049 A 
ATOM     18  C   UNL     1       0.606  -0.578   0.107  0.00  0.00    +0.007 A 
ATOM     19  C   UNL     1       0.763  -1.950   0.103  0.00  0.00    +0.047 A 
ATOM     20  C   UNL     1      -0.347  -2.775  -0.014  0.00  0.00    +0.142 A 
ATOM     21  C   UNL     1      -1.614  -2.217  -0.127  0.00  0.00    +0.060 A 
ATOM     22  C   UNL     1      -1.766  -0.843  -0.116  0.00  0.00    +0.022 A 
ATOM     23 BR   UNL     1      -3.130  -3.336  -0.286  0.00  0.00    -0.046 Br
ENDBRANCH  15  20
ENDBRANCH   1  15
TORSDOF 3
