REMARK  Name = ZINC37819221
REMARK  10 active torsions:
REMARK  status: ('A' for Active; 'I' for Inactive)
REMARK    1  A    between atoms: C_1  and  C_2
REMARK    2  A    between atoms: C_2  and  C_3
REMARK    3  A    between atoms: C_3  and  C_5
REMARK    4  A    between atoms: C_3  and  C_6
REMARK    5  A    between atoms: C_6  and  C_8
REMARK    6  A    between atoms: C_6  and  N_22
REMARK    7  A    between atoms: C_16  and  C_18
REMARK    8  A    between atoms: C_18  and  N_19
REMARK    9  A    between atoms: N_19  and  C_20
REMARK   10  A    between atoms: N_19  and  C_21
REMARK                            x       y       z     vdW  Elec       q    Type
REMARK                         _______ _______ _______ _____ _____    ______ ____
ROOT
ATOM      1  C   UNL     1       1.552  -2.457  -2.483  0.00  0.00    +0.201 C 
ATOM      2  O   UNL     1       1.037  -2.687  -3.556  0.00  0.00    -0.277 OA
ATOM      3  N   UNL     1       2.883  -2.601  -2.329  0.00  0.00    -0.300 N 
ATOM      4  C   UNL     1       3.536  -2.224  -1.068  0.00  0.00    +0.126 C 
ATOM      5  C   UNL     1       4.319  -3.433  -0.540  0.00  0.00    +0.126 C 
ATOM      6  N   UNL     1       5.143  -3.971  -1.631  0.00  0.00    -0.300 N 
ATOM      7  C   UNL     1       4.490  -4.349  -2.892  0.00  0.00    +0.126 C 
ATOM      8  C   UNL     1       3.707  -3.145  -3.418  0.00  0.00    +0.126 C 
ATOM      9  C   UNL     1       6.474  -4.116  -1.478  0.00  0.00    +0.199 C 
ATOM     10  O   UNL     1       7.002  -3.800  -0.432  0.00  0.00    -0.278 OA
ENDROOT
BRANCH   1  11
ATOM     11  C   UNL     1       0.704  -2.009  -1.320  0.00  0.00    +0.016 C 
BRANCH  11  12
ATOM     12  N   UNL     1      -0.623  -2.634  -1.413  0.00  0.00    +0.386 N 
ATOM     13  H   UNL     1      -0.524  -3.637  -1.390  0.00  0.00    -0.089 HD
ATOM     14  H   UNL     1      -1.190  -2.334  -0.634  0.00  0.00    -0.089 HD
ATOM     15  H   UNL     1      -1.064  -2.358  -2.277  0.00  0.00    -0.089 HD
ENDBRANCH  11  12
BRANCH  11  16
ATOM     16  C   UNL     1       0.554  -0.487  -1.355  0.00  0.00    -0.020 C 
ATOM     17  C   UNL     1       1.940   0.162  -1.351  0.00  0.00    +0.006 C 
BRANCH  16  19
ATOM     18  C   UNL     1      -0.486   1.482  -0.221  0.00  0.00    +0.004 C 
ATOM     19  C   UNL     1      -0.229  -0.023  -0.124  0.00  0.00    -0.001 C 
ENDBRANCH  16  19
ENDBRANCH  11  16
ENDBRANCH   1  11
BRANCH   9  20
ATOM     20  C   UNL     1       7.307  -4.669  -2.605  0.00  0.00    +0.018 C 
BRANCH  20  21
ATOM     21  N   UNL     1       8.715  -4.727  -2.191  0.00  0.00    +0.382 N 
ATOM     22  C   UNL     1       8.863  -5.689  -1.090  0.00  0.00    -0.096 C 
ATOM     23  C   UNL     1       9.543  -5.153  -3.328  0.00  0.00    -0.096 C 
ATOM     24  H   UNL     1       9.013  -3.814  -1.882  0.00  0.00    -0.082 HD
ENDBRANCH  20  21
ENDBRANCH   9  20
TORSDOF 6
