REMARK  Name = ZINC17128375
REMARK  6 active torsions:
REMARK  status: ('A' for Active; 'I' for Inactive)
REMARK    1  A    between atoms: C_1  and  O_2
REMARK    2  A    between atoms: O_2  and  C_3
REMARK    3  A    between atoms: C_3  and  C_17
REMARK    4  A    between atoms: C_4  and  C_9
REMARK    5  A    between atoms: C_4  and  O_15
REMARK    6  A    between atoms: O_15  and  C_16
REMARK                            x       y       z     vdW  Elec       q    Type
REMARK                         _______ _______ _______ _____ _____    ______ ____
ROOT
ATOM      1  C   UNL     1       0.652  -0.570  -1.138  0.00  0.00    +0.215 C 
ATOM      2  C   UNL     1       0.628  -2.110  -1.068  0.00  0.00    +0.219 C 
ATOM      3  N   UNL     1       2.049  -2.486  -1.026  0.00  0.00    -0.326 N 
ATOM      4  C   UNL     1       2.789  -1.427  -1.061  0.00  0.00    +0.156 C 
ATOM      5  N   UNL     1       2.090  -0.253  -1.127  0.00  0.00    -0.283 N 
ATOM      6  N   UNL     1       4.163  -1.476  -1.035  0.00  0.00    -0.333 N 
ATOM      7  H   UNL     1       2.422   0.794  -1.169  0.00  0.00    +0.152 HD
ATOM      8  H   UNL     1       4.747  -0.544  -1.068  0.00  0.00    +0.145 HD
ATOM      9  H   UNL     1       4.678  -2.446  -0.983  0.00  0.00    +0.145 HD
ATOM     10  H   UNL     1       2.514  -3.481  -0.972  0.00  0.00    +0.165 HD
ENDROOT
BRANCH   2  11
ATOM     11  C   UNL     1      -0.034  -2.685  -2.294  0.00  0.00    +0.009 A 
ATOM     12  C   UNL     1      -1.409  -2.816  -2.339  0.00  0.00    +0.008 A 
ATOM     13  C   UNL     1      -2.017  -3.338  -3.465  0.00  0.00    +0.000 A 
ATOM     14  C   UNL     1      -1.249  -3.739  -4.542  0.00  0.00    +0.000 A 
ATOM     15  C   UNL     1       0.127  -3.613  -4.495  0.00  0.00    +0.000 A 
ATOM     16  C   UNL     1       0.734  -3.085  -3.371  0.00  0.00    +0.008 A 
ENDBRANCH   2  11
BRANCH   1  17
ATOM     17  C   UNL     1       0.006  -0.086  -2.411  0.00  0.00    +0.007 A 
ATOM     18  C   UNL     1      -1.342   0.217  -2.430  0.00  0.00    +0.008 A 
ATOM     19  C   UNL     1      -1.933   0.666  -3.596  0.00  0.00    +0.000 A 
ATOM     20  C   UNL     1      -1.177   0.802  -4.746  0.00  0.00    +0.000 A 
ATOM     21  C   UNL     1       0.170   0.494  -4.728  0.00  0.00    +0.000 A 
ATOM     22  C   UNL     1       0.762   0.050  -3.560  0.00  0.00    +0.008 A 
ENDBRANCH   1  17
BRANCH   1  24
ATOM     23  C   UNL     1      -0.017   1.425   0.010  0.00  0.00    +0.197 C 
ATOM     24  O   UNL     1       0.002  -0.004   0.002  0.00  0.00    -0.351 OA
ENDBRANCH   1  24
BRANCH   2  25
ATOM     25  O   UNL     1      -0.041  -2.548   0.116  0.00  0.00    -0.349 OA
ATOM     26  C   UNL     1      -0.007  -3.963   0.314  0.00  0.00    +0.197 C 
ENDBRANCH   2  25
TORSDOF 4
