REMARK  Name = ZINC61951926
REMARK  4 active torsions:
REMARK  status: ('A' for Active; 'I' for Inactive)
REMARK    1  A    between atoms: C_1  and  C_2
REMARK    2  A    between atoms: N_8  and  C_9
REMARK    3  A    between atoms: N_8  and  C_10
REMARK    4  A    between atoms: C_13  and  C_16
REMARK                            x       y       z     vdW  Elec       q    Type
REMARK                         _______ _______ _______ _____ _____    ______ ____
ROOT
ATOM      1  C   UNL     1       0.019  -4.068   2.461  0.00  0.00    +0.036 A 
ATOM      2  C   UNL     1       0.056  -4.858   1.316  0.00  0.00    +0.024 A 
ATOM      3  C   UNL     1       0.025  -6.230   1.424  0.00  0.00    +0.013 A 
ATOM      4  C   UNL     1      -0.043  -6.829   2.684  0.00  0.00    +0.012 A 
ATOM      5  C   UNL     1      -0.080  -6.034   3.832  0.00  0.00    +0.013 A 
ATOM      6  C   UNL     1      -0.043  -4.662   3.718  0.00  0.00    +0.024 A 
ENDROOT
BRANCH   1  14
ATOM      7  C   UNL     1      -2.022   1.500   1.254  0.00  0.00    +0.066 C 
ATOM      8  C   UNL     1      -2.032  -0.006   1.259  0.00  0.00    +0.043 A 
ATOM      9  C   UNL     1      -3.100  -0.703   0.715  0.00  0.00    +0.043 A 
ATOM     10  C   UNL     1      -3.070  -2.088   0.740  0.00  0.00    +0.116 A 
ATOM     11  N   UNL     1      -2.029  -2.701   1.279  0.00  0.00    -0.222 NA
ATOM     12  C   UNL     1      -1.024  -2.006   1.791  0.00  0.00    +0.222 A 
ATOM     13  N   UNL     1      -1.020  -0.681   1.779  0.00  0.00    -0.219 NA
ATOM     14  N   UNL     1       0.050  -2.680   2.349  0.00  0.00    -0.273 N 
ATOM     15  C   UNL     1       1.219  -1.933   2.821  0.00  0.00    +0.138 C 
ENDBRANCH   1  14
BRANCH   4  16
ATOM     16  C   UNL     1      -0.077  -8.301   2.803  0.00  0.00    +0.094 C 
ATOM     17  N   UNL     1      -0.143  -8.871   4.006  0.00  0.00    -0.387 N 
ATOM     18  N   UNL     1      -0.043  -9.059   1.707  0.00  0.00    -0.345 N 
ATOM     19  H   UNL     1      -0.168  -8.320   4.803  0.00  0.00    +0.157 HD
ATOM     20  H   UNL     1       0.005  -8.644   0.832  0.00  0.00    +0.144 HD
ATOM     21  H   UNL     1      -0.065 -10.026   1.785  0.00  0.00    +0.144 HD
ATOM     22  H   UNL     1      -0.165  -9.838   4.084  0.00  0.00    +0.157 HD
ENDBRANCH   4  16
TORSDOF 2
