REMARK  Name = ZINC51146409
REMARK  5 active torsions:
REMARK  status: ('A' for Active; 'I' for Inactive)
REMARK    1  A    between atoms: C_1  and  C_2
REMARK    2  A    between atoms: N_7  and  C_8
REMARK    3  A    between atoms: C_8  and  C_9
REMARK    4  A    between atoms: C_10  and  N_14
REMARK    5  A    between atoms: N_14  and  N_15
REMARK                            x       y       z     vdW  Elec       q    Type
REMARK                         _______ _______ _______ _____ _____    ______ ____
ROOT
ATOM      1  C   UNL     1       0.574  -1.830   3.206  0.00  0.00    +0.078 A 
ATOM      2  C   UNL     1       0.493  -1.200   4.415  0.00  0.00    +0.120 A 
ATOM      3  S   UNL     1       1.454  -2.180   5.385  0.00  0.00    +0.053 S 
ATOM      4  N   UNL     1       1.904  -3.317   4.238  0.00  0.00    -0.109 NA
ATOM      5  N   UNL     1       1.308  -2.920   3.166  0.00  0.00    -0.146 NA
ENDROOT
BRANCH   2   6
ATOM      6  N   UNL     1      -0.205  -0.044   4.756  0.00  0.00    -0.275 N 
ATOM      7  H   UNL     1      -0.794   0.375   4.110  0.00  0.00    +0.167 HD
BRANCH   6   8
ATOM      8  N   UNL     1      -0.059   0.499   6.001  0.00  0.00    -0.256 NA
ATOM      9  H   UNL     1       0.910   0.696   6.199  0.00  0.00    +0.140 HD
ATOM     10  H   UNL     1      -0.624   1.330   6.101  0.00  0.00    +0.140 HD
ENDBRANCH   6   8
ENDBRANCH   2   6
BRANCH   1  11
ATOM     11  C   UNL     1      -0.143  -1.308   1.988  0.00  0.00    -0.018 C 
BRANCH  11  17
ATOM     12  C   UNL     1      -0.237   1.828   0.467  0.00  0.00    -0.013 C 
ATOM     13  C   UNL     1      -0.071   0.326   0.224  0.00  0.00    -0.071 C 
ATOM     14  C   UNL     1       0.742   0.090  -1.066  0.00  0.00    -0.017 C 
ATOM     15  C   UNL     1       2.182  -0.138  -0.534  0.00  0.00    -0.020 C 
ATOM     16  C   UNL     1       1.911  -0.900   0.787  0.00  0.00    -0.078 C 
ATOM     17  N   UNL     1       0.681  -0.282   1.336  0.00  0.00    +0.385 N 
ATOM     18  H   UNL     1       0.929   0.430   2.008  0.00  0.00    -0.081 HD
ENDBRANCH  11  17
ENDBRANCH   1  11
TORSDOF 4
