REMARK  Name = ZINC20392898
REMARK  5 active torsions:
REMARK  status: ('A' for Active; 'I' for Inactive)
REMARK    1  A    between atoms: C_1  and  C_2
REMARK    2  A    between atoms: C_9  and  C_21
REMARK    3  A    between atoms: C_10  and  C_11
REMARK    4  A    between atoms: C_21  and  C_22
REMARK    5  A    between atoms: C_22  and  N_23
REMARK                            x       y       z     vdW  Elec       q    Type
REMARK                         _______ _______ _______ _____ _____    ______ ____
ROOT
ATOM      1  C   UNL     1      -0.018   1.503   0.010  0.00  0.00    +0.047 C 
ATOM      2  C   UNL     1       0.002  -0.004   0.002  0.00  0.00    -0.008 A 
ATOM      3  C   UNL     1       0.023  -0.698   1.173  0.00  0.00    +0.008 A 
ATOM      4  C   UNL     1       0.042  -2.101   1.150  0.00  0.00    +0.018 A 
ATOM      5  C   UNL     1       0.040  -2.762  -0.027  0.00  0.00    +0.093 A 
ATOM      6  N   UNL     1       0.019  -2.079  -1.207  0.00  0.00    -0.299 N 
ATOM      7  C   UNL     1      -0.006  -0.709  -1.217  0.00  0.00    +0.141 A 
ATOM      8  N   UNL     1      -0.030  -0.302  -2.481  0.00  0.00    -0.232 NA
ATOM      9  C   UNL     1      -0.028  -1.360  -3.288  0.00  0.00    +0.066 A 
ATOM     10  C   UNL     1       0.013  -2.490  -2.521  0.00  0.00    +0.076 A 
ENDROOT
BRANCH  10  11
ATOM     11  C   UNL     1       0.029  -3.884  -3.007  0.00  0.00    +0.001 A 
ATOM     12  C   UNL     1      -0.832  -4.282  -4.033  0.00  0.00    +0.010 A 
ATOM     13  C   UNL     1      -0.804  -5.584  -4.478  0.00  0.00    +0.004 A 
ATOM     14  C   UNL     1       0.063  -6.511  -3.910  0.00  0.00    -0.044 A 
ATOM     15  C   UNL     1       0.914  -6.126  -2.896  0.00  0.00    -0.044 A 
ATOM     16  C   UNL     1       0.898  -4.815  -2.443  0.00  0.00    +0.014 A 
ATOM     17  C   UNL     1       1.883  -7.078  -2.245  0.00  0.00    +0.035 C 
ATOM     18  C   UNL     1       1.490  -8.525  -2.532  0.00  0.00    +0.005 C 
ATOM     19  C   UNL     1       1.288  -8.680  -4.044  0.00  0.00    +0.005 C 
ATOM     20  C   UNL     1       0.024  -7.921  -4.441  0.00  0.00    +0.035 C 
ENDBRANCH  10  11
BRANCH   9  21
ATOM     21  C   UNL     1      -0.050  -1.319  -4.794  0.00  0.00    +0.038 C 
BRANCH  21  22
ATOM     22  C   UNL     1       1.384  -1.284  -5.325  0.00  0.00    -0.080 C 
BRANCH  22  23
ATOM     23  N   UNL     1       1.362  -1.244  -6.793  0.00  0.00    +0.378 N 
ATOM     24  H   UNL     1       2.394  -1.220  -7.175  0.00  0.00    -0.090 HD
ATOM     25  H   UNL     1       0.826  -0.344  -7.127  0.00  0.00    -0.090 HD
ATOM     26  H   UNL     1       0.851  -2.139  -7.177  0.00  0.00    -0.090 HD
ENDBRANCH  22  23
ENDBRANCH  21  22
ENDBRANCH   9  21
TORSDOF 4
