REMARK  Name = ZINC34086898
REMARK  11 active torsions:
REMARK  status: ('A' for Active; 'I' for Inactive)
REMARK    1  A    between atoms: C_1  and  C_2
REMARK    2  A    between atoms: C_5  and  S_8
REMARK    3  A    between atoms: S_8  and  N_11
REMARK    4  A    between atoms: N_11  and  C_12
REMARK    5  A    between atoms: C_15  and  O_18
REMARK    6  A    between atoms: O_18  and  C_19
REMARK    7  A    between atoms: C_21  and  O_34
REMARK    8  A    between atoms: C_23  and  O_33
REMARK    9  A    between atoms: C_25  and  O_32
REMARK   10  A    between atoms: C_27  and  C_30
REMARK   11  A    between atoms: C_30  and  O_31
REMARK                            x       y       z     vdW  Elec       q    Type
REMARK                         _______ _______ _______ _____ _____    ______ ____
ROOT
ATOM      1  C   UNL     1       2.405  -4.609   1.213  0.00  0.00    +0.048 A 
ATOM      2  C   UNL     1       2.174  -3.426   1.903  0.00  0.00    +0.028 A 
ATOM      3  C   UNL     1       2.893  -3.143   3.048  0.00  0.00    +0.047 A 
ATOM      4  C   UNL     1       3.845  -4.041   3.509  0.00  0.00    +0.124 A 
ATOM      5  C   UNL     1       4.076  -5.223   2.820  0.00  0.00    +0.047 A 
ATOM      6  C   UNL     1       3.354  -5.509   1.678  0.00  0.00    +0.028 A 
ENDROOT
BRANCH   1   7
ATOM      7  N   UNL     1       1.676  -4.896   0.053  0.00  0.00    -0.216 N 
ATOM      8  H   UNL     1       2.097  -4.814  -0.817  0.00  0.00    +0.174 HD
BRANCH   7   9
ATOM      9  S   UNL     1       0.095  -5.376   0.166  0.00  0.00    +0.072 S 
ATOM     10  O   UNL     1      -0.353  -5.611  -1.161  0.00  0.00    -0.150 OA
ATOM     11  O   UNL     1      -0.548  -4.454   1.035  0.00  0.00    -0.150 OA
BRANCH   9  16
ATOM     12  C   UNL     1       0.044 -10.716   2.975  0.00  0.00    +0.044 C 
ATOM     13  C   UNL     1       0.057  -9.382   2.273  0.00  0.00    -0.050 A 
ATOM     14  C   UNL     1      -0.137  -8.219   2.995  0.00  0.00    +0.005 A 
ATOM     15  C   UNL     1      -0.125  -6.996   2.352  0.00  0.00    +0.029 A 
ATOM     16  C   UNL     1       0.081  -6.935   0.986  0.00  0.00    +0.109 A 
ATOM     17  C   UNL     1       0.275  -8.098   0.264  0.00  0.00    +0.029 A 
ATOM     18  C   UNL     1       0.268  -9.321   0.908  0.00  0.00    +0.005 A 
ENDBRANCH   9  16
ENDBRANCH   7   9
ENDBRANCH   1   7
BRANCH   4  19
ATOM     19  O   UNL     1       4.553  -3.762   4.636  0.00  0.00    -0.461 OA
BRANCH  19  20
ATOM     20  C   UNL     1       5.517  -4.731   5.053  0.00  0.00    +0.339 C 
ATOM     21  C   UNL     1       6.294  -4.192   6.257  0.00  0.00    +0.214 C 
ATOM     22  C   UNL     1       5.325  -3.969   7.423  0.00  0.00    +0.180 C 
ATOM     23  C   UNL     1       4.608  -5.286   7.735  0.00  0.00    +0.177 C 
ATOM     24  C   UNL     1       3.896  -5.782   6.474  0.00  0.00    +0.179 C 
ATOM     25  O   UNL     1       4.849  -5.940   5.421  0.00  0.00    -0.331 OA
BRANCH  23  26
ATOM     26  O   UNL     1       5.563  -6.260   8.161  0.00  0.00    -0.386 OA
ATOM     27  H   UNL     1       6.055  -6.008   8.954  0.00  0.00    +0.210 HD
ENDBRANCH  23  26
BRANCH  22  28
ATOM     28  O   UNL     1       6.052  -3.534   8.573  0.00  0.00    -0.386 OA
ATOM     29  H   UNL     1       6.536  -2.707   8.442  0.00  0.00    +0.210 HD
ENDBRANCH  22  28
BRANCH  21  30
ATOM     30  O   UNL     1       7.295  -5.137   6.641  0.00  0.00    -0.383 OA
ATOM     31  H   UNL     1       7.941  -5.329   5.948  0.00  0.00    +0.210 HD
ENDBRANCH  21  30
BRANCH  24  32
ATOM     32  C   UNL     1       3.227  -7.128   6.763  0.00  0.00    +0.190 C 
BRANCH  32  33
ATOM     33  O   UNL     1       2.466  -7.535   5.623  0.00  0.00    -0.392 OA
ATOM     34  H   UNL     1       2.013  -8.382   5.735  0.00  0.00    +0.210 HD
ENDBRANCH  32  33
ENDBRANCH  24  32
ENDBRANCH  19  20
ENDBRANCH   4  19
TORSDOF 10
