REMARK  Name = ZINC60369221
REMARK  6 active torsions:
REMARK  status: ('A' for Active; 'I' for Inactive)
REMARK    1  A    between atoms: C_4  and  N_17
REMARK    2  A    between atoms: C_5  and  C_7
REMARK    3  A    between atoms: C_7  and  N_8
REMARK    4  A    between atoms: C_12  and  C_14
REMARK    5  A    between atoms: C_18  and  C_20
REMARK    6  A    between atoms: C_20  and  C_21
REMARK                            x       y       z     vdW  Elec       q    Type
REMARK                         _______ _______ _______ _____ _____    ______ ____
ROOT
ATOM      1  C   UNL     1      -0.010   1.391  -0.020  0.00  0.00    +0.000 A 
ATOM      2  C   UNL     1       1.179   2.097  -0.025  0.00  0.00    +0.002 A 
ATOM      3  C   UNL     1       2.384   1.424  -0.031  0.00  0.00    +0.023 A 
ATOM      4  C   UNL     1       2.402   0.035  -0.031  0.00  0.00    +0.035 A 
ATOM      5  C   UNL     1       1.206  -0.672  -0.026  0.00  0.00    -0.043 A 
ATOM      6  C   UNL     1       0.004   0.008  -0.021  0.00  0.00    +0.003 A 
ENDROOT
BRANCH   4   7
ATOM      7  N   UNL     1       3.622  -0.651  -0.037  0.00  0.00    -0.285 N 
ATOM      8  C   UNL     1       4.730  -0.058   0.448  0.00  0.00    +0.222 C 
ATOM      9  O   UNL     1       4.653   1.029   0.980  0.00  0.00    -0.275 OA
ATOM     10  H   UNL     1       3.669  -1.553  -0.391  0.00  0.00    +0.155 HD
BRANCH   8  11
ATOM     11  C   UNL     1       6.066  -0.745   0.328  0.00  0.00    +0.138 C 
BRANCH  11  12
ATOM     12  C   UNL     1       7.134   0.122   0.944  0.00  0.00    -0.001 A 
ATOM     13  C   UNL     1       7.586   0.142   2.222  0.00  0.00    +0.011 A 
ATOM     14  C   UNL     1       8.586   1.032   2.565  0.00  0.00    +0.008 A 
ATOM     15  C   UNL     1       9.085   1.858   1.614  0.00  0.00    +0.045 A 
ATOM     16  S   UNL     1       8.138   1.383   0.177  0.00  0.00    -0.101 S 
ENDBRANCH  11  12
ENDBRANCH   8  11
ENDBRANCH   4   7
BRANCH   5  17
ATOM     17  C   UNL     1       1.221  -2.179  -0.027  0.00  0.00    -0.040 C 
BRANCH  17  18
ATOM     18  N   UNL     1       1.472  -2.667   1.336  0.00  0.00    +0.390 N 
ATOM     19  C   UNL     1       0.308  -2.369   2.209  0.00  0.00    -0.077 C 
ATOM     20  C   UNL     1       0.463  -3.389   3.365  0.00  0.00    -0.020 C 
ATOM     21  C   UNL     1       0.985  -4.653   2.644  0.00  0.00    -0.008 C 
ATOM     22  C   UNL     1       1.609  -4.139   1.333  0.00  0.00    +0.019 C 
ATOM     23  H   UNL     1       2.307  -2.240   1.710  0.00  0.00    -0.080 HD
BRANCH  22  24
ATOM     24  C   UNL     1       3.066  -4.519   1.275  0.00  0.00    +0.197 C 
ATOM     25  O   UNL     1       3.917  -3.656   1.239  0.00  0.00    -0.278 OA
ATOM     26  N   UNL     1       3.424  -5.819   1.263  0.00  0.00    -0.331 N 
ATOM     27  H   UNL     1       2.743  -6.509   1.292  0.00  0.00    +0.145 HD
ATOM     28  H   UNL     1       4.362  -6.063   1.226  0.00  0.00    +0.145 HD
ENDBRANCH  22  24
ENDBRANCH  17  18
ENDBRANCH   5  17
TORSDOF 6
