REMARK  Name = ZINC35646629
REMARK  12 active torsions:
REMARK  status: ('A' for Active; 'I' for Inactive)
REMARK    1  A    between atoms: C_1  and  C_2
REMARK    2  A    between atoms: C_2  and  N_3
REMARK    3  A    between atoms: C_4  and  C_24
REMARK    4  A    between atoms: C_5  and  C_19
REMARK    5  A    between atoms: C_6  and  C_11
REMARK    6  A    between atoms: C_14  and  C_18
REMARK    7  A    between atoms: C_16  and  C_17
REMARK    8  A    between atoms: C_19  and  O_21
REMARK    9  A    between atoms: O_21  and  C_22
REMARK   10  A    between atoms: C_22  and  C_23
REMARK   11  A    between atoms: C_24  and  N_25
REMARK   12  A    between atoms: C_32  and  C_34
REMARK                            x       y       z     vdW  Elec       q    Type
REMARK                         _______ _______ _______ _____ _____    ______ ____
ROOT
ATOM      1  N   UNL     1      -2.272  -1.199   0.608  0.00  0.00    -0.261 N 
ATOM      2  C   UNL     1      -2.633  -2.281   1.359  0.00  0.00    +0.010 C 
ATOM      3  C   UNL     1      -3.498  -3.203   0.882  0.00  0.00    +0.076 C 
ATOM      4  C   UNL     1      -4.053  -2.995  -0.512  0.00  0.00    +0.144 C 
ATOM      5  N   UNL     1      -3.601  -1.796  -1.238  0.00  0.00    -0.288 N 
ATOM      6  C   UNL     1      -2.736  -0.964  -0.626  0.00  0.00    +0.307 C 
ATOM      7  O   UNL     1      -2.359   0.030  -1.216  0.00  0.00    -0.252 OA
ATOM      8  H   UNL     1      -3.921  -1.609  -2.135  0.00  0.00    +0.151 HD
ENDROOT
BRANCH   4   9
ATOM      9  C   UNL     1      -5.556  -2.936  -0.410  0.00  0.00    -0.020 A 
ATOM     10  C   UNL     1      -6.155  -2.632   0.799  0.00  0.00    +0.006 A 
ATOM     11  C   UNL     1      -7.533  -2.578   0.893  0.00  0.00    +0.004 A 
ATOM     12  C   UNL     1      -8.312  -2.828  -0.222  0.00  0.00    -0.050 A 
ATOM     13  C   UNL     1      -7.713  -3.130  -1.430  0.00  0.00    +0.007 A 
ATOM     14  C   UNL     1      -6.335  -3.180  -1.525  0.00  0.00    -0.045 A 
ATOM     15  C   UNL     1      -5.681  -3.505  -2.844  0.00  0.00    +0.044 C 
ATOM     16  C   UNL     1      -9.814  -2.770  -0.119  0.00  0.00    +0.044 C 
ENDBRANCH   4   9
BRANCH   1  18
ATOM     17  C   UNL     1      -2.103   0.834   1.956  0.00  0.00    +0.025 C 
ATOM     18  C   UNL     1      -1.330  -0.239   1.187  0.00  0.00    +0.111 C 
ENDBRANCH   1  18
BRANCH   3  19
ATOM     19  C   UNL     1      -3.872  -4.324   1.659  0.00  0.00    +0.339 C 
ATOM     20  O   UNL     1      -3.483  -4.427   2.807  0.00  0.00    -0.245 OA
BRANCH  19  21
ATOM     21  O   UNL     1      -4.661  -5.281   1.126  0.00  0.00    -0.462 OA
BRANCH  21  22
ATOM     22  C   UNL     1      -5.091  -6.328   1.999  0.00  0.00    +0.229 C 
ATOM     23  C   UNL     1      -5.871  -7.372   1.197  0.00  0.00    +0.048 C 
ENDBRANCH  21  22
ENDBRANCH  19  21
ENDBRANCH   3  19
BRANCH   2  24
ATOM     24  C   UNL     1      -2.057  -2.450   2.741  0.00  0.00    -0.026 C 
BRANCH  24  25
ATOM     25  N   UNL     1      -0.972  -3.439   2.702  0.00  0.00    +0.384 N 
ATOM     26  C   UNL     1      -0.610  -3.781   4.075  0.00  0.00    -0.077 C 
ATOM     27  C   UNL     1      -0.091  -5.201   4.117  0.00  0.00    +0.000 C 
ATOM     28  C   UNL     1       1.443  -5.190   3.983  0.00  0.00    +0.106 C 
ATOM     29  N   UNL     1       1.883  -4.183   2.996  0.00  0.00    -0.299 N 
ATOM     30  C   UNL     1       1.192  -3.976   1.740  0.00  0.00    +0.089 C 
ATOM     31  C   UNL     1       0.081  -2.915   1.921  0.00  0.00    -0.059 C 
ATOM     32  C   UNL     1       2.965  -3.430   3.274  0.00  0.00    +0.249 C 
ATOM     33  O   UNL     1       3.286  -2.527   2.526  0.00  0.00    -0.270 OA
ATOM     34  H   UNL     1      -1.319  -4.272   2.250  0.00  0.00    -0.081 HD
BRANCH  32  35
ATOM     35  C   UNL     1       3.762  -3.702   4.488  0.00  0.00    +0.072 A 
ATOM     36  C   UNL     1       4.144  -5.009   4.798  0.00  0.00    +0.016 A 
ATOM     37  C   UNL     1       4.889  -5.256   5.931  0.00  0.00    +0.001 A 
ATOM     38  C   UNL     1       5.258  -4.213   6.764  0.00  0.00    +0.003 A 
ATOM     39  C   UNL     1       4.884  -2.917   6.466  0.00  0.00    +0.039 A 
ATOM     40  C   UNL     1       4.142  -2.652   5.329  0.00  0.00    +0.135 A 
ATOM     41  F   UNL     1       3.782  -1.384   5.035  0.00  0.00    -0.205 F 
ENDBRANCH  32  35
ENDBRANCH  24  25
ENDBRANCH   2  24
TORSDOF 8
