REMARK  Name = ZINC20565922
REMARK  11 active torsions:
REMARK  status: ('A' for Active; 'I' for Inactive)
REMARK    1  A    between atoms: C_1  and  C_2
REMARK    2  A    between atoms: C_2  and  C_3
REMARK    3  A    between atoms: C_2  and  C_4
REMARK    4  A    between atoms: C_4  and  C_5
REMARK    5  A    between atoms: N_13  and  C_16
REMARK    6  A    between atoms: C_16  and  C_17
REMARK    7  A    between atoms: C_17  and  C_18
REMARK    8  A    between atoms: C_21  and  O_26
REMARK    9  A    between atoms: C_22  and  O_24
REMARK   10  A    between atoms: O_24  and  C_25
REMARK   11  A    between atoms: O_26  and  C_27
REMARK                            x       y       z     vdW  Elec       q    Type
REMARK                         _______ _______ _______ _____ _____    ______ ____
ROOT
ATOM      1  C   UNL     1      -1.416  -2.058  -0.121  0.00  0.00    -0.057 C 
ATOM      2  C   UNL     1      -2.849  -2.622  -0.025  0.00  0.00    +0.073 C 
ATOM      3  C   UNL     1      -2.883  -3.798  -1.041  0.00  0.00    +0.088 C 
ATOM      4  C   UNL     1      -3.063  -5.014  -0.161  0.00  0.00    +0.225 C 
ATOM      5  O   UNL     1      -3.135  -6.158  -0.554  0.00  0.00    -0.275 OA
ATOM      6  N   UNL     1      -3.131  -4.630   1.119  0.00  0.00    -0.241 N 
ATOM      7  C   UNL     1      -3.028  -3.296   1.317  0.00  0.00    +0.224 C 
ATOM      8  O   UNL     1      -3.069  -2.726   2.386  0.00  0.00    -0.275 OA
ATOM      9  C   UNL     1      -1.487  -3.801  -1.676  0.00  0.00    +0.050 C 
ATOM     10  N   UNL     1      -0.938  -2.453  -1.473  0.00  0.00    +0.394 N 
ATOM     11  C   UNL     1      -1.544  -4.175  -3.130  0.00  0.00    -0.025 A 
ATOM     12  C   UNL     1      -2.185  -3.633  -4.223  0.00  0.00    +0.043 A 
ATOM     13  C   UNL     1      -2.041  -4.218  -5.470  0.00  0.00    +0.124 A 
ATOM     14  C   UNL     1      -1.252  -5.348  -5.614  0.00  0.00    +0.040 A 
ATOM     15  C   UNL     1      -0.611  -5.892  -4.521  0.00  0.00    +0.026 A 
ATOM     16  C   UNL     1      -0.750  -5.309  -3.264  0.00  0.00    +0.036 A 
ATOM     17  N   UNL     1      -0.209  -5.668  -2.026  0.00  0.00    -0.286 N 
ATOM     18  C   UNL     1      -0.596  -4.833  -1.042  0.00  0.00    +0.211 C 
ATOM     19  O   UNL     1      -0.284  -4.900   0.129  0.00  0.00    -0.277 OA
ATOM     20  F   UNL     1      -2.669  -3.689  -6.543  0.00  0.00    -0.205 F 
ATOM     21  H   UNL     1      -1.302  -1.825  -2.174  0.00  0.00    -0.083 HD
ATOM     22  H   UNL     1       0.375  -6.431  -1.890  0.00  0.00    +0.155 HD
ATOM     23  H   UNL     1       0.071  -2.468  -1.500  0.00  0.00    -0.083 HD
ENDROOT
BRANCH   1  24
ATOM     24  C   UNL     1      -1.433  -0.534   0.013  0.00  0.00    -0.012 C 
BRANCH  24  26
ATOM     25  C   UNL     1      -0.019   1.526   0.010  0.00  0.00    +0.007 C 
ATOM     26  C   UNL     1       0.002  -0.004   0.002  0.00  0.00    -0.019 C 
ATOM     27  C   UNL     1       0.742  -0.511   1.242  0.00  0.00    +0.007 C 
ENDBRANCH  24  26
ENDBRANCH   1  24
BRANCH   6  28
ATOM     28  C   UNL     1      -3.308  -5.579   2.221  0.00  0.00    +0.121 C 
BRANCH  28  29
ATOM     29  C   UNL     1      -1.939  -6.043   2.721  0.00  0.00    +0.054 C 
BRANCH  29  30
ATOM     30  C   UNL     1      -2.122  -7.018   3.855  0.00  0.00    -0.042 A 
ATOM     31  C   UNL     1      -2.189  -6.557   5.157  0.00  0.00    +0.007 A 
ATOM     32  C   UNL     1      -2.357  -7.448   6.201  0.00  0.00    +0.049 A 
ATOM     33  C   UNL     1      -2.458  -8.806   5.943  0.00  0.00    +0.161 A 
ATOM     34  C   UNL     1      -2.390  -9.269   4.633  0.00  0.00    +0.162 A 
ATOM     35  C   UNL     1      -2.227  -8.371   3.591  0.00  0.00    +0.053 A 
BRANCH  34  36
ATOM     36  O   UNL     1      -2.489 -10.601   4.376  0.00  0.00    -0.491 OA
ATOM     37  C   UNL     1      -2.411 -11.005   3.007  0.00  0.00    +0.277 C 
ENDBRANCH  34  36
BRANCH  33  38
ATOM     38  O   UNL     1      -2.623  -9.683   6.969  0.00  0.00    -0.491 OA
ATOM     39  C   UNL     1      -2.683  -9.136   8.288  0.00  0.00    +0.277 C 
ENDBRANCH  33  38
ENDBRANCH  29  30
ENDBRANCH  28  29
ENDBRANCH   6  28
TORSDOF 7
