REMARK  Name = ZINC13474054
REMARK  10 active torsions:
REMARK  status: ('A' for Active; 'I' for Inactive)
REMARK    1  A    between atoms: C_1  and  C_2
REMARK    2  A    between atoms: C_4  and  O_20
REMARK    3  A    between atoms: C_6  and  O_9
REMARK    4  A    between atoms: O_9  and  C_10
REMARK    5  A    between atoms: C_12  and  C_17
REMARK    6  A    between atoms: C_15  and  O_16
REMARK    7  A    between atoms: O_20  and  C_21
REMARK    8  A    between atoms: C_25  and  C_27
REMARK    9  A    between atoms: N_29  and  C_30
REMARK   10  A    between atoms: N_29  and  C_31
REMARK                            x       y       z     vdW  Elec       q    Type
REMARK                         _______ _______ _______ _____ _____    ______ ____
ROOT
ATOM      1  C   UNL     1      -4.297   0.912  21.032  0.00  0.00    +0.050 C 
ATOM      2  C   UNL     1      -4.193   2.232  20.312  0.00  0.00    +0.030 A 
ATOM      3  C   UNL     1      -5.296   2.779  19.672  0.00  0.00    +0.191 A 
ATOM      4  C   UNL     1      -5.165   3.998  19.017  0.00  0.00    +0.260 A 
ATOM      5  N   UNL     1      -4.005   4.635  19.001  0.00  0.00    -0.172 NA
ATOM      6  C   UNL     1      -2.934   4.141  19.601  0.00  0.00    +0.260 A 
ATOM      7  C   UNL     1      -2.995   2.930  20.279  0.00  0.00    +0.191 A 
ATOM      8  F   UNL     1      -1.899   2.435  20.894  0.00  0.00    -0.200 F 
ATOM      9  F   UNL     1      -6.483   2.134  19.684  0.00  0.00    -0.200 F 
ENDROOT
BRANCH   6  10
ATOM     10  O   UNL     1      -1.764   4.829  19.558  0.00  0.00    -0.432 OA
BRANCH  10  11
ATOM     11  C   UNL     1      -1.323   5.410  20.706  0.00  0.00    +0.172 A 
ATOM     12  C   UNL     1      -0.344   4.794  21.461  0.00  0.00    +0.061 A 
ATOM     13  C   UNL     1       0.106   5.394  22.639  0.00  0.00    +0.016 A 
ATOM     14  C   UNL     1      -0.434   6.615  23.048  0.00  0.00    +0.015 A 
ATOM     15  C   UNL     1      -1.411   7.225  22.291  0.00  0.00    +0.050 A 
ATOM     16  C   UNL     1      -1.855   6.632  21.117  0.00  0.00    +0.159 A 
BRANCH  13  17
ATOM     17  C   UNL     1       1.153   4.739  23.451  0.00  0.00    +0.094 C 
ATOM     18  N   UNL     1       1.450   3.456  23.245  0.00  0.00    -0.387 N 
ATOM     19  N   UNL     1       1.799   5.430  24.389  0.00  0.00    -0.345 N 
ATOM     20  H   UNL     1       1.030   2.972  22.517  0.00  0.00    +0.157 HD
ATOM     21  H   UNL     1       1.951   6.381  24.271  0.00  0.00    +0.144 HD
ATOM     22  H   UNL     1       2.117   4.983  25.188  0.00  0.00    +0.144 HD
ATOM     23  H   UNL     1       2.086   3.007  23.823  0.00  0.00    +0.157 HD
ENDBRANCH  13  17
BRANCH  16  24
ATOM     24  O   UNL     1      -2.813   7.239  20.370  0.00  0.00    -0.503 OA
ATOM     25  H   UNL     1      -3.716   6.990  20.610  0.00  0.00    +0.292 HD
ENDBRANCH  16  24
ENDBRANCH  10  11
ENDBRANCH   6  10
BRANCH   4  26
ATOM     26  O   UNL     1      -6.238   4.541  18.388  0.00  0.00    -0.436 OA
BRANCH  26  27
ATOM     27  C   UNL     1      -6.021   5.576  17.535  0.00  0.00    +0.131 A 
ATOM     28  C   UNL     1      -6.448   5.490  16.216  0.00  0.00    +0.046 A 
ATOM     29  C   UNL     1      -6.230   6.540  15.344  0.00  0.00    +0.004 A 
ATOM     30  C   UNL     1      -5.587   7.682  15.778  0.00  0.00    +0.013 A 
ATOM     31  C   UNL     1      -5.154   7.777  17.102  0.00  0.00    +0.040 A 
ATOM     32  C   UNL     1      -5.379   6.719  17.983  0.00  0.00    +0.059 A 
BRANCH  31  33
ATOM     33  C   UNL     1      -4.465   8.998  17.571  0.00  0.00    +0.246 C 
ATOM     34  O   UNL     1      -5.100  10.015  17.774  0.00  0.00    -0.270 OA
ATOM     35  N   UNL     1      -3.132   8.985  17.773  0.00  0.00    -0.304 N 
ATOM     36  C   UNL     1      -2.450  10.194  18.240  0.00  0.00    +0.132 C 
ATOM     37  C   UNL     1      -2.366   7.761  17.524  0.00  0.00    +0.132 C 
ENDBRANCH  31  33
ENDBRANCH  26  27
ENDBRANCH   4  26
TORSDOF 7
