REMARK  Name = ZINC17027353
REMARK  7 active torsions:
REMARK  status: ('A' for Active; 'I' for Inactive)
REMARK    1  A    between atoms: C_1  and  N_2
REMARK    2  A    between atoms: N_7  and  N_10
REMARK    3  A    between atoms: N_12  and  C1*_15
REMARK    4  A    between atoms: C2*_17  and  O2*_27
REMARK    5  A    between atoms: C3*_19  and  O3*_26
REMARK    6  A    between atoms: C4*_21  and  C5*_24
REMARK    7  A    between atoms: C5*_24  and  O5*_25
REMARK                            x       y       z     vdW  Elec       q    Type
REMARK                         _______ _______ _______ _____ _____    ______ ____
ROOT
ATOM      1  C   UNL     1       0.770   3.766   4.913  0.00  0.00    +0.154 C 
ATOM      2  N   UNL     1       1.241   3.892   3.532  0.00  0.00    -0.289 N 
ATOM      3  C   UNL     1       2.320   4.666   3.098  0.00  0.00    +0.156 A 
ATOM      4  C   UNL     1       2.417   4.492   1.723  0.00  0.00    +0.172 A 
ATOM      5  N   UNL     1       3.381   5.123   1.044  0.00  0.00    -0.195 NA
ATOM      6  C   UNL     1       4.244   5.905   1.657  0.00  0.00    +0.215 A 
ATOM      7  N   UNL     1       4.196   6.106   3.003  0.00  0.00    -0.201 N 
ATOM      8  C   UNL     1       3.240   5.504   3.745  0.00  0.00    +0.298 A 
ATOM      9  O   UNL     1       3.187   5.676   4.952  0.00  0.00    -0.264 OA
ATOM     10  N   UNL     1       5.217   6.533   0.922  0.00  0.00    -0.327 N 
ATOM     11  N   UNL     1       1.402   3.634   1.354  0.00  0.00    -0.247 N 
ATOM     12  C   UNL     1       0.709   3.283   2.454  0.00  0.00    +0.333 A 
ATOM     13  O   UNL     1      -0.248   2.532   2.471  0.00  0.00    -0.246 OA
ATOM     14  H   UNL     1       5.945   7.190   1.420  0.00  0.00    +0.145 HD
ATOM     15  H   UNL     1       5.269   6.380  -0.166  0.00  0.00    +0.145 HD
ENDROOT
BRANCH  11  16
ATOM     16  C1* UNL     1       1.126   3.176  -0.010  0.00  0.00    +0.257 C 
ATOM     17  C2* UNL     1       1.241   1.638  -0.079  0.00  0.00    +0.195 C 
ATOM     18  C3* UNL     1       1.929   1.420  -1.454  0.00  0.00    +0.178 C 
ATOM     19  C4* UNL     1       2.849   2.664  -1.523  0.00  0.00    +0.177 C 
ATOM     20  O4* UNL     1       2.095   3.723  -0.912  0.00  0.00    -0.346 OA
BRANCH  18  21
ATOM     21  O3* UNL     1       2.693   0.213  -1.463  0.00  0.00    -0.386 OA
ATOM     22  H3* UNL     1       3.243  -0.084  -2.368  0.00  0.00    +0.210 HD
ENDBRANCH  18  21
BRANCH  17  23
ATOM     23  O2* UNL     1      -0.052   1.030  -0.055  0.00  0.00    -0.385 OA
ATOM     24  H2* UNL     1      -0.145  -0.066  -0.097  0.00  0.00    +0.210 HD
ENDBRANCH  17  23
BRANCH  19  25
ATOM     25  C5* UNL     1       3.168   3.012  -2.979  0.00  0.00    +0.190 C 
BRANCH  25  26
ATOM     26  O5* UNL     1       4.058   4.129  -3.018  0.00  0.00    -0.392 OA
ATOM     27  H5* UNL     1       4.402   4.525  -3.985  0.00  0.00    +0.210 HD
ENDBRANCH  25  26
ENDBRANCH  19  25
ENDBRANCH  11  16
BRANCH   7  28
ATOM     28  N   UNL     1       5.109   6.926   3.603  0.00  0.00    -0.293 N 
ATOM     29  H   UNL     1       5.071   7.089   4.690  0.00  0.00    +0.163 HD
ATOM     30  H   UNL     1       5.883   7.422   2.998  0.00  0.00    +0.163 HD
ENDBRANCH   7  28
TORSDOF 6
