REMARK  Name = ZINC25518186
REMARK  6 active torsions:
REMARK  status: ('A' for Active; 'I' for Inactive)
REMARK    1  A    between atoms: C_5  and  S_6
REMARK    2  A    between atoms: S_6  and  N_9
REMARK    3  A    between atoms: C_13  and  C_16
REMARK    4  A    between atoms: N_18  and  C_19
REMARK    5  A    between atoms: N_22  and  C_25
REMARK    6  A    between atoms: C_25  and  C_26
REMARK                            x       y       z     vdW  Elec       q    Type
REMARK                         _______ _______ _______ _____ _____    ______ ____
ROOT
ATOM      1  C   UNL     1       6.054   4.254  -3.539  0.00  0.00    +0.218 C 
ATOM      2  O   UNL     1       6.443   3.108  -3.469  0.00  0.00    -0.275 OA
ATOM      3  N   UNL     1       6.686   5.133  -4.343  0.00  0.00    -0.312 N 
ATOM      4  H   UNL     1       6.333   6.172  -4.407  0.00  0.00    +0.149 HD
ENDROOT
BRANCH   3   5
ATOM      5  C   UNL     1       7.844   4.702  -5.131  0.00  0.00    +0.069 C 
ATOM      6  C   UNL     1       9.111   4.806  -4.278  0.00  0.00    +0.003 C 
ATOM      7  C   UNL     1      10.324   4.414  -5.125  0.00  0.00    -0.076 C 
ATOM      8  N   UNL     1      10.420   5.306  -6.287  0.00  0.00    +0.385 N 
ATOM      9  C   UNL     1       9.235   5.188  -7.146  0.00  0.00    -0.076 C 
ATOM     10  C   UNL     1       7.990   5.604  -6.360  0.00  0.00    +0.003 C 
ATOM     11  H   UNL     1      10.462   6.340  -5.914  0.00  0.00    -0.081 HD
BRANCH   8  12
ATOM     12  C   UNL     1      11.650   5.048  -7.048  0.00  0.00    +0.018 C 
BRANCH  12  13
ATOM     13  C   UNL     1      11.847   6.139  -8.069  0.00  0.00    +0.194 C 
ATOM     14  O   UNL     1      11.107   7.100  -8.080  0.00  0.00    -0.278 OA
ATOM     15  N   UNL     1      12.845   6.046  -8.970  0.00  0.00    -0.331 N 
ATOM     16  H   UNL     1      12.989   6.842  -9.715  0.00  0.00    +0.145 HD
ATOM     17  H   UNL     1      13.516   5.174  -8.960  0.00  0.00    +0.145 HD
ENDBRANCH  12  13
ENDBRANCH   8  12
ENDBRANCH   3   5
BRANCH   1  22
ATOM     18  N   UNL     1       3.099   3.927  -1.229  0.00  0.00    -0.175 NA
ATOM     19  C   UNL     1       2.010   4.506  -2.028  0.00  0.00    +0.109 C 
ATOM     20  C   UNL     1       2.566   5.677  -2.844  0.00  0.00    +0.018 C 
ATOM     21  C   UNL     1       3.763   5.197  -3.668  0.00  0.00    +0.015 C 
ATOM     22  C   UNL     1       4.863   4.697  -2.729  0.00  0.00    +0.091 C 
ATOM     23  C   UNL     1       4.335   3.520  -1.911  0.00  0.00    +0.122 C 
BRANCH  18  24
ATOM     24  S   UNL     1       2.938   3.743   0.408  0.00  0.00    +0.067 S 
ATOM     25  O   UNL     1       1.965   4.690   0.830  0.00  0.00    -0.152 OA
ATOM     26  O   UNL     1       4.253   3.713   0.945  0.00  0.00    -0.152 OA
BRANCH  24  31
ATOM     27  C   UNL     1       2.874   0.963   0.872  0.00  0.00    +0.037 A 
ATOM     28  C   UNL     1       2.116  -0.175   1.077  0.00  0.00    +0.025 A 
ATOM     29  C   UNL     1       0.764  -0.071   1.087  0.00  0.00    +0.057 A 
ATOM     30  S   UNL     1       0.525   1.675   0.801  0.00  0.00    -0.062 S 
ATOM     31  C   UNL     1       2.243   2.148   0.688  0.00  0.00    +0.144 A 
ATOM     32 BR   UNL     1      -0.533  -1.425   1.339  0.00  0.00    -0.043 Br
ENDBRANCH  24  31
ENDBRANCH  18  24
ENDBRANCH   1  22
TORSDOF 6
