REMARK  Name = ZINC04620802
REMARK  7 active torsions:
REMARK  status: ('A' for Active; 'I' for Inactive)
REMARK    1  A    between atoms: C_7  and  C_11
REMARK    2  A    between atoms: C_11  and  C_12
REMARK    3  A    between atoms: C_11  and  C_17
REMARK    4  A    between atoms: C_12  and  S_13
REMARK    5  A    between atoms: S_13  and  C_14
REMARK    6  A    between atoms: C_17  and  S_18
REMARK    7  A    between atoms: S_18  and  C_19
REMARK                            x       y       z     vdW  Elec       q    Type
REMARK                         _______ _______ _______ _____ _____    ______ ____
ROOT
ATOM      1  C   UNL     1      -1.433  -0.534   0.013  0.00  0.00    +0.042 C 
ENDROOT
BRANCH   1   8
ATOM      2  C   UNL     1      -3.260  -2.686   3.256  0.00  0.00    +0.001 A 
ATOM      3  C   UNL     1      -3.204  -4.078   3.300  0.00  0.00    +0.002 A 
ATOM      4  C   UNL     1      -2.574  -4.788   2.325  0.00  0.00    +0.030 A 
ATOM      5  C   UNL     1      -1.968  -4.111   1.254  0.00  0.00    +0.094 A 
ATOM      6  C   UNL     1      -2.027  -2.693   1.212  0.00  0.00    +0.007 A 
ATOM      7  C   UNL     1      -2.685  -1.994   2.233  0.00  0.00    +0.010 A 
ATOM      8  C   UNL     1      -1.414  -2.036   0.129  0.00  0.00    -0.014 A 
ATOM      9  C   UNL     1      -0.804  -2.812  -0.818  0.00  0.00    +0.139 A 
ATOM     10  N   UNL     1      -0.788  -4.133  -0.703  0.00  0.00    -0.157 NA
ATOM     11  N   UNL     1      -1.338  -4.763   0.273  0.00  0.00    -0.149 NA
ENDBRANCH   1   8
BRANCH   1  12
ATOM     12  C   UNL     1       0.002  -0.004   0.002  0.00  0.00    +0.086 C 
BRANCH  12  13
ATOM     13  S   UNL     1      -0.022   1.806   0.012  0.00  0.00    -0.093 S 
BRANCH  13  14
ATOM     14  C   UNL     1       1.708   2.135  -0.003  0.00  0.00    +0.123 C 
ATOM     15  N   UNL     1       2.560   1.148  -0.016  0.00  0.00    -0.382 N 
ATOM     16  N   UNL     1       2.161   3.434  -0.000  0.00  0.00    -0.340 N 
ATOM     17  H   UNL     1       3.641   1.353  -0.025  0.00  0.00    +0.158 HD
ATOM     18  H   UNL     1       3.242   3.640  -0.009  0.00  0.00    +0.144 HD
ATOM     19  H   UNL     1       1.443   4.267   0.011  0.00  0.00    +0.144 HD
ATOM     20  H   UNL     1       2.198   0.109  -0.018  0.00  0.00    +0.158 HD
ENDBRANCH  13  14
ENDBRANCH  12  13
ENDBRANCH   1  12
BRANCH   1  21
ATOM     21  C   UNL     1      -2.135  -0.131  -1.286  0.00  0.00    +0.086 C 
BRANCH  21  22
ATOM     22  S   UNL     1      -2.290   1.671  -1.354  0.00  0.00    -0.093 S 
BRANCH  22  23
ATOM     23  C   UNL     1      -3.108   1.849  -2.905  0.00  0.00    +0.123 C 
ATOM     24  N   UNL     1      -3.405   0.793  -3.610  0.00  0.00    -0.382 N 
ATOM     25  N   UNL     1      -3.434   3.101  -3.371  0.00  0.00    -0.340 N 
ATOM     26  H   UNL     1      -3.916   0.904  -4.578  0.00  0.00    +0.158 HD
ATOM     27  H   UNL     1      -3.944   3.212  -4.339  0.00  0.00    +0.144 HD
ATOM     28  H   UNL     1      -3.183   3.992  -2.776  0.00  0.00    +0.144 HD
ATOM     29  H   UNL     1      -3.145  -0.209  -3.237  0.00  0.00    +0.158 HD
ENDBRANCH  22  23
ENDBRANCH  21  22
ENDBRANCH   1  21
TORSDOF 7
