REMARK  Name = ZINC00954732
REMARK  10 active torsions:
REMARK  status: ('A' for Active; 'I' for Inactive)
REMARK    1  A    between atoms: C_1  and  C_2
REMARK    2  A    between atoms: N_13  and  C_16
REMARK    3  A    between atoms: C_16  and  C_17
REMARK    4  A    between atoms: N_19  and  N_20
REMARK    5  A    between atoms: C_21  and  C_22
REMARK    6  A    between atoms: C_25  and  O_30
REMARK    7  A    between atoms: C_26  and  O_28
REMARK    8  A    between atoms: O_28  and  C_29
REMARK    9  A    between atoms: O_30  and  C_31
REMARK   10  A    between atoms: C_31  and  C_32
REMARK                            x       y       z     vdW  Elec       q    Type
REMARK                         _______ _______ _______ _____ _____    ______ ____
ROOT
ATOM      1  C   UNL     1       1.170   3.358   0.009  0.00  0.00    +0.252 C 
ATOM      2  O   UNL     1       0.111   3.950   0.022  0.00  0.00    -0.272 OA
ATOM      3  N   UNL     1       1.188   2.011   0.002  0.00  0.00    -0.206 N 
ATOM      4  H   UNL     1       2.035   1.537  -0.009  0.00  0.00    +0.177 HD
ENDROOT
BRANCH   3   5
ATOM      5  N   UNL     1      -0.015   1.294   0.009  0.00  0.00    -0.188 NA
ATOM      6  C   UNL     1       0.002  -0.004   0.002  0.00  0.00    +0.138 C 
BRANCH   6   7
ATOM      7  C   UNL     1      -1.264  -0.758   0.010  0.00  0.00    -0.002 A 
ATOM      8  C   UNL     1      -2.485  -0.078   0.031  0.00  0.00    +0.013 A 
ATOM      9  C   UNL     1      -3.668  -0.786   0.033  0.00  0.00    +0.050 A 
ATOM     10  C   UNL     1      -3.651  -2.173   0.026  0.00  0.00    +0.162 A 
ATOM     11  C   UNL     1      -2.438  -2.858   0.011  0.00  0.00    +0.162 A 
ATOM     12  C   UNL     1      -1.248  -2.156   0.002  0.00  0.00    +0.059 A 
BRANCH  11  13
ATOM     13  O   UNL     1      -2.425  -4.218   0.003  0.00  0.00    -0.491 OA
ATOM     14  C   UNL     1      -1.146  -4.854  -0.013  0.00  0.00    +0.277 C 
ENDBRANCH  11  13
BRANCH  10  15
ATOM     15  O   UNL     1      -4.821  -2.866   0.034  0.00  0.00    -0.484 OA
BRANCH  15  16
ATOM     16  C   UNL     1      -6.028  -2.100   0.049  0.00  0.00    +0.264 C 
BRANCH  16  17
ATOM     17  C   UNL     1      -7.213  -3.032   0.056  0.00  0.00    -0.010 A 
ATOM     18  C   UNL     1      -7.771  -3.448  -1.138  0.00  0.00    +0.007 A 
ATOM     19  C   UNL     1      -8.855  -4.306  -1.131  0.00  0.00    +0.000 A 
ATOM     20  C   UNL     1      -9.387  -4.739   0.069  0.00  0.00    +0.000 A 
ATOM     21  C   UNL     1      -8.832  -4.318   1.263  0.00  0.00    +0.000 A 
ATOM     22  C   UNL     1      -7.744  -3.465   1.256  0.00  0.00    +0.007 A 
ENDBRANCH  16  17
ENDBRANCH  15  16
ENDBRANCH  10  15
ENDBRANCH   6   7
ENDBRANCH   3   5
BRANCH   1  23
ATOM     23  C   UNL     1       2.465   4.129   0.001  0.00  0.00    +0.223 C 
BRANCH  23  35
ATOM     24  C   UNL     1       1.149  11.402   5.509  0.00  0.00    +0.008 C 
ATOM     25  C   UNL     1       1.629  10.432   4.428  0.00  0.00    -0.009 C 
ATOM     26  C   UNL     1       1.056   9.037   4.698  0.00  0.00    +0.008 C 
ATOM     27  C   UNL     1       1.721   8.015   3.775  0.00  0.00    +0.037 C 
ATOM     28  C   UNL     1       1.610   8.505   2.334  0.00  0.00    -0.023 A 
ATOM     29  C   UNL     1       1.348   9.802   2.066  0.00  0.00    -0.004 A 
ATOM     30  S   UNL     1       1.310   9.906   0.297  0.00  0.00    -0.073 S 
ATOM     31  C   UNL     1       1.648   8.204  -0.077  0.00  0.00    +0.116 A 
ATOM     32  C   UNL     1       1.778   7.612   1.189  0.00  0.00    +0.076 A 
ATOM     33  C   UNL     1       2.059   6.206   1.190  0.00  0.00    +0.263 A 
ATOM     34  O   UNL     1       2.190   5.601   2.239  0.00  0.00    -0.267 OA
ATOM     35  N   UNL     1       2.177   5.566   0.011  0.00  0.00    -0.290 N 
ATOM     36  C   UNL     1       2.041   6.225  -1.168  0.00  0.00    +0.203 A 
ATOM     37  N   UNL     1       1.779   7.505  -1.201  0.00  0.00    -0.230 NA
ATOM     38  C   UNL     1       1.136  10.908   3.054  0.00  0.00    +0.046 C 
ENDBRANCH  23  35
ENDBRANCH   1  23
TORSDOF 8
