REMARK  Name = ZINC56206825
REMARK  12 active torsions:
REMARK  status: ('A' for Active; 'I' for Inactive)
REMARK    1  A    between atoms: C_1  and  C_2
REMARK    2  A    between atoms: C_4  and  O_25
REMARK    3  A    between atoms: C_7  and  N_8
REMARK    4  A    between atoms: N_8  and  C_9
REMARK    5  A    between atoms: C_9  and  C_11
REMARK    6  A    between atoms: C_9  and  C_12
REMARK    7  A    between atoms: C_12  and  C_14
REMARK    8  A    between atoms: C_15  and  N_24
REMARK    9  A    between atoms: N_16  and  C_23
REMARK   10  A    between atoms: N_19  and  C_22
REMARK   11  A    between atoms: O_25  and  C_26
REMARK   12  A    between atoms: C_26  and  C_27
REMARK                            x       y       z     vdW  Elec       q    Type
REMARK                         _______ _______ _______ _____ _____    ______ ____
ROOT
ATOM      1  C   UNL     1       0.389  -0.806   3.534  0.00  0.00    +0.139 C 
ATOM      2  C   UNL     1      -1.109  -0.938   3.819  0.00  0.00    +0.036 C 
ENDROOT
BRANCH   1   3
ATOM      3  N   UNL     1       0.583  -0.183   2.222  0.00  0.00    -0.334 N 
ATOM      4  H   UNL     1       0.722   0.774   2.156  0.00  0.00    +0.147 HD
BRANCH   3  11
ATOM      5  C   UNL     1       0.969   1.107  -0.282  0.00  0.00    +0.046 C 
ATOM      6  C   UNL     1       0.753  -0.380  -0.178  0.00  0.00    -0.026 A 
ATOM      7  C   UNL     1       0.744  -1.158  -1.320  0.00  0.00    +0.050 A 
ATOM      8  C   UNL     1       0.545  -2.527  -1.224  0.00  0.00    +0.122 A 
ATOM      9  C   UNL     1       0.355  -3.117   0.017  0.00  0.00    +0.047 A 
ATOM     10  C   UNL     1       0.364  -2.341   1.159  0.00  0.00    +0.027 A 
ATOM     11  C   UNL     1       0.569  -0.970   1.065  0.00  0.00    +0.031 A 
BRANCH   8  12
ATOM     12  O   UNL     1       0.536  -3.293  -2.349  0.00  0.00    -0.483 OA
BRANCH  12  13
ATOM     13  C   UNL     1       0.326  -4.696  -2.177  0.00  0.00    +0.324 C 
BRANCH  13  14
ATOM     14  C   UNL     1       0.348  -5.375  -3.522  0.00  0.00    +0.248 C 
ATOM     15  O   UNL     1       0.526  -4.723  -4.528  0.00  0.00    -0.272 OA
ATOM     16  N   UNL     1       0.170  -6.709  -3.606  0.00  0.00    -0.327 N 
ATOM     17  H   UNL     1       0.027  -7.231  -2.801  0.00  0.00    +0.145 HD
ATOM     18  H   UNL     1       0.184  -7.146  -4.471  0.00  0.00    +0.145 HD
ENDBRANCH  13  14
ENDBRANCH  12  13
ENDBRANCH   8  12
ENDBRANCH   3  11
ENDBRANCH   1   3
BRANCH   1  19
ATOM     19  C   UNL     1       1.029   0.050   4.596  0.00  0.00    +0.191 C 
ATOM     20  O   UNL     1       1.266   1.219   4.372  0.00  0.00    -0.290 OA
BRANCH  19  21
ATOM     21  C   UNL     1       1.353  -0.508   5.851  0.00  0.00    +0.122 A 
ATOM     22  C   UNL     1       1.820   0.297   6.904  0.00  0.00    +0.116 A 
ATOM     23  N   UNL     1       2.120  -0.289   8.101  0.00  0.00    -0.284 N 
ATOM     24  C   UNL     1       1.977  -1.611   8.286  0.00  0.00    +0.333 A 
ATOM     25  O   UNL     1       2.257  -2.084   9.370  0.00  0.00    -0.246 OA
ATOM     26  N   UNL     1       1.535  -2.429   7.318  0.00  0.00    -0.263 N 
ATOM     27  C   UNL     1       1.206  -1.948   6.101  0.00  0.00    +0.269 A 
ATOM     28  O   UNL     1       0.800  -2.692   5.228  0.00  0.00    -0.267 OA
ATOM     29  C   UNL     1       1.402  -3.863   7.588  0.00  0.00    +0.157 C 
ATOM     30  C   UNL     1       2.608   0.542   9.205  0.00  0.00    +0.155 C 
BRANCH  22  31
ATOM     31  N   UNL     1       1.972   1.638   6.734  0.00  0.00    -0.344 N 
ATOM     32  H   UNL     1       1.564   2.080   5.973  0.00  0.00    +0.144 HD
ATOM     33  H   UNL     1       2.489   2.153   7.373  0.00  0.00    +0.144 HD
ENDBRANCH  22  31
ENDBRANCH  19  21
ENDBRANCH   1  19
TORSDOF 8
