REMARK  Name = ZINC40060136
REMARK  4 active torsions:
REMARK  status: ('A' for Active; 'I' for Inactive)
REMARK    1  A    between atoms: C_9  and  C_12
REMARK    2  A    between atoms: N_14  and  N_15
REMARK    3  A    between atoms: C_16  and  C_17
REMARK    4  A    between atoms: C_22  and  O_23
REMARK                            x       y       z     vdW  Elec       q    Type
REMARK                         _______ _______ _______ _____ _____    ______ ____
ROOT
ATOM      1  N   UNL     1      -1.021  -4.996  -0.118  0.00  0.00    -0.187 NA
ATOM      2  C   UNL     1      -0.945  -6.294  -0.224  0.00  0.00    +0.142 C 
ENDROOT
BRANCH   2   3
ATOM      3  C   UNL     1      -2.167  -7.103  -0.217  0.00  0.00    +0.048 A 
ATOM      4  C   UNL     1      -2.093  -8.508  -0.326  0.00  0.00    +0.036 A 
ATOM      5  C   UNL     1      -3.269  -9.275  -0.316  0.00  0.00    +0.137 A 
ATOM      6  C   UNL     1      -4.501  -8.640  -0.201  0.00  0.00    +0.065 A 
ATOM      7  C   UNL     1      -4.574  -7.266  -0.096  0.00  0.00    +0.063 A 
ATOM      8  C   UNL     1      -3.421  -6.491  -0.096  0.00  0.00    +0.140 A 
ATOM      9 BR   UNL     1      -6.262  -6.429   0.058  0.00  0.00    -0.046 Br
ATOM     10  O   UNL     1      -2.907 -10.571  -0.431  0.00  0.00    -0.459 OA
ATOM     11  C   UNL     1      -1.573 -10.689  -0.518  0.00  0.00    +0.109 A 
ATOM     12  C   UNL     1      -1.006  -9.469  -0.460  0.00  0.00    +0.002 A 
ATOM     13  C   UNL     1       0.474  -9.204  -0.523  0.00  0.00    +0.039 C 
ATOM     14  C   UNL     1       1.215 -10.521  -0.257  0.00  0.00    +0.005 C 
ATOM     15  C   UNL     1       0.627 -11.621  -1.145  0.00  0.00    +0.008 C 
ATOM     16  C   UNL     1      -0.784 -11.971  -0.662  0.00  0.00    +0.075 C 
BRANCH   8  17
ATOM     17  O   UNL     1      -3.510  -5.140   0.015  0.00  0.00    -0.505 OA
ATOM     18  H   UNL     1      -3.587  -4.680  -0.832  0.00  0.00    +0.292 HD
ENDBRANCH   8  17
ENDBRANCH   2   3
BRANCH   1  21
ATOM     19  C   UNL     1       0.068  -2.882  -0.014  0.00  0.00    +0.260 C 
ATOM     20  O   UNL     1      -1.018  -2.343   0.091  0.00  0.00    -0.269 OA
ATOM     21  N   UNL     1       0.147  -4.223  -0.124  0.00  0.00    -0.203 N 
ATOM     22  H   UNL     1       1.013  -4.652  -0.209  0.00  0.00    +0.178 HD
BRANCH  19  31
ATOM     23  C   UNL     1      -0.017   1.351  -0.049  0.00  0.00    +0.001 A 
ATOM     24  C   UNL     1       1.166   2.099  -0.055  0.00  0.00    +0.002 A 
ATOM     25  C   UNL     1       2.390   1.509  -0.052  0.00  0.00    +0.024 A 
ATOM     26  C   UNL     1       2.493   0.102  -0.040  0.00  0.00    +0.041 A 
ATOM     27  N   UNL     1       3.689  -0.475  -0.036  0.00  0.00    -0.285 N 
ATOM     28  C   UNL     1       3.866  -1.788  -0.026  0.00  0.00    +0.222 C 
ATOM     29  O   UNL     1       4.991  -2.251  -0.022  0.00  0.00    -0.275 OA
ATOM     30  C   UNL     1       2.669  -2.711  -0.018  0.00  0.00    +0.137 C 
ATOM     31  C   UNL     1       1.295  -2.069  -0.022  0.00  0.00    +0.034 C 
ATOM     32  C   UNL     1       1.245  -0.685  -0.033  0.00  0.00    +0.005 A 
ATOM     33  C   UNL     1       0.002  -0.004  -0.038  0.00  0.00    +0.010 A 
ATOM     34  H   UNL     1       4.474   0.095  -0.041  0.00  0.00    +0.155 HD
ENDBRANCH  19  31
ENDBRANCH   1  21
TORSDOF 4
