REMARK  Name = ZINC35033001
REMARK  9 active torsions:
REMARK  status: ('A' for Active; 'I' for Inactive)
REMARK    1  A    between atoms: C_1  and  C_2
REMARK    2  A    between atoms: N_5  and  C_21
REMARK    3  A    between atoms: N_11  and  C_12
REMARK    4  A    between atoms: C_15  and  C_18
REMARK    5  A    between atoms: C_18  and  C_19
REMARK    6  A    between atoms: C_18  and  C_20
REMARK    7  A    between atoms: C_21  and  C_23
REMARK    8  A    between atoms: C_21  and  C_24
REMARK    9  A    between atoms: N_34  and  C_35
REMARK                            x       y       z     vdW  Elec       q    Type
REMARK                         _______ _______ _______ _____ _____    ______ ____
ROOT
ATOM      1  C   UNL     1       2.214   0.731  -0.396  0.00  0.00    +0.026 C 
ATOM      2  C   UNL     1       1.308  -0.501  -0.352  0.00  0.00    +0.058 C 
ATOM      3  C   UNL     1       1.827  -1.557  -1.334  0.00  0.00    -0.055 C 
ATOM      4  N   UNL     1       1.039  -2.787  -1.191  0.00  0.00    +0.388 N 
ATOM      5  C   UNL     1       1.242  -3.358   0.147  0.00  0.00    -0.058 C 
ATOM      6  C   UNL     1       0.694  -2.392   1.202  0.00  0.00    +0.091 C 
ATOM      7  N   UNL     1       1.318  -1.074   1.003  0.00  0.00    -0.286 N 
ATOM      8  C   UNL     1       1.887  -0.413   2.030  0.00  0.00    +0.307 C 
ATOM      9  O   UNL     1       2.342   0.702   1.859  0.00  0.00    -0.252 OA
ATOM     10  N   UNL     1       1.953  -0.988   3.247  0.00  0.00    -0.269 N 
ATOM     11  H   UNL     1       1.560  -1.863   3.392  0.00  0.00    +0.156 HD
ATOM     12  H   UNL     1       0.061  -2.575  -1.320  0.00  0.00    -0.081 HD
ENDROOT
BRANCH  10  13
ATOM     13  C   UNL     1       2.587  -0.322   4.302  0.00  0.00    +0.035 A 
ATOM     14  C   UNL     1       2.514   1.062   4.396  0.00  0.00    +0.023 A 
ATOM     15  C   UNL     1       3.141   1.716   5.438  0.00  0.00    +0.006 A 
ATOM     16  C   UNL     1       3.840   0.995   6.389  0.00  0.00    -0.045 A 
ATOM     17  C   UNL     1       3.915  -0.383   6.298  0.00  0.00    +0.006 A 
ATOM     18  C   UNL     1       3.286  -1.044   5.261  0.00  0.00    +0.023 A 
BRANCH  16  19
ATOM     19  C   UNL     1       4.523   1.712   7.525  0.00  0.00    +0.013 C 
ATOM     20  C   UNL     1       3.948   1.222   8.855  0.00  0.00    +0.012 C 
ATOM     21  C   UNL     1       6.025   1.424   7.481  0.00  0.00    +0.012 C 
ENDBRANCH  16  19
ENDBRANCH  10  13
BRANCH   4  22
ATOM     22  C   UNL     1       1.464  -3.760  -2.206  0.00  0.00    -0.004 C 
ATOM     23  C   UNL     1       0.599  -5.018  -2.101  0.00  0.00    -0.005 C 
BRANCH  22  24
ATOM     24  C   UNL     1       1.307  -3.156  -3.577  0.00  0.00    +0.099 A 
ATOM     25  N   UNL     1       0.253  -2.438  -3.817  0.00  0.00    -0.235 NA
ATOM     26  C   UNL     1       0.044  -1.863  -5.028  0.00  0.00    +0.078 A 
ATOM     27  C   UNL     1      -1.090  -1.090  -5.286  0.00  0.00    +0.030 A 
ATOM     28  C   UNL     1      -1.262  -0.524  -6.529  0.00  0.00    +0.022 A 
ATOM     29  C   UNL     1      -0.319  -0.713  -7.533  0.00  0.00    +0.042 A 
ATOM     30  C   UNL     1       0.808  -1.472  -7.302  0.00  0.00    +0.035 A 
ATOM     31  C   UNL     1       1.000  -2.052  -6.050  0.00  0.00    +0.066 A 
ATOM     32  C   UNL     1       2.183  -2.870  -5.746  0.00  0.00    +0.262 A 
ATOM     33  O   UNL     1       3.045  -3.072  -6.582  0.00  0.00    -0.267 OA
ATOM     34  N   UNL     1       2.280  -3.386  -4.498  0.00  0.00    -0.301 N 
ATOM     35  C   UNL     1       3.441  -4.204  -4.138  0.00  0.00    +0.153 C 
ATOM     36 CL   UNL     1      -0.564   0.014  -9.091  0.00  0.00    -0.084 Cl
ENDBRANCH  22  24
ENDBRANCH   4  22
TORSDOF 4
