REMARK  Name = ZINC09318471
REMARK  7 active torsions:
REMARK  status: ('A' for Active; 'I' for Inactive)
REMARK    1  A    between atoms: C_1  and  C_2
REMARK    2  A    between atoms: C_5  and  N_9
REMARK    3  A    between atoms: C_7  and  C_8
REMARK    4  A    between atoms: C_12  and  C_18
REMARK    5  A    between atoms: C_13  and  O_17
REMARK    6  A    between atoms: C_15  and  O_16
REMARK    7  A    between atoms: C_32  and  N_55
REMARK                            x       y       z     vdW  Elec       q    Type
REMARK                         _______ _______ _______ _____ _____    ______ ____
ROOT
ATOM      1  N   UNL     1       3.650   3.525   3.187  0.00  0.00    -0.231 N 
ATOM      2  C   UNL     1       2.846   2.881   2.315  0.00  0.00    +0.267 A 
ATOM      3  O   UNL     1       1.978   2.122   2.714  0.00  0.00    -0.267 OA
ATOM      4  C   UNL     1       3.027   3.099   0.943  0.00  0.00    +0.071 A 
ATOM      5  C   UNL     1       4.027   3.962   0.533  0.00  0.00    +0.224 A 
ATOM      6  N   UNL     1       4.789   4.577   1.444  0.00  0.00    -0.161 NA
ATOM      7  C   UNL     1       4.615   4.369   2.730  0.00  0.00    +0.306 A 
ENDROOT
BRANCH   4   8
ATOM      8  C   UNL     1       2.152   2.401  -0.067  0.00  0.00    +0.021 C 
ATOM      9  C   UNL     1       2.397   0.912  -0.007  0.00  0.00    +0.011 A 
ATOM     10  C   UNL     1       1.399  -0.001  -0.036  0.00  0.00    -0.022 A 
ATOM     11  C   UNL     1       2.013  -1.308   0.045  0.00  0.00    +0.003 A 
ATOM     12  C   UNL     1       1.490  -2.605   0.059  0.00  0.00    +0.010 A 
ATOM     13  C   UNL     1       2.391  -3.637   0.149  0.00  0.00    +0.001 A 
ATOM     14  C   UNL     1       3.757  -3.417   0.222  0.00  0.00    +0.002 A 
ATOM     15  C   UNL     1       4.302  -2.145   0.209  0.00  0.00    +0.026 A 
ATOM     16  C   UNL     1       3.411  -1.077   0.119  0.00  0.00    +0.047 A 
ATOM     17  N   UNL     1       3.604   0.274   0.084  0.00  0.00    -0.359 N 
ATOM     18  H   UNL     1       4.467   0.716   0.118  0.00  0.00    +0.166 HD
ATOM     19  C   UNL     1      -0.060   0.365  -0.141  0.00  0.00    +0.019 C 
ATOM     20  C   UNL     1      -0.151   1.830  -0.587  0.00  0.00    -0.073 C 
ATOM     21  C   UNL     1       0.414   4.080   0.108  0.00  0.00    -0.095 C 
ATOM     22  N   UNL     1       0.731   2.647   0.276  0.00  0.00    +0.387 N 
ATOM     23  H   UNL     1       0.575   2.384   1.256  0.00  0.00    -0.081 HD
ENDBRANCH   4   8
BRANCH   1  28
ATOM     24  C   UNL     1       3.005   2.714   8.766  0.00  0.00    +0.044 C 
ATOM     25  C   UNL     1       3.176   2.929   7.285  0.00  0.00    -0.047 A 
ATOM     26  C   UNL     1       4.034   2.118   6.564  0.00  0.00    +0.005 A 
ATOM     27  C   UNL     1       4.193   2.313   5.206  0.00  0.00    +0.027 A 
ATOM     28  C   UNL     1       3.491   3.324   4.564  0.00  0.00    +0.055 A 
ATOM     29  C   UNL     1       2.635   4.141   5.291  0.00  0.00    +0.030 A 
ATOM     30  C   UNL     1       2.476   3.937   6.648  0.00  0.00    -0.046 A 
ATOM     31  C   UNL     1       1.542   4.818   7.437  0.00  0.00    +0.044 C 
ENDBRANCH   1  28
BRANCH   7  32
ATOM     32  O   UNL     1       5.409   5.005   3.615  0.00  0.00    -0.479 OA
ATOM     33  H   UNL     1       6.083   5.597   3.254  0.00  0.00    +0.295 HD
ENDBRANCH   7  32
BRANCH   5  34
ATOM     34  O   UNL     1       4.230   4.189  -0.786  0.00  0.00    -0.492 OA
ATOM     35  H   UNL     1       4.950   4.807  -0.973  0.00  0.00    +0.294 HD
ENDBRANCH   5  34
TORSDOF 4
