REMARK  Name = ZINC12617930
REMARK  10 active torsions:
REMARK  status: ('A' for Active; 'I' for Inactive)
REMARK    1  A    between atoms: C_1  and  C_2
REMARK    2  A    between atoms: C_5  and  N_9
REMARK    3  A    between atoms: C_6  and  C_8
REMARK    4  A    between atoms: C_10  and  C_28
REMARK    5  A    between atoms: C_13  and  S_14
REMARK    6  A    between atoms: S_14  and  C_15
REMARK    7  A    between atoms: C_15  and  C_16
REMARK    8  A    between atoms: N_18  and  C_19
REMARK    9  A    between atoms: C_22  and  N_25
REMARK   10  A    between atoms: C_28  and  C_29
REMARK                            x       y       z     vdW  Elec       q    Type
REMARK                         _______ _______ _______ _____ _____    ______ ____
ROOT
ATOM      1  N   UNL     1       3.579   2.138  -0.020  0.00  0.00    -0.274 N 
ATOM      2  C   UNL     1       4.296   2.564   1.067  0.00  0.00    +0.143 A 
ATOM      3  N   UNL     1       5.343   3.196   0.617  0.00  0.00    -0.133 NA
ATOM      4  N   UNL     1       5.340   3.200  -0.668  0.00  0.00    -0.122 NA
ATOM      5  C   UNL     1       4.284   2.560  -1.114  0.00  0.00    +0.197 A 
ENDROOT
BRANCH   1  10
ATOM      6  C   UNL     1      -1.284  -0.788   0.011  0.00  0.00    +0.044 C 
ATOM      7  C   UNL     1       0.007  -0.011   0.003  0.00  0.00    -0.050 A 
ATOM      8  C   UNL     1      -0.019   1.372   0.004  0.00  0.00    +0.005 A 
ATOM      9  C   UNL     1       1.162   2.086  -0.003  0.00  0.00    +0.027 A 
ATOM     10  C   UNL     1       2.378   1.415  -0.013  0.00  0.00    +0.053 A 
ATOM     11  C   UNL     1       2.401   0.028  -0.014  0.00  0.00    -0.026 A 
ATOM     12  C   UNL     1       1.216  -0.682  -0.006  0.00  0.00    +0.008 A 
ATOM     13  C   UNL     1       3.718  -0.705  -0.025  0.00  0.00    +0.046 C 
ENDBRANCH   1  10
BRANCH   5  14
ATOM     14  S   UNL     1       3.853   2.298  -2.803  0.00  0.00    -0.076 S 
BRANCH  14  15
ATOM     15  C   UNL     1       5.240   3.131  -3.614  0.00  0.00    +0.173 C 
BRANCH  15  16
ATOM     16  C   UNL     1       5.081   3.033  -5.109  0.00  0.00    +0.227 C 
ATOM     17  O   UNL     1       4.124   2.455  -5.580  0.00  0.00    -0.275 OA
ATOM     18  N   UNL     1       6.002   3.586  -5.923  0.00  0.00    -0.285 N 
ATOM     19  H   UNL     1       6.731   4.104  -5.548  0.00  0.00    +0.155 HD
BRANCH  18  20
ATOM     20  C   UNL     1       5.906   3.412  -7.308  0.00  0.00    +0.034 A 
ATOM     21  C   UNL     1       7.058   3.295  -8.075  0.00  0.00    +0.025 A 
ATOM     22  C   UNL     1       6.960   3.117  -9.442  0.00  0.00    +0.034 A 
ATOM     23  C   UNL     1       5.717   3.067 -10.047  0.00  0.00    +0.126 A 
ATOM     24  C   UNL     1       4.569   3.189  -9.286  0.00  0.00    +0.034 A 
ATOM     25  C   UNL     1       4.660   3.361  -7.918  0.00  0.00    +0.025 A 
BRANCH  23  26
ATOM     26  N   UNL     1       5.616   2.883 -11.512  0.00  0.00    +0.056 N 
ATOM     27  O   UNL     1       4.522   2.838 -12.046  0.00  0.00    -0.126 OA
ATOM     28  O   UNL     1       6.627   2.775 -12.183  0.00  0.00    -0.126 OA
ENDBRANCH  23  26
ENDBRANCH  18  20
ENDBRANCH  15  16
ENDBRANCH  14  15
ENDBRANCH   5  14
BRANCH   2  29
ATOM     29  C   UNL     1       3.939   2.343   2.514  0.00  0.00    +0.112 C 
BRANCH  29  30
ATOM     30  C   UNL     1       4.553   1.051   2.991  0.00  0.00    -0.032 A 
ATOM     31  C   UNL     1       3.823  -0.098   2.979  0.00  0.00    +0.004 A 
ATOM     32  C   UNL     1       4.375  -1.303   3.410  0.00  0.00    +0.001 A 
ATOM     33  C   UNL     1       5.656  -1.363   3.867  0.00  0.00    +0.008 A 
ATOM     34  C   UNL     1       6.438  -0.197   3.900  0.00  0.00    -0.018 A 
ATOM     35  C   UNL     1       5.878   1.028   3.456  0.00  0.00    -0.014 A 
ATOM     36  C   UNL     1       6.661   2.195   3.489  0.00  0.00    +0.009 A 
ATOM     37  C   UNL     1       7.941   2.134   3.946  0.00  0.00    +0.001 A 
ATOM     38  C   UNL     1       8.491   0.931   4.383  0.00  0.00    +0.001 A 
ATOM     39  C   UNL     1       7.764  -0.220   4.366  0.00  0.00    +0.008 A 
ENDBRANCH  29  30
ENDBRANCH   2  29
TORSDOF 8
