REMARK  Name = ZINC21229327
REMARK  11 active torsions:
REMARK  status: ('A' for Active; 'I' for Inactive)
REMARK    1  A    between atoms: C_1  and  C_2
REMARK    2  A    between atoms: C_2  and  O_3
REMARK    3  A    between atoms: O_3  and  C_4
REMARK    4  A    between atoms: C_7  and  C_10
REMARK    5  A    between atoms: C_15  and  C_20
REMARK    6  A    between atoms: C_23  and  O_28
REMARK    7  A    between atoms: C_24  and  O_26
REMARK    8  A    between atoms: O_26  and  C_27
REMARK    9  A    between atoms: O_28  and  C_29
REMARK   10  A    between atoms: C_29  and  C_30
REMARK   11  A    between atoms: C_29  and  C_31
REMARK                            x       y       z     vdW  Elec       q    Type
REMARK                         _______ _______ _______ _____ _____    ______ ____
ROOT
ATOM      1  C   UNL     1      -1.886   0.567  -0.345  0.00  0.00    +0.136 C 
ATOM      2  C   UNL     1      -2.073   1.232  -1.689  0.00  0.00    +0.036 C 
ATOM      3  C   UNL     1      -1.704   2.483  -2.007  0.00  0.00    +0.017 C 
ATOM      4  C   UNL     1      -1.919   3.012  -3.416  0.00  0.00    +0.059 C 
ATOM      5  C   UNL     1      -3.185   2.400  -4.014  0.00  0.00    +0.032 C 
ATOM      6  C   UNL     1      -2.999   0.878  -4.042  0.00  0.00    +0.088 C 
ATOM      7  C   UNL     1      -2.702   0.407  -2.650  0.00  0.00    +0.163 C 
ATOM      8  O   UNL     1      -3.013  -0.726  -2.337  0.00  0.00    -0.292 OA
ATOM      9  N   UNL     1      -1.117   3.361  -1.155  0.00  0.00    -0.316 N 
ATOM     10  C   UNL     1      -0.049   3.059  -0.318  0.00  0.00    +0.052 A 
ATOM     11  C   UNL     1       1.176   3.695  -0.426  0.00  0.00    +0.025 A 
ATOM     12  C   UNL     1       2.164   3.427   0.507  0.00  0.00    +0.002 A 
ATOM     13  C   UNL     1       1.929   2.531   1.534  0.00  0.00    +0.002 A 
ATOM     14  C   UNL     1       0.712   1.880   1.631  0.00  0.00    +0.025 A 
ATOM     15  C   UNL     1      -0.273   2.133   0.689  0.00  0.00    +0.049 A 
ATOM     16  N   UNL     1      -1.498   1.468   0.719  0.00  0.00    -0.331 N 
ATOM     17  H   UNL     1      -1.484   4.397  -1.094  0.00  0.00    +0.152 HD
ATOM     18  H   UNL     1      -2.174   1.638   1.570  0.00  0.00    +0.147 HD
ENDROOT
BRANCH   1  22
ATOM     19  C   UNL     1       1.114  -2.450  -0.742  0.00  0.00    +0.121 A 
ATOM     20  C   UNL     1      -0.198  -2.807  -0.466  0.00  0.00    +0.046 A 
ATOM     21  C   UNL     1      -1.165  -1.829  -0.336  0.00  0.00    +0.009 A 
ATOM     22  C   UNL     1      -0.827  -0.496  -0.481  0.00  0.00    -0.023 A 
ATOM     23  C   UNL     1       0.479  -0.138  -0.757  0.00  0.00    +0.009 A 
ATOM     24  C   UNL     1       1.451  -1.112  -0.887  0.00  0.00    +0.046 A 
BRANCH  19  25
ATOM     25  O   UNL     1       2.068  -3.409  -0.870  0.00  0.00    -0.492 OA
BRANCH  25  27
ATOM     26  C   UNL     1       4.324  -4.182  -1.262  0.00  0.00    +0.048 C 
ATOM     27  C   UNL     1       3.397  -2.969  -1.155  0.00  0.00    +0.225 C 
ENDBRANCH  25  27
ENDBRANCH  19  25
ENDBRANCH   1  22
BRANCH   5  28
ATOM     28  C   UNL     1      -3.389   2.916  -5.415  0.00  0.00    -0.040 A 
ATOM     29  C   UNL     1      -2.426   2.690  -6.380  0.00  0.00    +0.008 A 
ATOM     30  C   UNL     1      -2.608   3.161  -7.667  0.00  0.00    +0.050 A 
ATOM     31  C   UNL     1      -3.759   3.861  -7.992  0.00  0.00    +0.162 A 
ATOM     32  C   UNL     1      -4.729   4.088  -7.020  0.00  0.00    +0.162 A 
ATOM     33  C   UNL     1      -4.542   3.609  -5.733  0.00  0.00    +0.053 A 
BRANCH  32  34
ATOM     34  O   UNL     1      -5.861   4.775  -7.334  0.00  0.00    -0.491 OA
ATOM     35  C   UNL     1      -6.812   4.970  -6.286  0.00  0.00    +0.277 C 
ENDBRANCH  32  34
BRANCH  31  36
ATOM     36  O   UNL     1      -3.941   4.325  -9.257  0.00  0.00    -0.486 OA
BRANCH  36  37
ATOM     37  C   UNL     1      -2.853   4.162 -10.170  0.00  0.00    +0.167 C 
ATOM     38  C   UNL     1      -2.926   2.774 -10.808  0.00  0.00    +0.051 C 
ATOM     39  C   UNL     1      -2.940   5.231 -11.261  0.00  0.00    +0.051 C 
ENDBRANCH  36  37
ENDBRANCH  31  36
ENDBRANCH   5  28
TORSDOF 7
