REMARK  Name = ZINC59099453
REMARK  13 active torsions:
REMARK  status: ('A' for Active; 'I' for Inactive)
REMARK    1  A    between atoms: C_1  and  C_2
REMARK    2  A    between atoms: C_5  and  N_9
REMARK    3  A    between atoms: N_9  and  C_10
REMARK    4  A    between atoms: C_10  and  N_12
REMARK    5  A    between atoms: N_12  and  C_13
REMARK    6  A    between atoms: N_12  and  C_22
REMARK    7  A    between atoms: C_13  and  C_14
REMARK    8  A    between atoms: C_19  and  O_20
REMARK    9  A    between atoms: O_20  and  C_21
REMARK   10  A    between atoms: C_24  and  C_30
REMARK   11  A    between atoms: C_24  and  C_31
REMARK   12  A    between atoms: C_26  and  C_28
REMARK   13  A    between atoms: C_26  and  C_29
REMARK                            x       y       z     vdW  Elec       q    Type
REMARK                         _______ _______ _______ _____ _____    ______ ____
ROOT
ATOM      1  N   UNL     1       0.143  -6.258   1.065  0.00  0.00    -0.305 N 
ENDROOT
BRANCH   1   2
ATOM      2  C   UNL     1       0.213  -6.964  -0.220  0.00  0.00    +0.073 C 
ATOM      3  C   UNL     1      -1.066  -6.691  -1.014  0.00  0.00    +0.009 C 
ATOM      4  C   UNL     1      -1.003  -7.410  -2.361  0.00  0.00    -0.072 C 
ATOM      5  N   UNL     1       0.199  -7.072  -3.107  0.00  0.00    +0.386 N 
ATOM      6  C   UNL     1       1.466  -7.098  -2.394  0.00  0.00    -0.072 C 
ATOM      7  C   UNL     1       1.399  -6.432  -1.024  0.00  0.00    +0.009 C 
ATOM      8  C   UNL     1       2.491  -6.304  -3.239  0.00  0.00    -0.010 C 
ATOM      9  C   UNL     1       2.010  -8.522  -2.256  0.00  0.00    -0.010 C 
ATOM     10  C   UNL     1      -1.153  -8.918  -2.162  0.00  0.00    -0.010 C 
ATOM     11  C   UNL     1      -2.218  -6.934  -3.191  0.00  0.00    -0.010 C 
ATOM     12  H   UNL     1       0.268  -7.704  -3.909  0.00  0.00    -0.084 HD
ATOM     13  H   UNL     1       0.076  -6.140  -3.510  0.00  0.00    -0.084 HD
ENDBRANCH   1   2
BRANCH   1  14
ATOM     14  C   UNL     1       0.113  -4.911   1.093  0.00  0.00    +0.138 C 
ATOM     15  S   UNL     1       0.134  -4.085   2.593  0.00  0.00    -0.018 S 
BRANCH  14  16
ATOM     16  N   UNL     1       0.066  -4.214  -0.059  0.00  0.00    -0.297 N 
ATOM     17  H   UNL     1      -0.026  -4.681  -0.905  0.00  0.00    +0.154 HD
BRANCH  16  22
ATOM     18  C   UNL     1       0.405   1.449   0.031  0.00  0.00    +0.045 C 
ATOM     19  C   UNL     1       0.315  -0.055   0.007  0.00  0.00    -0.032 A 
ATOM     20  C   UNL     1       1.125  -0.782  -0.846  0.00  0.00    +0.006 A 
ATOM     21  C   UNL     1       1.045  -2.160  -0.870  0.00  0.00    +0.023 A 
ATOM     22  C   UNL     1       0.149  -2.818  -0.036  0.00  0.00    +0.034 A 
ATOM     23  C   UNL     1      -0.663  -2.087   0.820  0.00  0.00    +0.043 A 
ATOM     24  C   UNL     1      -0.575  -0.707   0.844  0.00  0.00    +0.046 A 
ATOM     25 CL   UNL     1      -1.585   0.208   1.918  0.00  0.00    -0.083 Cl
ENDBRANCH  16  22
ENDBRANCH  14  16
ENDBRANCH   1  14
BRANCH   1  26
ATOM     26  C   UNL     1       0.107  -7.018   2.318  0.00  0.00    +0.145 C 
BRANCH  26  27
ATOM     27  C   UNL     1      -1.325  -7.309   2.687  0.00  0.00    +0.011 A 
ATOM     28  C   UNL     1      -1.967  -6.532   3.632  0.00  0.00    +0.009 A 
ATOM     29  C   UNL     1      -3.280  -6.799   3.971  0.00  0.00    +0.001 A 
ATOM     30  C   UNL     1      -3.955  -7.844   3.366  0.00  0.00    +0.004 A 
ATOM     31  C   UNL     1      -3.317  -8.623   2.421  0.00  0.00    +0.046 A 
ATOM     32  C   UNL     1      -2.001  -8.354   2.074  0.00  0.00    +0.125 A 
BRANCH  32  33
ATOM     33  O   UNL     1      -1.374  -9.115   1.140  0.00  0.00    -0.495 OA
ATOM     34  C   UNL     1      -2.131 -10.174   0.550  0.00  0.00    +0.277 C 
ENDBRANCH  32  33
ENDBRANCH  26  27
ENDBRANCH   1  26
TORSDOF 7
