REMARK  Name = ZINC63557668
REMARK  6 active torsions:
REMARK  status: ('A' for Active; 'I' for Inactive)
REMARK    1  A    between atoms: C_1  and  C_2
REMARK    2  A    between atoms: C_6  and  N_9
REMARK    3  A    between atoms: C_10  and  C_12
REMARK    4  A    between atoms: N_17  and  C_19
REMARK    5  A    between atoms: C_19  and  C_20
REMARK    6  A    between atoms: C_20  and  C_21
REMARK                            x       y       z     vdW  Elec       q    Type
REMARK                         _______ _______ _______ _____ _____    ______ ____
ROOT
ATOM      1  C   UNL     1      -0.636  -3.249   5.292  0.00  0.00    +0.101 C 
ATOM      2  C   UNL     1      -0.951  -1.905   5.989  0.00  0.00    +0.110 C 
ATOM      3  C   UNL     1      -0.586  -2.144   7.437  0.00  0.00    +0.216 C 
ATOM      4  O   UNL     1      -0.936  -1.447   8.366  0.00  0.00    -0.276 OA
ATOM      5  N   UNL     1       0.184  -3.241   7.545  0.00  0.00    -0.300 N 
ATOM      6  C   UNL     1       0.431  -3.850   6.233  0.00  0.00    +0.121 C 
ENDROOT
BRANCH   1   8
ATOM      7  N   UNL     1      -0.834  -2.445   2.961  0.00  0.00    -0.290 N 
ATOM      8  C   UNL     1      -0.074  -3.023   3.912  0.00  0.00    +0.220 C 
ATOM      9  O   UNL     1       1.063  -3.361   3.658  0.00  0.00    -0.275 OA
ATOM     10  H   UNL     1      -1.743  -2.175   3.164  0.00  0.00    +0.151 HD
BRANCH   7  15
ATOM     11  C   UNL     1      -0.019   1.526   0.010  0.00  0.00    +0.037 C 
ATOM     12  C   UNL     1       0.002  -0.004   0.002  0.00  0.00    +0.126 C 
ATOM     13  N   UNL     1      -1.375  -0.573   0.125  0.00  0.00    -0.242 NA
ATOM     14  N   UNL     1      -1.367  -1.922   0.650  0.00  0.00    -0.227 NA
ATOM     15  C   UNL     1      -0.286  -2.225   1.620  0.00  0.00    +0.216 C 
ATOM     16  S   UNL     1       0.724  -0.682   1.563  0.00  0.00    -0.102 S 
ATOM     17  H   UNL     1      -1.864  -0.531  -0.757  0.00  0.00    +0.142 HD
ATOM     18  H   UNL     1      -1.383  -2.601  -0.096  0.00  0.00    +0.143 HD
ENDBRANCH   7  15
ENDBRANCH   1   8
BRANCH   5  19
ATOM     19  C   UNL     1       0.707  -3.762   8.810  0.00  0.00    +0.112 C 
BRANCH  19  20
ATOM     20  C   UNL     1      -0.291  -4.757   9.405  0.00  0.00    +0.052 C 
BRANCH  20  21
ATOM     21  C   UNL     1       0.247  -5.293  10.706  0.00  0.00    -0.040 C 
ATOM     22  C   UNL     1      -0.027  -4.836  11.949  0.00  0.00    +0.000 A 
ATOM     23  C   UNL     1      -0.876  -3.745  12.443  0.00  0.00    +0.030 A 
ATOM     24  C   UNL     1      -0.951  -3.524  13.775  0.00  0.00    +0.042 A 
ATOM     25  C   UNL     1      -0.239  -4.309  14.694  0.00  0.00    +0.022 A 
ATOM     26  C   UNL     1       0.561  -5.328  14.317  0.00  0.00    +0.027 A 
ATOM     27  C   UNL     1       0.714  -5.650  12.940  0.00  0.00    +0.043 A 
ATOM     28  N   UNL     1       1.418  -6.573  12.332  0.00  0.00    -0.380 N 
ATOM     29  C   UNL     1       1.199  -6.454  10.887  0.00  0.00    +0.144 C 
ATOM     30 CL   UNL     1      -1.954  -2.235  14.363  0.00  0.00    -0.084 Cl
ATOM     31  H   UNL     1       1.987  -7.229  12.767  0.00  0.00    +0.160 HD
ENDBRANCH  20  21
ENDBRANCH  19  20
ENDBRANCH   5  19
TORSDOF 5
