REMARK  Name = ZINC64481118
REMARK  6 active torsions:
REMARK  status: ('A' for Active; 'I' for Inactive)
REMARK    1  A    between atoms: C_1  and  C_2
REMARK    2  A    between atoms: C_7  and  C_8
REMARK    3  A    between atoms: C_11  and  C_15
REMARK    4  A    between atoms: C_16  and  N_23
REMARK    5  A    between atoms: C_19  and  N_21
REMARK    6  A    between atoms: N_21  and  C_22
REMARK                            x       y       z     vdW  Elec       q    Type
REMARK                         _______ _______ _______ _____ _____    ______ ____
ROOT
ATOM      1  C   UNL     1      -0.067  -0.131   2.595  0.00  0.00    +0.181 C 
ATOM      2  N   UNL     1      -0.502  -1.106   3.618  0.00  0.00    -0.266 NA
ATOM      3  C   UNL     1      -1.757  -0.572   4.193  0.00  0.00    +0.241 C 
ATOM      4  O   UNL     1      -1.696   0.852   3.952  0.00  0.00    -0.275 OA
ATOM      5  N   UNL     1      -1.083   0.949   2.608  0.00  0.00    -0.177 NA
ATOM      6  H   UNL     1      -0.650  -2.017   3.209  0.00  0.00    +0.127 HD
ATOM      7  H   UNL     1      -0.653   1.851   2.469  0.00  0.00    +0.156 HD
ENDROOT
BRANCH   1  14
ATOM      8  C   UNL     1       2.341  -1.461   1.714  0.00  0.00    +0.044 C 
ATOM      9  C   UNL     1       1.131  -1.422   0.817  0.00  0.00    -0.044 A 
ATOM     10  C   UNL     1       1.171  -2.028  -0.425  0.00  0.00    +0.004 A 
ATOM     11  C   UNL     1       0.061  -1.992  -1.248  0.00  0.00    +0.000 A 
ATOM     12  C   UNL     1      -1.090  -1.351  -0.828  0.00  0.00    +0.000 A 
ATOM     13  C   UNL     1      -1.131  -0.746   0.414  0.00  0.00    +0.007 A 
ATOM     14  C   UNL     1      -0.021  -0.785   1.239  0.00  0.00    -0.011 A 
ENDBRANCH   1  14
BRANCH   3  15
ATOM     15  C   UNL     1      -1.819  -0.855   5.672  0.00  0.00    +0.023 C 
ATOM     16  C   UNL     1      -0.843  -1.318   6.467  0.00  0.00    +0.113 C 
ATOM     17  N   UNL     1      -1.286  -1.442   7.743  0.00  0.00    -0.270 N 
ATOM     18  N   UNL     1      -2.463  -1.114   7.909  0.00  0.00    -0.222 NA
ATOM     19  C   UNL     1      -3.000  -0.676   6.610  0.00  0.00    +0.103 C 
ATOM     20  H   UNL     1      -0.723  -1.763   8.465  0.00  0.00    +0.190 HD
BRANCH  19  21
ATOM     21  N   UNL     1      -4.122  -1.531   6.201  0.00  0.00    +0.396 N 
ATOM     22  C   UNL     1      -5.287  -1.250   7.051  0.00  0.00    -0.097 C 
ATOM     23  H   UNL     1      -4.355  -1.342   5.237  0.00  0.00    -0.083 HD
ATOM     24  H   UNL     1      -3.860  -2.500   6.299  0.00  0.00    -0.083 HD
ENDBRANCH  19  21
BRANCH  16  25
ATOM     25  N   UNL     1       0.450  -1.629   6.040  0.00  0.00    -0.343 N 
ATOM     26  H   UNL     1       0.694  -1.513   5.108  0.00  0.00    +0.144 HD
ATOM     27  H   UNL     1       1.104  -1.960   6.675  0.00  0.00    +0.144 HD
ENDBRANCH  16  25
ENDBRANCH   3  15
TORSDOF 4
