REMARK  Name = ZINC19326335
REMARK  3 active torsions:
REMARK  status: ('A' for Active; 'I' for Inactive)
REMARK    1  A    between atoms: C_1  and  C_2
REMARK    2  A    between atoms: C_5  and  N_16
REMARK    3  A    between atoms: C_13  and  O_15
REMARK                            x       y       z     vdW  Elec       q    Type
REMARK                         _______ _______ _______ _____ _____    ______ ____
ROOT
ATOM      1  C   UNL     1      -0.024   1.508  -0.015  0.00  0.00    +0.062 C 
ATOM      2  C   UNL     1      -0.002   0.001  -0.013  0.00  0.00    +0.033 C 
ATOM      3  N   UNL     1       0.007  -0.743  -1.075  0.00  0.00    -0.181 N 
ATOM      4  O   UNL     1       0.028  -0.261  -2.406  0.00  0.00    -0.170 OA
ATOM      5  C   UNL     1      -0.010  -2.129  -0.698  0.00  0.00    +0.081 C 
ATOM      6  C   UNL     1       0.553  -3.224  -1.549  0.00  0.00    +0.021 C 
ATOM      7  C   UNL     1      -0.019  -4.563  -1.038  0.00  0.00    +0.061 C 
ATOM      8  C   UNL     1      -0.078  -4.565   0.473  0.00  0.00    +0.110 A 
ATOM      9  C   UNL     1       0.224  -3.447   1.306  0.00  0.00    +0.140 A 
ATOM     10  N   UNL     1       0.061  -3.770   2.543  0.00  0.00    -0.051 NA
ATOM     11  O   UNL     1      -0.346  -5.130   2.578  0.00  0.00    -0.242 OA
ATOM     12  N   UNL     1      -0.411  -5.565   1.229  0.00  0.00    -0.054 NA
ATOM     13  C   UNL     1       0.674  -2.153   0.702  0.00  0.00    +0.128 C 
ATOM     14  C   UNL     1       0.021  -0.873   1.244  0.00  0.00    +0.093 C 
ENDROOT
BRANCH   5  15
ATOM     15  N   UNL     1      -1.416  -2.480  -0.460  0.00  0.00    +0.398 N 
ATOM     16  H   UNL     1      -1.964  -2.247  -1.274  0.00  0.00    -0.086 HD
ATOM     17  H   UNL     1      -1.489  -3.470  -0.277  0.00  0.00    -0.086 HD
ATOM     18  H   UNL     1      -1.761  -1.965   0.336  0.00  0.00    -0.086 HD
ENDBRANCH   5  15
BRANCH  13  19
ATOM     19  O   UNL     1       2.098  -2.057   0.629  0.00  0.00    -0.381 OA
ATOM     20  H   UNL     1       2.538  -2.070   1.491  0.00  0.00    +0.211 HD
ENDBRANCH  13  19
TORSDOF 2
