REMARK  Name = ZINC36545255
REMARK  15 active torsions:
REMARK  status: ('A' for Active; 'I' for Inactive)
REMARK    1  A    between atoms: C_1  and  C_2
REMARK    2  A    between atoms: C_2  and  C_3
REMARK    3  A    between atoms: C_2  and  C_4
REMARK    4  A    between atoms: C_2  and  N_5
REMARK    5  A    between atoms: C_6  and  C_8
REMARK    6  A    between atoms: C_8  and  C_10
REMARK    7  A    between atoms: C_8  and  N_20
REMARK    8  A    between atoms: C_13  and  O_18
REMARK    9  A    between atoms: C_14  and  O_16
REMARK   10  A    between atoms: O_16  and  C_17
REMARK   11  A    between atoms: O_18  and  C_19
REMARK   12  A    between atoms: N_20  and  C_21
REMARK   13  A    between atoms: C_28  and  C_30
REMARK   14  A    between atoms: C_31  and  O_37
REMARK   15  A    between atoms: C_35  and  O_36
REMARK                            x       y       z     vdW  Elec       q    Type
REMARK                         _______ _______ _______ _____ _____    ______ ____
ROOT
ATOM      1  N   UNL     1       4.103  -0.091  -2.480  0.00  0.00    -0.250 N 
ATOM      2  C   UNL     1       4.731  -0.297  -3.655  0.00  0.00    +0.259 C 
ATOM      3  O   UNL     1       4.109  -0.723  -4.610  0.00  0.00    -0.269 OA
ENDROOT
BRANCH   1   4
ATOM      4  C   UNL     1       4.800   0.468  -1.403  0.00  0.00    +0.056 A 
ATOM      5  C   UNL     1       5.510  -0.350  -0.534  0.00  0.00    +0.025 A 
ATOM      6  C   UNL     1       6.198   0.204   0.528  0.00  0.00    +0.002 A 
ATOM      7  C   UNL     1       6.180   1.573   0.727  0.00  0.00    +0.002 A 
ATOM      8  C   UNL     1       5.474   2.391  -0.136  0.00  0.00    +0.022 A 
ATOM      9  C   UNL     1       4.788   1.843  -1.204  0.00  0.00    +0.062 A 
ATOM     10 CL   UNL     1       3.908   2.871  -2.291  0.00  0.00    -0.082 Cl
ENDBRANCH   1   4
BRANCH   2  11
ATOM     11  C   UNL     1       6.168  -0.007  -3.782  0.00  0.00    +0.120 A 
ATOM     12  C   UNL     1       7.119  -0.961  -3.390  0.00  0.00    +0.133 A 
ATOM     13  C   UNL     1       8.469  -0.678  -3.515  0.00  0.00    +0.046 A 
ATOM     14  C   UNL     1       8.881   0.541  -4.022  0.00  0.00    +0.007 A 
ATOM     15  C   UNL     1       7.953   1.488  -4.411  0.00  0.00    +0.046 A 
ATOM     16  C   UNL     1       6.597   1.223  -4.301  0.00  0.00    +0.133 A 
BRANCH  16  17
ATOM     17  O   UNL     1       5.688   2.153  -4.689  0.00  0.00    -0.506 OA
ATOM     18  H   UNL     1       5.417   2.756  -3.983  0.00  0.00    +0.292 HD
ENDBRANCH  16  17
BRANCH  12  19
ATOM     19  O   UNL     1       6.718  -2.157  -2.892  0.00  0.00    -0.506 OA
ATOM     20  H   UNL     1       6.597  -2.843  -3.563  0.00  0.00    +0.292 HD
ENDBRANCH  12  19
ENDBRANCH   2  11
BRANCH   1  21
ATOM     21  C   UNL     1       2.691  -0.452  -2.330  0.00  0.00    +0.198 C 
BRANCH  21  22
ATOM     22  C   UNL     1       2.530  -1.938  -2.521  0.00  0.00    -0.014 A 
ATOM     23  C   UNL     1       3.363  -2.814  -1.851  0.00  0.00    +0.010 A 
ATOM     24  C   UNL     1       3.219  -4.178  -2.022  0.00  0.00    +0.050 A 
ATOM     25  C   UNL     1       2.237  -4.670  -2.868  0.00  0.00    +0.162 A 
ATOM     26  C   UNL     1       1.398  -3.788  -3.542  0.00  0.00    +0.162 A 
ATOM     27  C   UNL     1       1.545  -2.422  -3.362  0.00  0.00    +0.055 A 
BRANCH  26  28
ATOM     28  O   UNL     1       0.433  -4.266  -4.373  0.00  0.00    -0.491 OA
ATOM     29  C   UNL     1      -0.391  -3.303  -5.032  0.00  0.00    +0.277 C 
ENDBRANCH  26  28
BRANCH  25  30
ATOM     30  O   UNL     1       2.094  -6.012  -3.038  0.00  0.00    -0.491 OA
ATOM     31  C   UNL     1       2.991  -6.857  -2.314  0.00  0.00    +0.277 C 
ENDBRANCH  25  30
ENDBRANCH  21  22
BRANCH  21  33
ATOM     32  N   UNL     1       1.016   0.520  -0.792  0.00  0.00    -0.309 N 
ATOM     33  C   UNL     1       2.218  -0.068  -0.952  0.00  0.00    +0.239 C 
ATOM     34  O   UNL     1       2.919  -0.288   0.013  0.00  0.00    -0.273 OA
ATOM     35  H   UNL     1       0.455   0.696  -1.564  0.00  0.00    +0.149 HD
BRANCH  32  37
ATOM     36  C   UNL     1       1.539   1.889   1.166  0.00  0.00    +0.031 C 
ATOM     37  C   UNL     1       0.555   0.893   0.548  0.00  0.00    +0.026 C 
ATOM     38  C   UNL     1       0.475  -0.357   1.426  0.00  0.00    +0.031 C 
ATOM     39  C   UNL     1      -0.829   1.538   0.450  0.00  0.00    +0.031 C 
ENDBRANCH  32  37
ENDBRANCH  21  33
ENDBRANCH   1  21
TORSDOF 10
