REMARK  Name = ZINC36219790
REMARK  13 active torsions:
REMARK  status: ('A' for Active; 'I' for Inactive)
REMARK    1  A    between atoms: C_1  and  C_2
REMARK    2  A    between atoms: C_5  and  C_8
REMARK    3  A    between atoms: C_8  and  N_9
REMARK    4  A    between atoms: C_10  and  C_34
REMARK    5  A    between atoms: C_12  and  C_17
REMARK    6  A    between atoms: C_20  and  N_23
REMARK    7  A    between atoms: C_24  and  C_26
REMARK    8  A    between atoms: C_31  and  O_32
REMARK    9  A    between atoms: O_32  and  C_33
REMARK   10  A    between atoms: N_36  and  C_37
REMARK   11  A    between atoms: C_37  and  C_38
REMARK   12  A    between atoms: C_38  and  C_39
REMARK   13  A    between atoms: C_38  and  C_40
REMARK                            x       y       z     vdW  Elec       q    Type
REMARK                         _______ _______ _______ _____ _____    ______ ____
ROOT
ATOM      1  N   UNL     1       1.433  -4.741  -0.062  0.00  0.00    -0.248 N 
ATOM      2  C   UNL     1       2.257  -5.005  -1.258  0.00  0.00    +0.210 C 
ATOM      3  C   UNL     1       3.433  -5.821  -0.672  0.00  0.00    +0.238 C 
ATOM      4  O   UNL     1       3.431  -5.403   0.707  0.00  0.00    -0.440 OA
ATOM      5  C   UNL     1       2.186  -5.010   1.022  0.00  0.00    +0.405 C 
ATOM      6  O   UNL     1       1.780  -4.910   2.163  0.00  0.00    -0.226 OA
ENDROOT
BRANCH   3   7
ATOM      7  C   UNL     1       4.731  -5.454  -1.345  0.00  0.00    -0.005 A 
ATOM      8  C   UNL     1       5.460  -4.370  -0.892  0.00  0.00    +0.009 A 
ATOM      9  C   UNL     1       6.649  -4.031  -1.506  0.00  0.00    +0.024 A 
ATOM     10  C   UNL     1       7.113  -4.780  -2.580  0.00  0.00    +0.034 A 
ATOM     11  C   UNL     1       6.378  -5.868  -3.032  0.00  0.00    +0.024 A 
ATOM     12  C   UNL     1       5.192  -6.206  -2.410  0.00  0.00    +0.009 A 
BRANCH  10  13
ATOM     13  N   UNL     1       8.317  -4.439  -3.204  0.00  0.00    -0.281 N 
ATOM     14  C   UNL     1       9.123  -5.405  -3.688  0.00  0.00    +0.252 C 
ATOM     15  O   UNL     1       8.765  -6.567  -3.658  0.00  0.00    -0.270 OA
ATOM     16  H   UNL     1       8.572  -3.507  -3.289  0.00  0.00    +0.155 HD
BRANCH  14  17
ATOM     17  C   UNL     1      10.438  -5.053  -4.255  0.00  0.00    +0.079 A 
ATOM     18  C   UNL     1      10.856  -3.720  -4.287  0.00  0.00    +0.017 A 
ATOM     19  C   UNL     1      12.086  -3.399  -4.817  0.00  0.00    +0.001 A 
ATOM     20  C   UNL     1      12.912  -4.391  -5.320  0.00  0.00    +0.004 A 
ATOM     21  C   UNL     1      12.512  -5.712  -5.295  0.00  0.00    +0.046 A 
ATOM     22  C   UNL     1      11.279  -6.055  -4.759  0.00  0.00    +0.132 A 
BRANCH  22  23
ATOM     23  O   UNL     1      10.887  -7.353  -4.728  0.00  0.00    -0.494 OA
ATOM     24  C   UNL     1      11.797  -8.319  -5.260  0.00  0.00    +0.277 C 
ENDBRANCH  22  23
ENDBRANCH  14  17
ENDBRANCH  10  13
ENDBRANCH   3   7
BRANCH   2  25
ATOM     25  C   UNL     1       2.744  -3.716  -1.869  0.00  0.00    +0.238 C 
ATOM     26  O   UNL     1       2.741  -2.696  -1.214  0.00  0.00    -0.274 OA
ATOM     27  N   UNL     1       3.182  -3.698  -3.143  0.00  0.00    -0.313 N 
ATOM     28  H   UNL     1       3.184  -4.514  -3.667  0.00  0.00    +0.149 HD
BRANCH  27  29
ATOM     29  C   UNL     1       3.655  -2.445  -3.737  0.00  0.00    +0.107 C 
BRANCH  29  30
ATOM     30  C   UNL     1       4.093  -2.699  -5.181  0.00  0.00    -0.000 C 
ATOM     31  C   UNL     1       2.879  -3.109  -6.017  0.00  0.00    +0.009 C 
ATOM     32  C   UNL     1       4.702  -1.421  -5.761  0.00  0.00    +0.009 C 
ENDBRANCH  29  30
ENDBRANCH  27  29
ENDBRANCH   2  25
BRANCH   1  33
ATOM     33  C   UNL     1       0.047  -4.267  -0.055  0.00  0.00    +0.147 C 
BRANCH  33  38
ATOM     34  C   UNL     1      -0.014   1.511   0.007  0.00  0.00    +0.044 C 
ATOM     35  C   UNL     1       0.002   0.004  -0.009  0.00  0.00    -0.050 A 
ATOM     36  C   UNL     1       0.009  -0.674  -1.214  0.00  0.00    +0.003 A 
ATOM     37  C   UNL     1       0.023  -2.056  -1.229  0.00  0.00    +0.005 A 
ATOM     38  C   UNL     1       0.032  -2.760  -0.039  0.00  0.00    -0.030 A 
ATOM     39  C   UNL     1       0.026  -2.082   1.166  0.00  0.00    +0.005 A 
ATOM     40  C   UNL     1       0.016  -0.699   1.180  0.00  0.00    +0.003 A 
ENDBRANCH  33  38
ENDBRANCH   1  33
TORSDOF 9
