REMARK  Name = ZINC05706920
REMARK  12 active torsions:
REMARK  status: ('A' for Active; 'I' for Inactive)
REMARK    1  A    between atoms: C_1  and  C_2
REMARK    2  A    between atoms: C_2  and  C_3
REMARK    3  A    between atoms: C_3  and  C_4
REMARK    4  A    between atoms: C_4  and  N_5
REMARK    5  A    between atoms: N_5  and  C_6
REMARK    6  A    between atoms: C_6  and  N_8
REMARK    7  A    between atoms: N_8  and  C_9
REMARK    8  A    between atoms: C_11  and  O_24
REMARK    9  A    between atoms: C_13  and  O_23
REMARK   10  A    between atoms: C_15  and  O_22
REMARK   11  A    between atoms: C_17  and  C_20
REMARK   12  A    between atoms: C_20  and  O_21
REMARK                            x       y       z     vdW  Elec       q    Type
REMARK                         _______ _______ _______ _____ _____    ______ ____
ROOT
ATOM      1  C   UNL     1      -2.865   1.913   2.368  0.00  0.00    +0.237 C 
ATOM      2  C   UNL     1      -2.863   3.440   2.485  0.00  0.00    +0.192 C 
ATOM      3  C   UNL     1      -1.416   3.935   2.571  0.00  0.00    +0.178 C 
ATOM      4  C   UNL     1      -0.646   3.445   1.341  0.00  0.00    +0.177 C 
ATOM      5  C   UNL     1      -0.733   1.918   1.269  0.00  0.00    +0.177 C 
ATOM      6  O   UNL     1      -2.106   1.523   1.222  0.00  0.00    -0.348 OA
ENDROOT
BRANCH   1   7
ATOM      7  N   UNL     1      -2.266   1.331   3.572  0.00  0.00    -0.299 N 
ATOM      8  H   UNL     1      -1.534   1.784   4.018  0.00  0.00    +0.150 HD
BRANCH   7   9
ATOM      9  C   UNL     1      -2.734   0.165   4.060  0.00  0.00    +0.132 C 
ATOM     10  S   UNL     1      -4.027  -0.635   3.274  0.00  0.00    -0.019 S 
BRANCH   9  11
ATOM     11  N   UNL     1      -2.183  -0.371   5.168  0.00  0.00    -0.327 N 
ATOM     12  H   UNL     1      -1.451   0.082   5.613  0.00  0.00    +0.148 HD
BRANCH  11  13
ATOM     13  C   UNL     1      -2.692  -1.638   5.699  0.00  0.00    +0.103 C 
BRANCH  13  14
ATOM     14  C   UNL     1      -1.899  -2.021   6.950  0.00  0.00    +0.018 C 
BRANCH  14  16
ATOM     15  C   UNL     1      -1.638  -3.728   8.756  0.00  0.00    +0.004 C 
ATOM     16  C   UNL     1      -2.430  -3.345   7.505  0.00  0.00    -0.002 C 
ENDBRANCH  14  16
ENDBRANCH  13  14
ENDBRANCH  11  13
ENDBRANCH   9  11
ENDBRANCH   7   9
ENDBRANCH   1   7
BRANCH   4  17
ATOM     17  O   UNL     1      -1.218   4.012   0.161  0.00  0.00    -0.386 OA
ATOM     18  H   UNL     1      -1.197   4.979   0.139  0.00  0.00    +0.210 HD
ENDBRANCH   4  17
BRANCH   3  19
ATOM     19  O   UNL     1      -1.401   5.364   2.606  0.00  0.00    -0.386 OA
ATOM     20  H   UNL     1      -1.872   5.744   3.360  0.00  0.00    +0.210 HD
ENDBRANCH   3  19
BRANCH   2  21
ATOM     21  O   UNL     1      -3.572   3.830   3.662  0.00  0.00    -0.385 OA
ATOM     22  H   UNL     1      -4.497   3.549   3.675  0.00  0.00    +0.210 HD
ENDBRANCH   2  21
BRANCH   5  23
ATOM     23  C   UNL     1      -0.017   1.425   0.010  0.00  0.00    +0.190 C 
BRANCH  23  24
ATOM     24  O   UNL     1       0.002  -0.004   0.002  0.00  0.00    -0.392 OA
ATOM     25  H   UNL     1       0.442  -0.387  -0.769  0.00  0.00    +0.210 HD
ENDBRANCH  23  24
ENDBRANCH   5  23
TORSDOF 11
