REMARK  Name = ZINC36704265
REMARK  11 active torsions:
REMARK  status: ('A' for Active; 'I' for Inactive)
REMARK    1  A    between atoms: C_1  and  C_2
REMARK    2  A    between atoms: C_2  and  N_3
REMARK    3  A    between atoms: N_3  and  C_4
REMARK    4  A    between atoms: N_3  and  C_6
REMARK    5  A    between atoms: C_4  and  C_5
REMARK    6  A    between atoms: C_6  and  C_7
REMARK    7  A    between atoms: C_7  and  N_8
REMARK    8  A    between atoms: C_14  and  C_18
REMARK    9  A    between atoms: C_19  and  C_21
REMARK   10  A    between atoms: N_24  and  S_27
REMARK   11  A    between atoms: S_27  and  C_30
REMARK                            x       y       z     vdW  Elec       q    Type
REMARK                         _______ _______ _______ _____ _____    ______ ____
ROOT
ATOM      1  N   UNL     1      -0.742  -3.432   2.317  0.00  0.00    -0.252 N 
ATOM      2  C   UNL     1       0.452  -4.135   2.346  0.00  0.00    +0.168 A 
ATOM      3  N   UNL     1       1.680  -3.675   2.287  0.00  0.00    -0.224 NA
ATOM      4  C   UNL     1       2.760  -4.484   2.327  0.00  0.00    +0.080 A 
ATOM      5  C   UNL     1       4.126  -4.121   2.272  0.00  0.00    +0.029 A 
ATOM      6  C   UNL     1       5.107  -5.076   2.324  0.00  0.00    +0.005 A 
ATOM      7  C   UNL     1       4.801  -6.425   2.432  0.00  0.00    -0.049 A 
ATOM      8  C   UNL     1       3.476  -6.816   2.489  0.00  0.00    +0.020 A 
ATOM      9  C   UNL     1       2.487  -5.867   2.437  0.00  0.00    +0.041 A 
ATOM     10  S   UNL     1       0.711  -5.898   2.482  0.00  0.00    -0.052 S 
ATOM     11  C   UNL     1       5.902  -7.453   2.487  0.00  0.00    +0.044 C 
ATOM     12  C   UNL     1      -1.913  -4.095   2.261  0.00  0.00    +0.224 C 
ATOM     13  O   UNL     1      -2.952  -3.482   2.132  0.00  0.00    -0.275 OA
ENDROOT
BRANCH  12  14
ATOM     14  C   UNL     1      -1.934  -5.599   2.360  0.00  0.00    +0.078 C 
ATOM     15  C   UNL     1      -1.464  -6.203   1.035  0.00  0.00    +0.030 C 
ATOM     16  C   UNL     1      -1.453  -7.731   1.150  0.00  0.00    +0.110 C 
ATOM     17  N   UNL     1      -2.783  -8.182   1.581  0.00  0.00    -0.176 NA
ATOM     18  C   UNL     1      -3.368  -7.597   2.796  0.00  0.00    +0.110 C 
ATOM     19  C   UNL     1      -3.358  -6.071   2.662  0.00  0.00    +0.030 C 
BRANCH  17  20
ATOM     20  S   UNL     1      -3.607  -9.328   0.716  0.00  0.00    +0.067 S 
ATOM     21  O   UNL     1      -4.985  -9.147   1.011  0.00  0.00    -0.152 OA
ATOM     22  O   UNL     1      -3.098  -9.278  -0.611  0.00  0.00    -0.152 OA
BRANCH  20  23
ATOM     23  C   UNL     1      -3.154 -10.900   1.370  0.00  0.00    +0.143 A 
ATOM     24  C   UNL     1      -3.735 -11.609   2.368  0.00  0.00    +0.036 A 
ATOM     25  C   UNL     1      -3.203 -12.836   2.717  0.00  0.00    +0.010 A 
ATOM     26  C   UNL     1      -2.116 -13.294   2.051  0.00  0.00    +0.047 A 
ATOM     27  S   UNL     1      -1.815 -11.977   0.884  0.00  0.00    -0.077 S 
ENDBRANCH  20  23
ENDBRANCH  17  20
ENDBRANCH  12  14
BRANCH   1  28
ATOM     28  C   UNL     1      -0.730  -1.967   2.346  0.00  0.00    +0.097 C 
BRANCH  28  29
ATOM     29  C   UNL     1      -0.796  -1.428   0.915  0.00  0.00    -0.059 C 
BRANCH  29  30
ATOM     30  N   UNL     1      -0.783   0.041   0.944  0.00  0.00    +0.380 N 
ATOM     31  H   UNL     1      -1.532   0.371   1.534  0.00  0.00    -0.082 HD
BRANCH  30  33
ATOM     32  C   UNL     1       0.469   2.032   1.626  0.00  0.00    -0.017 C 
ATOM     33  C   UNL     1       0.503   0.509   1.477  0.00  0.00    -0.082 C 
ENDBRANCH  30  33
BRANCH  30  34
ATOM     34  C   UNL     1      -0.967   0.559  -0.418  0.00  0.00    -0.082 C 
ATOM     35  C   UNL     1      -2.360   0.179  -0.924  0.00  0.00    -0.017 C 
ENDBRANCH  30  34
ENDBRANCH  29  30
ENDBRANCH  28  29
ENDBRANCH   1  28
TORSDOF 8
