REMARK  Name = ZINC63281194
REMARK  7 active torsions:
REMARK  status: ('A' for Active; 'I' for Inactive)
REMARK    1  A    between atoms: C_4  and  C_7
REMARK    2  A    between atoms: C_7  and  C_8
REMARK    3  A    between atoms: C_8  and  C_10
REMARK    4  A    between atoms: C_8  and  N_19
REMARK    5  A    between atoms: N_12  and  C_13
REMARK    6  A    between atoms: C_13  and  C_14
REMARK    7  A    between atoms: C_28  and  C_30
REMARK                            x       y       z     vdW  Elec       q    Type
REMARK                         _______ _______ _______ _____ _____    ______ ____
ROOT
ATOM      1  N   UNL     1       4.451   0.314   2.058  0.00  0.00    -0.288 N 
ATOM      2  C   UNL     1       3.451   1.007   2.638  0.00  0.00    +0.303 C 
ATOM      3  O   UNL     1       2.304   0.618   2.537  0.00  0.00    -0.253 OA
ATOM      4  N   UNL     1       3.723   2.131   3.330  0.00  0.00    -0.283 N 
ATOM      5  C   UNL     1       2.660   2.832   4.065  0.00  0.00    +0.128 C 
ATOM      6  C   UNL     1       3.092   2.980   5.529  0.00  0.00    +0.127 C 
ATOM      7  N   UNL     1       4.456   3.527   5.563  0.00  0.00    -0.297 N 
ATOM      8  C   UNL     1       5.519   2.826   4.829  0.00  0.00    +0.127 C 
ATOM      9  C   UNL     1       5.088   2.674   3.369  0.00  0.00    +0.128 C 
ATOM     10  C   UNL     1       4.728   4.651   6.255  0.00  0.00    +0.242 C 
ATOM     11  O   UNL     1       3.843   5.221   6.857  0.00  0.00    -0.273 OA
ATOM     12  H   UNL     1       5.358   0.657   2.086  0.00  0.00    +0.151 HD
ENDROOT
BRANCH  10  13
ATOM     13  C   UNL     1       6.131   5.199   6.281  0.00  0.00    +0.190 C 
ATOM     14  C   UNL     1       7.068   4.204   6.929  0.00  0.00    +0.016 C 
ATOM     15  C   UNL     1       7.581   4.825   8.015  0.00  0.00    -0.004 A 
ATOM     16  C   UNL     1       8.536   4.399   9.045  0.00  0.00    +0.010 A 
ATOM     17  C   UNL     1       8.864   5.263  10.033  0.00  0.00    +0.001 A 
ATOM     18  C   UNL     1       8.317   6.551  10.098  0.00  0.00    +0.002 A 
ATOM     19  C   UNL     1       7.433   7.014   9.188  0.00  0.00    +0.026 A 
ATOM     20  C   UNL     1       7.017   6.191   8.106  0.00  0.00    +0.043 A 
ATOM     21  N   UNL     1       6.187   6.407   7.113  0.00  0.00    -0.370 N 
ATOM     22  H   UNL     1       5.693   7.226   6.955  0.00  0.00    +0.161 HD
ENDBRANCH  10  13
BRANCH   1  23
ATOM     23  C   UNL     1       4.169  -0.957   1.387  0.00  0.00    +0.165 C 
BRANCH  23  24
ATOM     24  C   UNL     1       5.414  -1.805   1.373  0.00  0.00    +0.234 C 
ATOM     25  O   UNL     1       6.437  -1.389   1.875  0.00  0.00    -0.274 OA
ATOM     26  N   UNL     1       5.391  -3.026   0.803  0.00  0.00    -0.307 N 
ATOM     27  H   UNL     1       4.574  -3.359   0.401  0.00  0.00    +0.149 HD
BRANCH  26  28
ATOM     28  C   UNL     1       6.602  -3.851   0.789  0.00  0.00    +0.178 C 
BRANCH  28  29
ATOM     29  C   UNL     1       6.312  -5.158   0.098  0.00  0.00    +0.122 A 
ATOM     30  C   UNL     1       6.455  -5.401  -1.217  0.00  0.00    +0.046 A 
ATOM     31  C   UNL     1       6.073  -6.746  -1.429  0.00  0.00    +0.041 A 
ATOM     32  C   UNL     1       5.719  -7.244  -0.230  0.00  0.00    +0.195 A 
ATOM     33  O   UNL     1       5.872  -6.279   0.692  0.00  0.00    -0.466 OA
ENDBRANCH  28  29
ENDBRANCH  26  28
ENDBRANCH  23  24
BRANCH  23  34
ATOM     34  C   UNL     1       3.721  -0.685  -0.051  0.00  0.00    +0.067 C 
BRANCH  34  38
ATOM     35  C   UNL     1       0.005   1.422  -0.012  0.00  0.00    +0.000 A 
ATOM     36  C   UNL     1       1.197   2.122  -0.005  0.00  0.00    +0.000 A 
ATOM     37  C   UNL     1       2.399   1.440  -0.017  0.00  0.00    +0.004 A 
ATOM     38  C   UNL     1       2.410   0.058  -0.036  0.00  0.00    -0.045 A 
ATOM     39  C   UNL     1       1.218  -0.642  -0.043  0.00  0.00    +0.004 A 
ATOM     40  C   UNL     1       0.016   0.040  -0.032  0.00  0.00    +0.000 A 
ENDBRANCH  34  38
ENDBRANCH  23  34
ENDBRANCH   1  23
TORSDOF 7
