REMARK  Name = ZINC24759976
REMARK  9 active torsions:
REMARK  status: ('A' for Active; 'I' for Inactive)
REMARK    1  A    between atoms: C_1  and  C_2
REMARK    2  A    between atoms: N_5  and  C_8
REMARK    3  A    between atoms: C_8  and  C_10
REMARK    4  A    between atoms: C_8  and  C_25
REMARK    5  A    between atoms: C_10  and  N_11
REMARK    6  A    between atoms: C_12  and  C_14
REMARK    7  A    between atoms: C_19  and  O_20
REMARK    8  A    between atoms: O_20  and  C_21
REMARK    9  A    between atoms: C_21  and  C_22
REMARK                            x       y       z     vdW  Elec       q    Type
REMARK                         _______ _______ _______ _____ _____    ______ ____
ROOT
ATOM      1  N   UNL     1      -1.596  -2.099   0.705  0.00  0.00    -0.312 N 
ATOM      2  C   UNL     1      -1.822  -0.850   1.157  0.00  0.00    +0.248 C 
ATOM      3  O   UNL     1      -2.956  -0.490   1.410  0.00  0.00    -0.270 OA
ATOM      4  H   UNL     1      -0.571  -2.425   0.476  0.00  0.00    +0.149 HD
ENDROOT
BRANCH   2   5
ATOM      5  C   UNL     1      -0.693   0.081   1.346  0.00  0.00    +0.078 A 
ATOM      6  C   UNL     1       0.611  -0.327   1.056  0.00  0.00    +0.017 A 
ATOM      7  C   UNL     1       1.660   0.547   1.235  0.00  0.00    +0.001 A 
ATOM      8  C   UNL     1       1.429   1.831   1.700  0.00  0.00    +0.004 A 
ATOM      9  C   UNL     1       0.145   2.248   1.990  0.00  0.00    +0.046 A 
ATOM     10  C   UNL     1      -0.923   1.381   1.817  0.00  0.00    +0.133 A 
BRANCH  10  11
ATOM     11  O   UNL     1      -2.186   1.791   2.096  0.00  0.00    -0.482 OA
BRANCH  11  12
ATOM     12  C   UNL     1      -2.343   3.130   2.572  0.00  0.00    +0.324 C 
BRANCH  12  13
ATOM     13  C   UNL     1      -3.803   3.404   2.826  0.00  0.00    +0.248 C 
ATOM     14  O   UNL     1      -4.628   2.539   2.620  0.00  0.00    -0.272 OA
ATOM     15  N   UNL     1      -4.192   4.611   3.282  0.00  0.00    -0.327 N 
ATOM     16  H   UNL     1      -5.258   4.811   3.468  0.00  0.00    +0.145 HD
ATOM     17  H   UNL     1      -3.444   5.396   3.469  0.00  0.00    +0.145 HD
ENDBRANCH  12  13
ENDBRANCH  11  12
ENDBRANCH  10  11
ENDBRANCH   2   5
BRANCH   1  18
ATOM     18  C   UNL     1      -2.717  -3.024   0.517  0.00  0.00    +0.094 C 
BRANCH  18  19
ATOM     19  C   UNL     1      -2.191  -4.364  -0.001  0.00  0.00    -0.013 C 
BRANCH  19  24
ATOM     20  C   UNL     1       1.175  -7.000   3.792  0.00  0.00    +0.007 C 
ATOM     21  C   UNL     1      -0.013  -6.618   2.906  0.00  0.00    -0.018 C 
ATOM     22  C   UNL     1       0.404  -6.684   1.435  0.00  0.00    -0.015 C 
ATOM     23  C   UNL     1      -0.769  -6.242   0.557  0.00  0.00    -0.078 C 
ATOM     24  N   UNL     1      -1.160  -4.872   0.913  0.00  0.00    +0.386 N 
ATOM     25  C   UNL     1      -1.609  -4.793   2.309  0.00  0.00    -0.078 C 
ATOM     26  C   UNL     1      -0.460  -5.192   3.239  0.00  0.00    -0.015 C 
ATOM     27  H   UNL     1      -0.270  -4.233   0.810  0.00  0.00    -0.081 HD
ENDBRANCH  19  24
BRANCH  19  28
ATOM     28  C   UNL     1      -3.326  -5.353  -0.078  0.00  0.00    -0.022 A 
ATOM     29  C   UNL     1      -3.952  -5.851  -1.172  0.00  0.00    +0.009 A 
ATOM     30  C   UNL     1      -4.980  -6.759  -1.001  0.00  0.00    +0.008 A 
ATOM     31  C   UNL     1      -5.331  -7.125   0.256  0.00  0.00    +0.045 A 
ATOM     32  S   UNL     1      -4.188  -6.179   1.249  0.00  0.00    -0.103 S 
ENDBRANCH  19  28
ENDBRANCH  18  19
ENDBRANCH   1  18
TORSDOF 8
