REMARK  Name = ZINC40515142
REMARK  3 active torsions:
REMARK  status: ('A' for Active; 'I' for Inactive)
REMARK    1  A    between atoms: C_1  and  C_2
REMARK    2  A    between atoms: C_4  and  C_16
REMARK    3  A    between atoms: C_7  and  C_8
REMARK                            x       y       z     vdW  Elec       q    Type
REMARK                         _______ _______ _______ _____ _____    ______ ____
ROOT
ATOM      1  C   UNL     1      -0.018   1.503   0.010  0.00  0.00    +0.044 C 
ATOM      2  C   UNL     1       0.002  -0.004   0.002  0.00  0.00    -0.035 A 
ATOM      3  C   UNL     1       0.006  -0.707  -1.190  0.00  0.00    +0.027 A 
ATOM      4  C   UNL     1       0.025  -2.090  -1.165  0.00  0.00    +0.041 A 
ATOM      5  N   UNL     1       0.039  -2.751  -0.024  0.00  0.00    -0.232 NA
ATOM      6  C   UNL     1       0.036  -2.128   1.142  0.00  0.00    +0.167 A 
ATOM      7  C   UNL     1       0.023  -0.727   1.199  0.00  0.00    +0.059 A 
ATOM      8  N   UNL     1       0.050  -2.869   2.324  0.00  0.00    -0.202 N 
ATOM      9  C   UNL     1      -0.384  -4.136   2.490  0.00  0.00    +0.226 A 
ATOM     10  N   UNL     1      -0.198  -4.466   3.741  0.00  0.00    -0.222 NA
ATOM     11  C   UNL     1       0.349  -3.446   4.402  0.00  0.00    +0.245 A 
ATOM     12  N   UNL     1       0.525  -2.448   3.576  0.00  0.00    -0.152 NA
ATOM     13  C   UNL     1       0.029  -2.854  -2.464  0.00  0.00    +0.065 C 
ENDROOT
BRANCH   7  14
ATOM     14  C   UNL     1       0.027  -0.027   2.500  0.00  0.00    +0.098 C 
ATOM     15  N   UNL     1       1.082  -0.127   3.308  0.00  0.00    -0.387 N 
ATOM     16  N   UNL     1      -1.025   0.704   2.866  0.00  0.00    -0.344 N 
ATOM     17  H   UNL     1       1.847  -0.659   3.041  0.00  0.00    +0.157 HD
ATOM     18  H   UNL     1      -1.794   0.777   2.278  0.00  0.00    +0.144 HD
ATOM     19  H   UNL     1      -1.023   1.163   3.720  0.00  0.00    +0.144 HD
ATOM     20  H   UNL     1       1.084   0.332   4.162  0.00  0.00    +0.157 HD
ENDBRANCH   7  14
TORSDOF 1
