REMARK  Name = ZINC35032991
REMARK  6 active torsions:
REMARK  status: ('A' for Active; 'I' for Inactive)
REMARK    1  A    between atoms: C_1  and  C_2
REMARK    2  A    between atoms: N_5  and  C_19
REMARK    3  A    between atoms: N_11  and  C_12
REMARK    4  A    between atoms: C_19  and  C_21
REMARK    5  A    between atoms: C_19  and  C_22
REMARK    6  A    between atoms: N_32  and  C_33
REMARK                            x       y       z     vdW  Elec       q    Type
REMARK                         _______ _______ _______ _____ _____    ______ ____
ROOT
ATOM      1  C   UNL     1       1.417   0.012  -1.455  0.00  0.00    +0.026 C 
ATOM      2  C   UNL     1       0.828  -1.371  -1.173  0.00  0.00    +0.058 C 
ATOM      3  C   UNL     1      -0.667  -1.241  -0.865  0.00  0.00    -0.055 C 
ATOM      4  N   UNL     1      -1.200  -2.549  -0.462  0.00  0.00    +0.388 N 
ATOM      5  C   UNL     1      -0.573  -2.978   0.794  0.00  0.00    -0.058 C 
ATOM      6  C   UNL     1       0.927  -3.195   0.568  0.00  0.00    +0.091 C 
ATOM      7  N   UNL     1       1.498  -1.966  -0.007  0.00  0.00    -0.286 N 
ATOM      8  C   UNL     1       2.601  -1.400   0.522  0.00  0.00    +0.307 C 
ATOM      9  O   UNL     1       2.993  -0.327   0.105  0.00  0.00    -0.252 OA
ATOM     10  N   UNL     1       3.269  -2.023   1.513  0.00  0.00    -0.268 N 
ATOM     11  H   UNL     1       2.933  -2.858   1.875  0.00  0.00    +0.156 HD
ATOM     12  H   UNL     1      -1.003  -3.227  -1.183  0.00  0.00    -0.081 HD
ENDROOT
BRANCH  10  13
ATOM     13  C   UNL     1       4.449  -1.466   2.019  0.00  0.00    +0.049 A 
ATOM     14  C   UNL     1       4.709  -0.113   1.849  0.00  0.00    +0.024 A 
ATOM     15  C   UNL     1       5.873   0.434   2.350  0.00  0.00    +0.002 A 
ATOM     16  C   UNL     1       6.782  -0.364   3.021  0.00  0.00    +0.001 A 
ATOM     17  C   UNL     1       6.527  -1.712   3.193  0.00  0.00    +0.017 A 
ATOM     18  C   UNL     1       5.361  -2.265   2.698  0.00  0.00    +0.039 A 
ATOM     19 BR   UNL     1       5.010  -4.107   2.939  0.00  0.00    -0.048 Br
ENDBRANCH  10  13
BRANCH   4  20
ATOM     20  C   UNL     1      -2.653  -2.447  -0.273  0.00  0.00    -0.004 C 
ATOM     21  C   UNL     1      -3.316  -2.079  -1.602  0.00  0.00    -0.005 C 
BRANCH  20  22
ATOM     22  C   UNL     1      -3.191  -3.771   0.207  0.00  0.00    +0.099 A 
ATOM     23  N   UNL     1      -2.624  -4.857  -0.222  0.00  0.00    -0.235 NA
ATOM     24  C   UNL     1      -3.054  -6.084   0.167  0.00  0.00    +0.078 A 
ATOM     25  C   UNL     1      -2.445  -7.253  -0.294  0.00  0.00    +0.030 A 
ATOM     26  C   UNL     1      -2.913  -8.477   0.127  0.00  0.00    +0.022 A 
ATOM     27  C   UNL     1      -3.987  -8.566   1.005  0.00  0.00    +0.042 A 
ATOM     28  C   UNL     1      -4.604  -7.425   1.473  0.00  0.00    +0.035 A 
ATOM     29  C   UNL     1      -4.145  -6.177   1.060  0.00  0.00    +0.066 A 
ATOM     30  C   UNL     1      -4.763  -4.927   1.526  0.00  0.00    +0.262 A 
ATOM     31  O   UNL     1      -5.706  -4.937   2.296  0.00  0.00    -0.267 OA
ATOM     32  N   UNL     1      -4.240  -3.765   1.070  0.00  0.00    -0.301 N 
ATOM     33  C   UNL     1      -4.814  -2.490   1.507  0.00  0.00    +0.153 C 
ATOM     34 CL   UNL     1      -4.554 -10.124   1.517  0.00  0.00    -0.084 Cl
ENDBRANCH  20  22
ENDBRANCH   4  20
TORSDOF 3
