REMARK  Name = ZINC39760485
REMARK  8 active torsions:
REMARK  status: ('A' for Active; 'I' for Inactive)
REMARK    1  A    between atoms: C_1  and  C_2
REMARK    2  A    between atoms: C_2  and  C_3
REMARK    3  A    between atoms: C_2  and  N_4
REMARK    4  A    between atoms: C_8  and  C_10
REMARK    5  A    between atoms: C_10  and  S_11
REMARK    6  A    between atoms: S_11  and  C_12
REMARK    7  A    between atoms: C_16  and  C_21
REMARK    8  A    between atoms: N_17  and  C_18
REMARK                            x       y       z     vdW  Elec       q    Type
REMARK                         _______ _______ _______ _____ _____    ______ ____
ROOT
ATOM      1  C   UNL     1       7.251  -2.248  -4.888  0.00  0.00    +0.237 C 
ATOM      2  N   UNL     1       6.820  -3.587  -5.323  0.00  0.00    -0.237 N 
ATOM      3  N   UNL     1       6.008  -3.397  -6.448  0.00  0.00    -0.169 NA
ATOM      4  C   UNL     1       5.897  -2.129  -6.744  0.00  0.00    +0.147 C 
ATOM      5  N   UNL     1       6.621  -1.330  -5.851  0.00  0.00    -0.282 N 
ATOM      6  H   UNL     1       7.052  -4.434  -4.911  0.00  0.00    +0.171 HD
ENDROOT
BRANCH   4   7
ATOM      7  C   UNL     1       5.147  -1.631  -7.820  0.00  0.00    +0.022 C 
ATOM      8  C   UNL     1       4.327  -2.357  -8.685  0.00  0.00    +0.006 A 
ATOM      9  C   UNL     1       4.000  -3.728  -8.761  0.00  0.00    +0.010 A 
ATOM     10  C   UNL     1       3.154  -4.165  -9.729  0.00  0.00    +0.001 A 
ATOM     11  C   UNL     1       2.592  -3.289 -10.660  0.00  0.00    +0.002 A 
ATOM     12  C   UNL     1       2.863  -1.960 -10.646  0.00  0.00    +0.026 A 
ATOM     13  C   UNL     1       3.738  -1.429  -9.664  0.00  0.00    +0.043 A 
ATOM     14  N   UNL     1       4.154  -0.198  -9.440  0.00  0.00    -0.380 N 
ATOM     15  C   UNL     1       5.054  -0.194  -8.283  0.00  0.00    +0.152 C 
ATOM     16  H   UNL     1       3.900   0.583  -9.956  0.00  0.00    +0.160 HD
ENDBRANCH   4   7
BRANCH   5  17
ATOM     17  C   UNL     1       6.732   0.131  -5.869  0.00  0.00    +0.078 C 
ATOM     18  C   UNL     1       7.661   0.782  -4.842  0.00  0.00    +0.024 C 
ATOM     19  C   UNL     1       6.143   0.899  -4.684  0.00  0.00    +0.024 C 
ENDBRANCH   5  17
BRANCH   1  20
ATOM     20  S   UNL     1       6.661  -1.907  -3.207  0.00  0.00    -0.109 S 
BRANCH  20  21
ATOM     21  C   UNL     1       4.863  -2.114  -3.322  0.00  0.00    +0.168 C 
BRANCH  21  26
ATOM     22  N   UNL     1       1.011  -1.817  -0.460  0.00  0.00    -0.297 N 
ATOM     23  C   UNL     1       2.347  -1.720  -0.615  0.00  0.00    +0.306 C 
ATOM     24  O   UNL     1       3.048  -1.425   0.332  0.00  0.00    -0.252 OA
ATOM     25  N   UNL     1       2.904  -1.952  -1.820  0.00  0.00    -0.240 N 
ATOM     26  C   UNL     1       4.239  -1.855  -1.975  0.00  0.00    +0.230 C 
ATOM     27  O   UNL     1       4.939  -1.560  -1.030  0.00  0.00    -0.274 OA
ATOM     28  H   UNL     1       0.451  -2.053  -1.216  0.00  0.00    +0.151 HD
ATOM     29  H   UNL     1       2.344  -2.188  -2.576  0.00  0.00    +0.159 HD
BRANCH  22  31
ATOM     30  C   UNL     1       0.170  -0.064   1.022  0.00  0.00    +0.027 C 
ATOM     31  C   UNL     1       0.406  -1.565   0.850  0.00  0.00    +0.068 C 
ATOM     32  C   UNL     1      -0.930  -2.306   0.945  0.00  0.00    +0.027 C 
ENDBRANCH  22  31
ENDBRANCH  21  26
ENDBRANCH  20  21
ENDBRANCH   1  20
TORSDOF 6
