REMARK  Name = ZINC19951958
REMARK  13 active torsions:
REMARK  status: ('A' for Active; 'I' for Inactive)
REMARK    1  A    between atoms: C_1  and  C_2
REMARK    2  A    between atoms: C_5  and  N_9
REMARK    3  A    between atoms: N_9  and  C_10
REMARK    4  A    between atoms: N_9  and  S_27
REMARK    5  A    between atoms: C_10  and  C_11
REMARK    6  A    between atoms: N_13  and  N_14
REMARK    7  A    between atoms: C_15  and  C_16
REMARK    8  A    between atoms: C_15  and  C_17
REMARK    9  A    between atoms: C_20  and  O_25
REMARK   10  A    between atoms: C_21  and  O_23
REMARK   11  A    between atoms: O_23  and  C_24
REMARK   12  A    between atoms: O_25  and  C_26
REMARK   13  A    between atoms: S_27  and  C_30
REMARK                            x       y       z     vdW  Elec       q    Type
REMARK                         _______ _______ _______ _____ _____    ______ ____
ROOT
ATOM      1  N   UNL     1       0.059  -4.168  -0.022  0.00  0.00    -0.194 N 
ENDROOT
BRANCH   1   6
ATOM      2  C   UNL     1      -0.981   1.395  -0.393  0.00  0.00    +0.045 C 
ATOM      3  C   UNL     1      -0.705  -0.083  -0.294  0.00  0.00    -0.032 A 
ATOM      4  C   UNL     1      -1.243  -0.950  -1.228  0.00  0.00    +0.006 A 
ATOM      5  C   UNL     1      -0.991  -2.305  -1.141  0.00  0.00    +0.025 A 
ATOM      6  C   UNL     1      -0.197  -2.798  -0.113  0.00  0.00    +0.053 A 
ATOM      7  C   UNL     1       0.343  -1.926   0.823  0.00  0.00    +0.045 A 
ATOM      8  C   UNL     1       0.091  -0.570   0.728  0.00  0.00    +0.046 A 
ATOM      9 CL   UNL     1       0.770   0.522   1.894  0.00  0.00    -0.083 Cl
ENDBRANCH   1   6
BRANCH   1  10
ATOM     10  S   UNL     1      -0.414  -5.011   1.323  0.00  0.00    +0.075 S 
ATOM     11  O   UNL     1       0.406  -6.170   1.385  0.00  0.00    -0.150 OA
ATOM     12  O   UNL     1      -0.486  -4.071   2.386  0.00  0.00    -0.150 OA
BRANCH  10  13
ATOM     13  C   UNL     1      -2.059  -5.573   1.035  0.00  0.00    +0.109 A 
ATOM     14  C   UNL     1      -3.133  -4.782   1.398  0.00  0.00    +0.029 A 
ATOM     15  C   UNL     1      -4.423  -5.223   1.171  0.00  0.00    +0.002 A 
ATOM     16  C   UNL     1      -4.639  -6.455   0.582  0.00  0.00    +0.000 A 
ATOM     17  C   UNL     1      -3.565  -7.245   0.218  0.00  0.00    +0.002 A 
ATOM     18  C   UNL     1      -2.275  -6.802   0.440  0.00  0.00    +0.029 A 
ENDBRANCH  10  13
ENDBRANCH   1  10
BRANCH   1  19
ATOM     19  C   UNL     1       0.744  -4.860  -1.116  0.00  0.00    +0.228 C 
BRANCH  19  20
ATOM     20  C   UNL     1       2.235  -4.717  -0.945  0.00  0.00    +0.251 C 
ATOM     21  O   UNL     1       2.680  -4.099  -0.001  0.00  0.00    -0.272 OA
ATOM     22  N   UNL     1       3.072  -5.277  -1.840  0.00  0.00    -0.205 N 
ATOM     23  H   UNL     1       2.716  -5.772  -2.595  0.00  0.00    +0.177 HD
BRANCH  22  24
ATOM     24  N   UNL     1       4.458  -5.145  -1.681  0.00  0.00    -0.185 NA
ATOM     25  C   UNL     1       5.265  -5.684  -2.543  0.00  0.00    +0.063 C 
ATOM     26  C   UNL     1       4.711  -6.452  -3.715  0.00  0.00    +0.068 C 
BRANCH  25  27
ATOM     27  C   UNL     1       6.723  -5.545  -2.375  0.00  0.00    +0.001 A 
ATOM     28  C   UNL     1       7.593  -6.119  -3.305  0.00  0.00    +0.013 A 
ATOM     29  C   UNL     1       8.956  -5.988  -3.146  0.00  0.00    +0.050 A 
ATOM     30  C   UNL     1       9.468  -5.286  -2.064  0.00  0.00    +0.162 A 
ATOM     31  C   UNL     1       8.606  -4.710  -1.133  0.00  0.00    +0.162 A 
ATOM     32  C   UNL     1       7.238  -4.832  -1.289  0.00  0.00    +0.059 A 
BRANCH  31  33
ATOM     33  O   UNL     1       9.111  -4.023  -0.074  0.00  0.00    -0.491 OA
ATOM     34  C   UNL     1       8.170  -3.459   0.842  0.00  0.00    +0.277 C 
ENDBRANCH  31  33
BRANCH  30  35
ATOM     35  O   UNL     1      10.812  -5.160  -1.912  0.00  0.00    -0.491 OA
ATOM     36  C   UNL     1      11.638  -5.775  -2.903  0.00  0.00    +0.277 C 
ENDBRANCH  30  35
ENDBRANCH  25  27
ENDBRANCH  22  24
ENDBRANCH  19  20
ENDBRANCH   1  19
TORSDOF 9
