REMARK  Name = ZINC10355088
REMARK  11 active torsions:
REMARK  status: ('A' for Active; 'I' for Inactive)
REMARK    1  A    between atoms: C_1  and  C_2
REMARK    2  A    between atoms: C_8  and  C_10
REMARK    3  A    between atoms: C_11  and  C_36
REMARK    4  A    between atoms: N_12  and  C_28
REMARK    5  A    between atoms: C_16  and  C_18
REMARK    6  A    between atoms: C_21  and  O_26
REMARK    7  A    between atoms: C_23  and  O_24
REMARK    8  A    between atoms: O_24  and  C_25
REMARK    9  A    between atoms: O_26  and  C_27
REMARK   10  A    between atoms: C_33  and  O_34
REMARK   11  A    between atoms: O_34  and  C_35
REMARK                            x       y       z     vdW  Elec       q    Type
REMARK                         _______ _______ _______ _____ _____    ______ ____
ROOT
ATOM      1  C   UNL     1      -1.600   4.424   4.289  0.00  0.00    +0.056 C 
ATOM      2  C   UNL     1      -2.266   3.549   3.505  0.00  0.00    +0.025 C 
ATOM      3  N   UNL     1      -2.210   2.205   3.743  0.00  0.00    -0.252 N 
ATOM      4  C   UNL     1      -1.502   1.656   4.738  0.00  0.00    +0.142 C 
ATOM      5  S   UNL     1      -1.511  -0.046   4.920  0.00  0.00    -0.018 S 
ATOM      6  N   UNL     1      -0.781   2.400   5.600  0.00  0.00    -0.315 N 
ATOM      7  C   UNL     1      -0.780   3.863   5.433  0.00  0.00    +0.143 C 
ATOM      8  C   UNL     1      -3.089   4.064   2.352  0.00  0.00    +0.062 C 
ATOM      9  H   UNL     1      -0.275   1.981   6.314  0.00  0.00    +0.149 HD
ENDROOT
BRANCH   1  17
ATOM     10  C   UNL     1      -2.477  11.170   3.258  0.00  0.00    +0.089 C 
ATOM     11  C   UNL     1      -1.854  10.017   4.002  0.00  0.00    +0.136 A 
ATOM     12  C   UNL     1      -2.053   8.701   3.765  0.00  0.00    +0.091 A 
ATOM     13  C   UNL     1      -1.241   8.052   4.733  0.00  0.00    +0.168 A 
ATOM     14  N   UNL     1      -0.668   9.002   5.425  0.00  0.00    -0.063 NA
ATOM     15  O   UNL     1      -0.993  10.096   5.027  0.00  0.00    -0.358 OA
ATOM     16  N   UNL     1      -1.090   6.678   4.913  0.00  0.00    -0.264 N 
ATOM     17  C   UNL     1      -1.662   5.818   4.048  0.00  0.00    +0.249 C 
ATOM     18  O   UNL     1      -2.232   6.239   3.057  0.00  0.00    -0.270 OA
ATOM     19  H   UNL     1      -0.574   6.341   5.662  0.00  0.00    +0.157 HD
ENDBRANCH   1  17
BRANCH   7  20
ATOM     20  C   UNL     1       0.648   4.307   5.242  0.00  0.00    +0.019 A 
ATOM     21  C   UNL     1       1.109   4.623   3.978  0.00  0.00    +0.013 A 
ATOM     22  C   UNL     1       2.416   5.036   3.800  0.00  0.00    +0.046 A 
ATOM     23  C   UNL     1       3.271   5.124   4.890  0.00  0.00    +0.124 A 
ATOM     24  C   UNL     1       2.812   4.802   6.158  0.00  0.00    +0.091 A 
ATOM     25  C   UNL     1       1.499   4.394   6.334  0.00  0.00    +0.129 A 
BRANCH  25  26
ATOM     26  O   UNL     1       1.046   4.077   7.576  0.00  0.00    -0.495 OA
ATOM     27  C   UNL     1       1.942   4.293   8.668  0.00  0.00    +0.277 C 
ENDBRANCH  25  26
BRANCH  23  28
ATOM     28  O   UNL     1       4.557   5.525   4.714  0.00  0.00    -0.495 OA
ATOM     29  C   UNL     1       4.962   5.840   3.380  0.00  0.00    +0.277 C 
ENDBRANCH  23  28
ENDBRANCH   7  20
BRANCH   3  30
ATOM     30  C   UNL     1      -2.929   1.352   2.894  0.00  0.00    +0.082 A 
ATOM     31  C   UNL     1      -4.240   1.012   3.198  0.00  0.00    +0.027 A 
ATOM     32  C   UNL     1      -4.947   0.171   2.360  0.00  0.00    +0.002 A 
ATOM     33  C   UNL     1      -4.352  -0.334   1.218  0.00  0.00    +0.004 A 
ATOM     34  C   UNL     1      -3.049   0.004   0.906  0.00  0.00    +0.047 A 
ATOM     35  C   UNL     1      -2.331   0.843   1.744  0.00  0.00    +0.142 A 
BRANCH  35  36
ATOM     36  O   UNL     1      -1.047   1.173   1.441  0.00  0.00    -0.493 OA
ATOM     37  C   UNL     1      -0.499   0.614   0.245  0.00  0.00    +0.277 C 
ENDBRANCH  35  36
ENDBRANCH   3  30
TORSDOF 6
