REMARK  Name = ZINC24105472
REMARK  12 active torsions:
REMARK  status: ('A' for Active; 'I' for Inactive)
REMARK    1  A    between atoms: C_1  and  C_2
REMARK    2  A    between atoms: C_2  and  C_4
REMARK    3  A    between atoms: C_2  and  N_14
REMARK    4  A    between atoms: C_15  and  C_17
REMARK    5  A    between atoms: C_17  and  S_18
REMARK    6  A    between atoms: S_18  and  C_19
REMARK    7  A    between atoms: C_22  and  C_31
REMARK    8  A    between atoms: N_23  and  C_24
REMARK    9  A    between atoms: C_31  and  C_33
REMARK   10  A    between atoms: C_31  and  N_34
REMARK   11  A    between atoms: N_34  and  C_35
REMARK   12  A    between atoms: N_34  and  C_36
REMARK                            x       y       z     vdW  Elec       q    Type
REMARK                         _______ _______ _______ _____ _____    ______ ____
ROOT
ATOM      1  S   UNL     1      -2.014   5.610   5.729  0.00  0.00    -0.076 S 
ENDROOT
BRANCH   1   2
ATOM      2  C   UNL     1      -1.996   4.519   4.346  0.00  0.00    +0.197 A 
ATOM      3  N   UNL     1      -2.891   3.601   4.063  0.00  0.00    -0.122 NA
ATOM      4  N   UNL     1      -2.567   2.993   2.978  0.00  0.00    -0.135 NA
ATOM      5  C   UNL     1      -1.451   3.475   2.510  0.00  0.00    +0.125 A 
ATOM      6  N   UNL     1      -1.047   4.468   3.362  0.00  0.00    -0.275 N 
BRANCH   6   7
ATOM      7  C   UNL     1       0.102   5.267   3.250  0.00  0.00    +0.050 A 
ATOM      8  C   UNL     1       1.361   4.692   3.354  0.00  0.00    +0.028 A 
ATOM      9  C   UNL     1       2.490   5.479   3.237  0.00  0.00    +0.022 A 
ATOM     10  C   UNL     1       2.366   6.841   3.029  0.00  0.00    +0.041 A 
ATOM     11  C   UNL     1       1.112   7.417   2.930  0.00  0.00    +0.022 A 
ATOM     12  C   UNL     1      -0.020   6.633   3.040  0.00  0.00    +0.028 A 
ATOM     13 CL   UNL     1       3.787   7.829   2.890  0.00  0.00    -0.084 Cl
ENDBRANCH   6   7
BRANCH   5  14
ATOM     14  C   UNL     1      -0.740   3.027   1.259  0.00  0.00    -0.003 C 
ATOM     15  C   UNL     1      -1.486   3.553   0.032  0.00  0.00    -0.005 C 
BRANCH  14  16
ATOM     16  N   UNL     1      -0.700   1.560   1.217  0.00  0.00    +0.382 N 
ATOM     17  C   UNL     1      -0.013   1.086   0.008  0.00  0.00    -0.096 C 
ATOM     18  C   UNL     1      -0.072   1.015   2.428  0.00  0.00    -0.096 C 
ATOM     19  H   UNL     1      -1.737   1.195   1.181  0.00  0.00    -0.082 HD
ENDBRANCH  14  16
ENDBRANCH   5  14
ENDBRANCH   1   2
BRANCH   1  20
ATOM     20  C   UNL     1      -3.543   5.071   6.534  0.00  0.00    +0.173 C 
BRANCH  20  22
ATOM     21  N   UNL     1      -4.856   5.662   8.546  0.00  0.00    -0.308 N 
ATOM     22  C   UNL     1      -3.770   5.889   7.780  0.00  0.00    +0.224 C 
ATOM     23  O   UNL     1      -2.977   6.751   8.092  0.00  0.00    -0.275 OA
ATOM     24  H   UNL     1      -5.575   4.880   8.263  0.00  0.00    +0.149 HD
BRANCH  21  26
ATOM     25  C   UNL     1      -4.305   5.836  10.922  0.00  0.00    +0.033 C 
ATOM     26  C   UNL     1      -5.077   6.457   9.757  0.00  0.00    +0.100 C 
BRANCH  26  27
ATOM     27  C   UNL     1      -6.548   6.478  10.082  0.00  0.00    -0.027 A 
ATOM     28  C   UNL     1      -7.308   5.333   9.930  0.00  0.00    +0.006 A 
ATOM     29  C   UNL     1      -8.655   5.360  10.227  0.00  0.00    +0.004 A 
ATOM     30  C   UNL     1      -9.254   6.529  10.680  0.00  0.00    -0.044 A 
ATOM     31  C   UNL     1      -8.496   7.667  10.836  0.00  0.00    -0.044 A 
ATOM     32  C   UNL     1      -7.139   7.637  10.539  0.00  0.00    +0.009 A 
ATOM     33  C   UNL     1      -9.076   8.966  11.332  0.00  0.00    +0.035 C 
ATOM     34  C   UNL     1     -10.598   8.960  11.197  0.00  0.00    +0.005 C 
ATOM     35  C   UNL     1     -11.136   7.679  11.844  0.00  0.00    +0.005 C 
ATOM     36  C   UNL     1     -10.731   6.492  10.973  0.00  0.00    +0.035 C 
ENDBRANCH  26  27
ENDBRANCH  21  26
ENDBRANCH  20  22
ENDBRANCH   1  20
TORSDOF 8
