REMARK  Name = ZINC15672432
REMARK  10 active torsions:
REMARK  status: ('A' for Active; 'I' for Inactive)
REMARK    1  A    between atoms: C_1  and  C_2
REMARK    2  A    between atoms: C_2  and  C_26
REMARK    3  A    between atoms: N_14  and  C_15
REMARK    4  A    between atoms: C_15  and  C_16
REMARK    5  A    between atoms: C_16  and  C_17
REMARK    6  A    between atoms: C_17  and  N_71
REMARK    7  A    between atoms: C_18  and  N_71
REMARK    8  A    between atoms: C_19  and  C_20
REMARK    9  A    between atoms: C_19  and  N_71
REMARK   10  A    between atoms: N_28  and  C_29
REMARK                            x       y       z     vdW  Elec       q    Type
REMARK                         _______ _______ _______ _____ _____    ______ ____
ROOT
ATOM      1  C   UNL     1      -0.414   3.070   1.440  0.00  0.00    +0.043 C 
ATOM      2  C   UNL     1      -0.744   1.586   1.268  0.00  0.00    +0.128 C 
ATOM      3  C   UNL     1      -0.034   1.064   0.019  0.00  0.00    +0.157 C 
ATOM      4  N   UNL     1      -0.727   1.563  -1.172  0.00  0.00    -0.333 N 
ATOM      5  C   UNL     1      -0.214   1.827  -2.428  0.00  0.00    +0.057 A 
ATOM      6  C   UNL     1       1.018   1.780  -3.099  0.00  0.00    +0.034 A 
ATOM      7  C   UNL     1       1.097   2.137  -4.398  0.00  0.00    +0.048 A 
ATOM      8  S   UNL     1      -0.588   2.576  -4.787  0.00  0.00    -0.095 S 
ATOM      9  C   UNL     1      -1.306   2.261  -3.195  0.00  0.00    +0.038 A 
ATOM     10  C   UNL     1      -2.453   2.263  -2.411  0.00  0.00    +0.048 A 
ATOM     11  C   UNL     1      -2.090   1.839  -1.167  0.00  0.00    +0.106 A 
ATOM     12  C   UNL     1      -2.886   1.671   0.055  0.00  0.00    +0.264 C 
ATOM     13  O   UNL     1      -4.101   1.744   0.045  0.00  0.00    -0.268 OA
ATOM     14  N   UNL     1      -2.194   1.431   1.194  0.00  0.00    -0.281 N 
ENDROOT
BRANCH   2  15
ATOM     15  C   UNL     1      -0.232   0.834   2.469  0.00  0.00    +0.238 C 
ATOM     16  O   UNL     1       0.253  -0.269   2.332  0.00  0.00    -0.273 OA
ATOM     17  N   UNL     1      -0.314   1.387   3.696  0.00  0.00    -0.311 N 
ATOM     18  H   UNL     1      -0.772   2.233   3.817  0.00  0.00    +0.149 HD
BRANCH  17  19
ATOM     19  C   UNL     1       0.290   0.710   4.846  0.00  0.00    +0.073 C 
ATOM     20  C   UNL     1      -0.693  -0.320   5.405  0.00  0.00    +0.022 C 
ATOM     21  C   UNL     1      -0.062  -1.027   6.607  0.00  0.00    +0.002 C 
ATOM     22  C   UNL     1       0.269   0.003   7.689  0.00  0.00    +0.000 C 
ATOM     23  C   UNL     1       1.252   1.033   7.129  0.00  0.00    +0.002 C 
ATOM     24  C   UNL     1       0.621   1.740   5.928  0.00  0.00    +0.022 C 
ENDBRANCH  17  19
ENDBRANCH   2  15
BRANCH  14  25
ATOM     25  C   UNL     1      -2.923   1.002   2.390  0.00  0.00    +0.107 C 
BRANCH  25  26
ATOM     26  C   UNL     1      -3.120  -0.514   2.351  0.00  0.00    +0.000 C 
BRANCH  26  27
ATOM     27  C   UNL     1      -3.881  -0.962   3.600  0.00  0.00    -0.077 C 
BRANCH  27  29
ATOM     28  C   UNL     1      -4.956  -2.806   2.456  0.00  0.00    -0.096 C 
ATOM     29  N   UNL     1      -4.045  -2.431   3.558  0.00  0.00    +0.381 N 
ATOM     30  H   UNL     1      -3.128  -2.864   3.395  0.00  0.00    -0.082 HD
BRANCH  29  31
ATOM     31  C   UNL     1      -4.583  -2.916   4.846  0.00  0.00    -0.043 C 
BRANCH  31  32
ATOM     32  C   UNL     1      -4.533  -4.422   4.857  0.00  0.00    -0.064 A 
ATOM     33  C   UNL     1      -5.618  -5.153   4.410  0.00  0.00    +0.002 A 
ATOM     34  C   UNL     1      -5.570  -6.535   4.416  0.00  0.00    +0.000 A 
ATOM     35  C   UNL     1      -4.441  -7.185   4.877  0.00  0.00    +0.000 A 
ATOM     36  C   UNL     1      -3.358  -6.455   5.329  0.00  0.00    +0.000 A 
ATOM     37  C   UNL     1      -3.405  -5.073   5.319  0.00  0.00    +0.002 A 
ENDBRANCH  31  32
ENDBRANCH  29  31
ENDBRANCH  27  29
ENDBRANCH  26  27
ENDBRANCH  25  26
ENDBRANCH  14  25
TORSDOF 8
