REMARK  Name = ZINC20918480
REMARK  12 active torsions:
REMARK  status: ('A' for Active; 'I' for Inactive)
REMARK    1  A    between atoms: C_1  and  C_2
REMARK    2  A    between atoms: C_5  and  C_8
REMARK    3  A    between atoms: N_9  and  N_10
REMARK    4  A    between atoms: C_14  and  S_17
REMARK    5  A    between atoms: N_15  and  N_16
REMARK    6  A    between atoms: S_17  and  C_18
REMARK    7  A    between atoms: C_18  and  C_19
REMARK    8  A    between atoms: N_21  and  N_22
REMARK    9  A    between atoms: C_23  and  C_25
REMARK   10  A    between atoms: C_25  and  C_26
REMARK   11  A    between atoms: C_25  and  C_27
REMARK   12  A    between atoms: C_25  and  C_28
REMARK                            x       y       z     vdW  Elec       q    Type
REMARK                         _______ _______ _______ _____ _____    ______ ____
ROOT
ATOM      1  N   UNL     1      -0.017   1.383   0.010  0.00  0.00    -0.204 N 
ATOM      2  C   UNL     1       0.002  -0.004   0.002  0.00  0.00    +0.254 A 
ATOM      3  N   UNL     1      -1.048  -0.789   0.014  0.00  0.00    -0.109 NA
ATOM      4  N   UNL     1      -0.597  -2.115  -0.003  0.00  0.00    -0.119 NA
ATOM      5  C   UNL     1       0.715  -2.097  -0.015  0.00  0.00    +0.210 A 
ATOM      6  N   UNL     1       1.119  -0.793  -0.013  0.00  0.00    -0.211 N 
ATOM      7  H   UNL     1       0.928   1.946   0.008  0.00  0.00    +0.177 HD
ENDROOT
BRANCH   6   8
ATOM      8  N   UNL     1       2.412  -0.353  -0.023  0.00  0.00    -0.294 N 
ATOM      9  H   UNL     1       3.240  -1.077  -0.035  0.00  0.00    +0.163 HD
ATOM     10  H   UNL     1       2.626   0.726  -0.020  0.00  0.00    +0.163 HD
ENDBRANCH   6   8
BRANCH   1  12
ATOM     11  C   UNL     1      -1.257   3.366   0.026  0.00  0.00    +0.138 C 
ATOM     12  N   UNL     1      -1.239   2.067   0.019  0.00  0.00    -0.188 NA
BRANCH  11  17
ATOM     13  C   UNL     1      -6.276   6.173   0.066  0.00  0.00    +0.044 C 
ATOM     14  C   UNL     1      -4.961   5.438   0.055  0.00  0.00    -0.050 A 
ATOM     15  C   UNL     1      -3.774   6.149   0.053  0.00  0.00    +0.004 A 
ATOM     16  C   UNL     1      -2.567   5.482   0.044  0.00  0.00    +0.010 A 
ATOM     17  C   UNL     1      -2.544   4.085   0.036  0.00  0.00    -0.005 A 
ATOM     18  C   UNL     1      -3.746   3.374   0.032  0.00  0.00    +0.010 A 
ATOM     19  C   UNL     1      -4.946   4.054   0.047  0.00  0.00    +0.004 A 
ENDBRANCH  11  17
ENDBRANCH   1  12
BRANCH   5  20
ATOM     20  S   UNL     1       1.770  -3.508  -0.033  0.00  0.00    -0.075 S 
BRANCH  20  21
ATOM     21  C   UNL     1       0.623  -4.914  -0.029  0.00  0.00    +0.174 C 
BRANCH  21  22
ATOM     22  C   UNL     1       1.406  -6.201  -0.042  0.00  0.00    +0.239 C 
ATOM     23  O   UNL     1       2.619  -6.173  -0.054  0.00  0.00    -0.273 OA
ATOM     24  N   UNL     1       0.759  -7.384  -0.042  0.00  0.00    -0.234 N 
ATOM     25  H   UNL     1      -0.340  -7.409  -0.032  0.00  0.00    +0.173 HD
BRANCH  24  26
ATOM     26  N   UNL     1       1.487  -8.581  -0.055  0.00  0.00    -0.234 N 
ATOM     27  C   UNL     1       0.841  -9.763  -0.055  0.00  0.00    +0.234 C 
ATOM     28  O   UNL     1      -0.372  -9.791  -0.043  0.00  0.00    -0.274 OA
ATOM     29  H   UNL     1       2.587  -8.555  -0.065  0.00  0.00    +0.173 HD
BRANCH  27  30
ATOM     30  C   UNL     1       1.624 -11.050  -0.068  0.00  0.00    +0.040 C 
ATOM     31  C   UNL     1       0.656 -12.236  -0.065  0.00  0.00    +0.020 C 
ATOM     32  C   UNL     1       2.493 -11.105  -1.326  0.00  0.00    +0.020 C 
ATOM     33  C   UNL     1       2.517 -11.117   1.172  0.00  0.00    +0.020 C 
ENDBRANCH  27  30
ENDBRANCH  24  26
ENDBRANCH  21  22
ENDBRANCH  20  21
ENDBRANCH   5  20
TORSDOF 8
