REMARK  Name = ZINC20596260
REMARK  3 active torsions:
REMARK  status: ('A' for Active; 'I' for Inactive)
REMARK    1  A    between atoms: C_7  and  C_10
REMARK    2  A    between atoms: C_10  and  C_12
REMARK    3  A    between atoms: C_10  and  N_22
REMARK                            x       y       z     vdW  Elec       q    Type
REMARK                         _______ _______ _______ _____ _____    ______ ____
ROOT
ATOM      1  C   UNL     1      -3.692  -0.803   0.018  0.00  0.00    -0.012 C 
ENDROOT
BRANCH   1   2
ATOM      2  C   UNL     1      -2.397  -0.033   0.016  0.00  0.00    -0.054 A 
ATOM      3  C   UNL     1      -2.415   1.349   0.026  0.00  0.00    +0.006 A 
ATOM      4  C   UNL     1      -1.229   2.059   0.019  0.00  0.00    +0.049 A 
ATOM      5  C   UNL     1      -0.017   1.385   0.010  0.00  0.00    +0.162 A 
ATOM      6  C   UNL     1       0.002  -0.004   0.002  0.00  0.00    +0.162 A 
ATOM      7  C   UNL     1      -1.192  -0.710   0.004  0.00  0.00    +0.051 A 
ATOM      8  O   UNL     1       1.181  -0.685  -0.007  0.00  0.00    -0.485 OA
ATOM      9  C   UNL     1       2.347   0.053  -0.387  0.00  0.00    +0.270 C 
ATOM     10  C   UNL     1       2.334   1.392   0.364  0.00  0.00    +0.270 C 
ATOM     11  O   UNL     1       1.143   2.098   0.002  0.00  0.00    -0.485 OA
ENDBRANCH   1   2
BRANCH   1  18
ATOM     12  C   UNL     1      -2.590  -3.761  -3.141  0.00  0.00    +0.001 A 
ATOM     13  C   UNL     1      -3.202  -3.662  -4.383  0.00  0.00    +0.001 A 
ATOM     14  C   UNL     1      -4.125  -2.661  -4.608  0.00  0.00    +0.015 A 
ATOM     15  C   UNL     1      -4.427  -1.775  -3.596  0.00  0.00    +0.020 A 
ATOM     16  C   UNL     1      -3.820  -1.854  -2.324  0.00  0.00    -0.009 A 
ATOM     17  C   UNL     1      -2.879  -2.894  -2.135  0.00  0.00    +0.009 A 
ATOM     18  C   UNL     1      -4.258  -0.838  -1.379  0.00  0.00    -0.043 A 
ATOM     19  C   UNL     1      -5.173   0.064  -1.761  0.00  0.00    +0.048 A 
ATOM     20  S   UNL     1      -5.517  -0.383  -3.452  0.00  0.00    -0.096 S 
ENDBRANCH   1  18
BRANCH   1  21
ATOM     21  N   UNL     1      -4.650  -0.147   0.918  0.00  0.00    +0.385 N 
ATOM     22  H   UNL     1      -4.237  -0.122   1.937  0.00  0.00    -0.089 HD
ATOM     23  H   UNL     1      -5.596  -0.710   0.919  0.00  0.00    -0.089 HD
ATOM     24  H   UNL     1      -4.835   0.880   0.571  0.00  0.00    -0.089 HD
ENDBRANCH   1  21
TORSDOF 3
