REMARK  Name = ZINC36135363
REMARK  10 active torsions:
REMARK  status: ('A' for Active; 'I' for Inactive)
REMARK    1  A    between atoms: C_1  and  C_2
REMARK    2  A    between atoms: C_2  and  N_3
REMARK    3  A    between atoms: C_6  and  N_9
REMARK    4  A    between atoms: N_9  and  C_10
REMARK    5  A    between atoms: C_11  and  C_13
REMARK    6  A    between atoms: C_13  and  C_15
REMARK    7  A    between atoms: C_13  and  N_21
REMARK    8  A    between atoms: C_15  and  C_16
REMARK    9  A    between atoms: C_16  and  S_17
REMARK   10  A    between atoms: S_17  and  C_20
REMARK                            x       y       z     vdW  Elec       q    Type
REMARK                         _______ _______ _______ _____ _____    ______ ____
ROOT
ATOM      1  N   UNL     1       3.321  -2.408  -3.874  0.00  0.00    -0.303 N 
ATOM      2  C   UNL     1       2.773  -1.903  -5.136  0.00  0.00    +0.132 C 
ATOM      3  C   UNL     1       4.379  -3.242  -3.885  0.00  0.00    +0.201 C 
ATOM      4  O   UNL     1       4.832  -3.660  -2.841  0.00  0.00    -0.277 OA
ENDROOT
BRANCH   1   8
ATOM      5  N   UNL     1       0.690  -0.478  -1.207  0.00  0.00    +0.380 N 
ATOM      6  C   UNL     1       2.097  -0.062  -1.162  0.00  0.00    -0.077 C 
ATOM      7  C   UNL     1       2.798  -0.483  -2.455  0.00  0.00    +0.004 C 
ATOM      8  C   UNL     1       2.718  -2.005  -2.601  0.00  0.00    +0.072 C 
ATOM      9  C   UNL     1       1.248  -2.434  -2.572  0.00  0.00    +0.004 C 
ATOM     10  C   UNL     1       0.605  -1.942  -1.274  0.00  0.00    -0.077 C 
ATOM     11  H   UNL     1       0.249  -0.078  -2.022  0.00  0.00    -0.082 HD
BRANCH   5  13
ATOM     12  C   UNL     1      -0.019   1.526   0.010  0.00  0.00    -0.017 C 
ATOM     13  C   UNL     1       0.002  -0.004   0.002  0.00  0.00    -0.082 C 
ENDBRANCH   5  13
ENDBRANCH   1   8
BRANCH   3  14
ATOM     14  C   UNL     1       4.999  -3.656  -5.195  0.00  0.00    +0.014 C 
BRANCH  14  15
ATOM     15  N   UNL     1       6.364  -4.143  -4.958  0.00  0.00    +0.386 N 
ATOM     16  H   UNL     1       6.779  -4.420  -5.835  0.00  0.00    -0.089 HD
ATOM     17  H   UNL     1       6.916  -3.408  -4.542  0.00  0.00    -0.089 HD
ATOM     18  H   UNL     1       6.335  -4.936  -4.334  0.00  0.00    -0.089 HD
ENDBRANCH  14  15
BRANCH  14  19
ATOM     19  C   UNL     1       4.162  -4.771  -5.825  0.00  0.00    +0.015 C 
BRANCH  19  20
ATOM     20  C   UNL     1       4.719  -5.105  -7.211  0.00  0.00    +0.164 C 
BRANCH  20  21
ATOM     21  S   UNL     1       3.726  -6.427  -7.958  0.00  0.00    -0.034 S 
ATOM     22  O   UNL     1       3.895  -7.607  -7.186  0.00  0.00    -0.175 OA
ATOM     23  O   UNL     1       2.414  -5.930  -8.185  0.00  0.00    -0.175 OA
ATOM     24  C   UNL     1       4.532  -6.673  -9.565  0.00  0.00    +0.194 C 
ENDBRANCH  20  21
ENDBRANCH  19  20
ENDBRANCH  14  19
ENDBRANCH   3  14
TORSDOF 7
