REMARK  Name = ZINC40824667
REMARK  7 active torsions:
REMARK  status: ('A' for Active; 'I' for Inactive)
REMARK    1  A    between atoms: C_1  and  C_2
REMARK    2  A    between atoms: C_6  and  N_8
REMARK    3  A    between atoms: C_9  and  C_11
REMARK    4  A    between atoms: C_12  and  C_25
REMARK    5  A    between atoms: N_20  and  N_21
REMARK    6  A    between atoms: N_21  and  C_22
REMARK    7  A    between atoms: C_22  and  N_24
REMARK                            x       y       z     vdW  Elec       q    Type
REMARK                         _______ _______ _______ _____ _____    ______ ____
ROOT
ATOM      1  C   UNL     1      -0.127  -4.662   3.763  0.00  0.00    +0.193 A 
ATOM      2  C   UNL     1      -0.210  -6.014   3.950  0.00  0.00    +0.009 A 
ATOM      3  C   UNL     1      -0.282  -6.213   5.335  0.00  0.00    +0.042 A 
ATOM      4  C   UNL     1      -0.241  -4.976   5.932  0.00  0.00    +0.115 A 
ATOM      5  O   UNL     1      -0.141  -4.059   4.973  0.00  0.00    -0.454 OA
ATOM      6  C   UNL     1      -0.301  -4.784   7.426  0.00  0.00    +0.075 C 
ATOM      7  C   UNL     1      -0.912  -6.030   8.075  0.00  0.00    +0.014 C 
ATOM      8  C   UNL     1      -0.171  -7.293   7.624  0.00  0.00    +0.058 C 
ATOM      9  C   UNL     1      -0.382  -7.460   6.126  0.00  0.00    +0.070 C 
ATOM     10  N   UNL     1      -0.632  -8.611   5.583  0.00  0.00    -0.185 NA
ATOM     11  C   UNL     1      -0.223  -7.077   2.882  0.00  0.00    +0.048 C 
ENDROOT
BRANCH   1  13
ATOM     12  N   UNL     1       0.051  -2.637   2.416  0.00  0.00    -0.264 N 
ATOM     13  C   UNL     1      -0.032  -3.982   2.467  0.00  0.00    +0.285 C 
ATOM     14  O   UNL     1      -0.028  -4.631   1.438  0.00  0.00    -0.266 OA
ATOM     15  H   UNL     1       0.122  -2.125   3.236  0.00  0.00    +0.157 HD
BRANCH  12  21
ATOM     16  C   UNL     1       0.027  -2.965  -2.361  0.00  0.00    +0.065 C 
ATOM     17  C   UNL     1       0.022  -2.114  -1.118  0.00  0.00    +0.040 A 
ATOM     18  C   UNL     1       0.001  -0.738  -1.234  0.00  0.00    +0.023 A 
ATOM     19  C   UNL     1      -0.004   0.041  -0.085  0.00  0.00    +0.005 A 
ATOM     20  C   UNL     1       0.013  -0.595   1.144  0.00  0.00    +0.044 A 
ATOM     21  C   UNL     1       0.034  -1.984   1.186  0.00  0.00    +0.125 A 
ATOM     22  N   UNL     1       0.033  -2.693   0.067  0.00  0.00    -0.237 NA
ENDBRANCH  12  21
ENDBRANCH   1  13
BRANCH  10  23
ATOM     23  N   UNL     1      -0.716  -9.759   6.381  0.00  0.00    -0.218 N 
ATOM     24  H   UNL     1      -0.587  -9.693   7.341  0.00  0.00    +0.176 HD
BRANCH  23  25
ATOM     25  C   UNL     1      -0.975 -10.955   5.817  0.00  0.00    +0.147 C 
ATOM     26  S   UNL     1      -1.078 -12.358   6.793  0.00  0.00    -0.017 S 
BRANCH  25  27
ATOM     27  N   UNL     1      -1.154 -11.047   4.484  0.00  0.00    -0.339 N 
ATOM     28  H   UNL     1      -1.096 -10.252   3.931  0.00  0.00    +0.144 HD
ATOM     29  H   UNL     1      -1.340 -11.908   4.078  0.00  0.00    +0.144 HD
ENDBRANCH  25  27
ENDBRANCH  23  25
ENDBRANCH  10  23
TORSDOF 5
