REMARK  Name = ZINC04944744
REMARK  3 active torsions:
REMARK  status: ('A' for Active; 'I' for Inactive)
REMARK    1  A    between atoms: C_8  and  C_26
REMARK    2  A    between atoms: C_9  and  N_25
REMARK    3  A    between atoms: N_10  and  C_18
REMARK                            x       y       z     vdW  Elec       q    Type
REMARK                         _______ _______ _______ _____ _____    ______ ____
ROOT
ATOM      1  C   UNL     1      -0.271   3.254  -3.566  0.00  0.00    +0.000 A 
ATOM      2  C   UNL     1      -1.522   3.794  -3.346  0.00  0.00    +0.002 A 
ATOM      3  C   UNL     1      -1.936   4.200  -2.088  0.00  0.00    +0.023 A 
ATOM      4  C   UNL     1      -1.032   4.041  -1.036  0.00  0.00    +0.038 A 
ATOM      5  C   UNL     1       0.233   3.490  -1.272  0.00  0.00    -0.002 A 
ATOM      6  C   UNL     1       0.638   3.089  -2.526  0.00  0.00    +0.007 A 
ATOM      7  C   UNL     1       0.934   3.462   0.052  0.00  0.00    +0.141 C 
ATOM      8  C   UNL     1       2.171   4.308   0.019  0.00  0.00    +0.089 C 
ATOM      9  C   UNL     1       3.404   3.739  -0.029  0.00  0.00    +0.108 C 
ATOM     10  N   UNL     1       3.532   2.369  -0.041  0.00  0.00    -0.260 N 
ATOM     11  C   UNL     1       2.506   1.566   0.384  0.00  0.00    +0.025 C 
ATOM     12  C   UNL     1       1.244   2.044   0.455  0.00  0.00    +0.037 C 
ATOM     13  C   UNL     1       0.187   1.234   0.904  0.00  0.00    +0.162 C 
ATOM     14  O   UNL     1      -0.939   1.688   0.938  0.00  0.00    -0.292 OA
ATOM     15  C   UNL     1       0.423  -0.187   1.339  0.00  0.00    +0.080 C 
ATOM     16  C   UNL     1       1.855  -0.316   1.868  0.00  0.00    +0.014 C 
ATOM     17  C   UNL     1       2.820   0.143   0.772  0.00  0.00    +0.052 C 
ATOM     18  C   UNL     1      -0.074   4.054   1.017  0.00  0.00    +0.238 C 
ATOM     19  O   UNL     1       0.083   4.223   2.208  0.00  0.00    -0.274 OA
ATOM     20  N   UNL     1      -1.177   4.356   0.303  0.00  0.00    -0.284 N 
ATOM     21  H   UNL     1      -1.978   4.750   0.684  0.00  0.00    +0.155 HD
ENDROOT
BRANCH  10  22
ATOM     22  C   UNL     1       4.724   1.788  -0.493  0.00  0.00    +0.040 A 
ATOM     23  C   UNL     1       5.779   1.591   0.388  0.00  0.00    +0.026 A 
ATOM     24  C   UNL     1       6.952   1.014  -0.059  0.00  0.00    +0.040 A 
ATOM     25  C   UNL     1       7.079   0.642  -1.387  0.00  0.00    +0.124 A 
ATOM     26  C   UNL     1       6.030   0.842  -2.268  0.00  0.00    +0.040 A 
ATOM     27  C   UNL     1       4.854   1.414  -1.824  0.00  0.00    +0.026 A 
ATOM     28  F   UNL     1       8.229   0.083  -1.823  0.00  0.00    -0.205 F 
ENDBRANCH  10  22
BRANCH   9  29
ATOM     29  N   UNL     1       4.526   4.533  -0.064  0.00  0.00    -0.345 N 
ATOM     30  H   UNL     1       4.436   5.496  -0.143  0.00  0.00    +0.144 HD
ATOM     31  H   UNL     1       5.407   4.131  -0.010  0.00  0.00    +0.144 HD
ENDBRANCH   9  29
BRANCH   8  32
ATOM     32  C   UNL     1       2.051   5.735   0.039  0.00  0.00    +0.100 C 
ATOM     33  N   UNL     1       1.957   6.867   0.054  0.00  0.00    -0.191 NA
ENDBRANCH   8  32
TORSDOF 3
