REMARK  Name = ZINC23078091
REMARK  11 active torsions:
REMARK  status: ('A' for Active; 'I' for Inactive)
REMARK    1  A    between atoms: C_1  and  C_2
REMARK    2  A    between atoms: C_2  and  C_3
REMARK    3  A    between atoms: C_2  and  C_4
REMARK    4  A    between atoms: C_2  and  N_5
REMARK    5  A    between atoms: N_5  and  S_6
REMARK    6  A    between atoms: S_6  and  C_9
REMARK    7  A    between atoms: C_12  and  N_18
REMARK    8  A    between atoms: C_13  and  N_15
REMARK    9  A    between atoms: N_18  and  C_19
REMARK   10  A    between atoms: N_22  and  C_25
REMARK   11  A    between atoms: C_25  and  C_26
REMARK                            x       y       z     vdW  Elec       q    Type
REMARK                         _______ _______ _______ _____ _____    ______ ____
ROOT
ATOM      1  C   UNL     1      -0.594   2.784  -0.624  0.00  0.00    +0.108 A 
ATOM      2  C   UNL     1      -1.536   2.677  -1.631  0.00  0.00    +0.030 A 
ATOM      3  C   UNL     1      -1.571   3.610  -2.649  0.00  0.00    +0.027 A 
ATOM      4  C   UNL     1      -0.658   4.658  -2.660  0.00  0.00    +0.058 A 
ATOM      5  C   UNL     1       0.287   4.763  -1.647  0.00  0.00    +0.149 A 
ATOM      6  C   UNL     1       0.312   3.829  -0.629  0.00  0.00    +0.063 A 
ENDROOT
BRANCH   1   7
ATOM      7  S   UNL     1      -0.553   1.592   0.672  0.00  0.00    +0.059 S 
ATOM      8  O   UNL     1      -1.755   0.840   0.570  0.00  0.00    -0.153 OA
ATOM      9  O   UNL     1      -0.188   2.289   1.855  0.00  0.00    -0.153 OA
BRANCH   7  10
ATOM     10  N   UNL     1       0.688   0.547   0.337  0.00  0.00    -0.185 NA
ATOM     11  H   UNL     1       1.483   0.401   1.083  0.00  0.00    +0.149 HD
BRANCH  10  13
ATOM     12  C   UNL     1       0.255   0.499  -2.070  0.00  0.00    +0.029 C 
ATOM     13  C   UNL     1       0.611  -0.330  -0.834  0.00  0.00    +0.032 C 
ATOM     14  C   UNL     1       1.964  -1.012  -1.050  0.00  0.00    +0.029 C 
ATOM     15  C   UNL     1      -0.465  -1.393  -0.605  0.00  0.00    +0.029 C 
ENDBRANCH  10  13
ENDBRANCH   7  10
ENDBRANCH   1   7
BRANCH   5  16
ATOM     16  N   UNL     1       1.261   5.877  -1.655  0.00  0.00    +0.058 N 
ATOM     17  O   UNL     1       1.765   6.237  -2.703  0.00  0.00    -0.126 OA
ATOM     18  O   UNL     1       1.559   6.433  -0.613  0.00  0.00    -0.126 OA
ENDBRANCH   5  16
BRANCH   4  19
ATOM     19  N   UNL     1      -0.690   5.603  -3.688  0.00  0.00    -0.339 N 
ATOM     20  H   UNL     1       0.067   6.400  -3.725  0.00  0.00    +0.146 HD
BRANCH  19  21
ATOM     21  C   UNL     1      -1.732   5.533  -4.715  0.00  0.00    +0.067 C 
ATOM     22  C   UNL     1      -1.296   4.567  -5.820  0.00  0.00    +0.003 C 
ATOM     23  C   UNL     1      -2.360   4.546  -6.920  0.00  0.00    -0.076 C 
ATOM     24  N   UNL     1      -2.532   5.899  -7.465  0.00  0.00    +0.385 N 
ATOM     25  C   UNL     1      -2.996   6.833  -6.432  0.00  0.00    -0.076 C 
ATOM     26  C   UNL     1      -1.950   6.924  -5.318  0.00  0.00    +0.003 C 
ATOM     27  H   UNL     1      -1.548   6.247  -7.814  0.00  0.00    -0.081 HD
BRANCH  24  28
ATOM     28  C   UNL     1      -3.445   5.891  -8.616  0.00  0.00    +0.018 C 
BRANCH  28  29
ATOM     29  C   UNL     1      -3.405   7.235  -9.298  0.00  0.00    +0.194 C 
ATOM     30  O   UNL     1      -2.592   8.066  -8.954  0.00  0.00    -0.278 OA
ATOM     31  N   UNL     1      -4.275   7.513 -10.289  0.00  0.00    -0.331 N 
ATOM     32  H   UNL     1      -4.246   8.494 -10.787  0.00  0.00    +0.145 HD
ATOM     33  H   UNL     1      -5.013   6.759 -10.601  0.00  0.00    +0.145 HD
ENDBRANCH  28  29
ENDBRANCH  24  28
ENDBRANCH  19  21
ENDBRANCH   4  19
TORSDOF 8
