REMARK  Name = ZINC39500580
REMARK  7 active torsions:
REMARK  status: ('A' for Active; 'I' for Inactive)
REMARK    1  A    between atoms: C_1  and  C_2
REMARK    2  A    between atoms: C_2  and  C_3
REMARK    3  A    between atoms: C_2  and  C_4
REMARK    4  A    between atoms: C_19  and  C_21
REMARK    5  A    between atoms: C_21  and  S_22
REMARK    6  A    between atoms: S_22  and  C_23
REMARK    7  A    between atoms: C_29  and  C_33
REMARK                            x       y       z     vdW  Elec       q    Type
REMARK                         _______ _______ _______ _____ _____    ______ ____
ROOT
ATOM      1  C   UNL     1       0.924  -0.389  -1.142  0.00  0.00    +0.125 C 
ATOM      2  C   UNL     1       1.129  -1.886  -1.202  0.00  0.00    +0.041 A 
ATOM      3  H   UNL     1      -0.796  -2.672  -1.061  0.00  0.00    +0.166 HD
ATOM      4  C   UNL     1       2.342  -2.468  -1.321  0.00  0.00    -0.016 A 
ATOM      5  C   UNL     1       2.123  -3.900  -1.349  0.00  0.00    +0.003 A 
ATOM      6  C   UNL     1       2.992  -4.989  -1.459  0.00  0.00    +0.010 A 
ATOM      7  C   UNL     1       2.424  -6.240  -1.449  0.00  0.00    +0.001 A 
ATOM      8  C   UNL     1       1.057  -6.426  -1.337  0.00  0.00    +0.002 A 
ATOM      9  C   UNL     1       0.173  -5.365  -1.227  0.00  0.00    +0.026 A 
ATOM     10  C   UNL     1       0.721  -4.085  -1.234  0.00  0.00    +0.047 A 
ATOM     11  N   UNL     1       0.154  -2.846  -1.148  0.00  0.00    -0.356 N 
ATOM     12  C   UNL     1       3.649  -1.722  -1.399  0.00  0.00    +0.056 C 
ATOM     13  C   UNL     1       3.368  -0.261  -1.770  0.00  0.00    +0.113 C 
ATOM     14  N   UNL     1       2.247   0.233  -0.958  0.00  0.00    -0.292 N 
ATOM     15  C   UNL     1       2.424   1.228  -0.067  0.00  0.00    +0.226 C 
ATOM     16  O   UNL     1       1.470   1.699   0.516  0.00  0.00    -0.275 OA
ENDROOT
BRANCH   1  18
ATOM     17  C   UNL     1      -1.351  -0.695  -0.157  0.00  0.00    +0.009 C 
ATOM     18  C   UNL     1       0.015  -0.035   0.037  0.00  0.00    +0.009 C 
ATOM     19  C   UNL     1       0.646  -0.541   1.337  0.00  0.00    +0.009 C 
ENDBRANCH   1  18
BRANCH  15  20
ATOM     20  C   UNL     1       3.809   1.757   0.207  0.00  0.00    +0.171 C 
BRANCH  20  21
ATOM     21  S   UNL     1       3.718   3.081   1.443  0.00  0.00    -0.100 S 
BRANCH  21  22
ATOM     22  C   UNL     1       5.393   3.587   1.651  0.00  0.00    +0.078 C 
ATOM     23  C   UNL     1       5.701   4.591   2.538  0.00  0.00    +0.035 C 
ATOM     24  C   UNL     1       7.026   5.007   2.716  0.00  0.00    +0.049 C 
ATOM     25  C   UNL     1       8.042   4.408   1.996  0.00  0.00    +0.160 C 
ATOM     26  N   UNL     1       9.361   4.609   1.974  0.00  0.00    -0.160 NA
ATOM     27  N   UNL     1       9.982   3.837   1.157  0.00  0.00    -0.281 N 
ATOM     28  C   UNL     1       8.994   2.965   0.501  0.00  0.00    +0.237 C 
ATOM     29  N   UNL     1       7.715   3.379   1.090  0.00  0.00    -0.206 N 
ATOM     30  N   UNL     1       6.392   2.971   0.927  0.00  0.00    -0.254 N 
ATOM     31  H   UNL     1       6.175   2.260   0.304  0.00  0.00    +0.171 HD
ATOM     32  H   UNL     1      10.939   3.830   1.000  0.00  0.00    +0.185 HD
BRANCH  28  33
ATOM     33  C   UNL     1       8.994   3.193  -0.989  0.00  0.00    +0.014 A 
ATOM     34  C   UNL     1      10.161   3.555  -1.644  0.00  0.00    +0.010 A 
ATOM     35  C   UNL     1      10.113   3.755  -3.015  0.00  0.00    +0.020 A 
ATOM     36  C   UNL     1       8.913   3.587  -3.678  0.00  0.00    +0.111 A 
ATOM     37  N   UNL     1       7.822   3.242  -3.023  0.00  0.00    -0.263 NA
ATOM     38  C   UNL     1       7.832   3.038  -1.720  0.00  0.00    +0.118 A 
ENDBRANCH  28  33
ENDBRANCH  21  22
ENDBRANCH  20  21
ENDBRANCH  15  20
TORSDOF 5
