REMARK  Name = ZINC20136212
REMARK  9 active torsions:
REMARK  status: ('A' for Active; 'I' for Inactive)
REMARK    1  A    between atoms: C_1  and  C_2
REMARK    2  A    between atoms: C_4  and  N_32
REMARK    3  A    between atoms: C_9  and  N_12
REMARK    4  A    between atoms: C_13  and  C_15
REMARK    5  A    between atoms: C_15  and  C_16
REMARK    6  A    between atoms: C_16  and  C_17
REMARK    7  A    between atoms: N_22  and  C_25
REMARK    8  A    between atoms: C_25  and  C_26
REMARK    9  A    between atoms: N_35  and  C_38
REMARK                            x       y       z     vdW  Elec       q    Type
REMARK                         _______ _______ _______ _____ _____    ______ ____
ROOT
ATOM      1  N   UNL     1      -1.191   1.867   0.018  0.00  0.00    -0.285 N 
ATOM      2  C   UNL     1      -0.027   1.206   0.181  0.00  0.00    +0.218 C 
ATOM      3  O   UNL     1      -0.030   0.002   0.334  0.00  0.00    -0.275 OA
ATOM      4  H   UNL     1      -1.196   2.966  -0.034  0.00  0.00    +0.155 HD
ENDROOT
BRANCH   1  13
ATOM      5  C   UNL     1      -6.001   2.845   1.497  0.00  0.00    +0.044 C 
ATOM      6  C   UNL     1      -5.962   1.498   0.822  0.00  0.00    -0.038 A 
ATOM      7  C   UNL     1      -7.093   0.752   0.687  0.00  0.00    +0.045 A 
ATOM      8  C   UNL     1      -7.034  -0.498   0.055  0.00  0.00    +0.099 A 
ATOM      9  N   UNL     1      -5.902  -0.979  -0.416  0.00  0.00    -0.343 N 
ATOM     10  C   UNL     1      -4.758  -0.291  -0.313  0.00  0.00    +0.048 A 
ATOM     11  C   UNL     1      -4.753   0.979   0.315  0.00  0.00    +0.003 A 
ATOM     12  C   UNL     1      -3.552   1.696   0.422  0.00  0.00    +0.033 A 
ATOM     13  C   UNL     1      -2.392   1.155  -0.086  0.00  0.00    +0.034 A 
ATOM     14  C   UNL     1      -2.404  -0.097  -0.710  0.00  0.00    +0.025 A 
ATOM     15  C   UNL     1      -3.555  -0.812  -0.821  0.00  0.00    +0.028 A 
ATOM     16  H   UNL     1      -5.884  -1.963  -0.907  0.00  0.00    +0.167 HD
BRANCH   8  17
ATOM     17  N   UNL     1      -8.194  -1.248  -0.075  0.00  0.00    -0.314 N 
ATOM     18  C   UNL     1      -8.821  -1.480   1.233  0.00  0.00    +0.122 C 
ATOM     19  C   UNL     1     -10.136  -2.239   1.039  0.00  0.00    +0.103 C 
ATOM     20  N   UNL     1      -9.867  -3.511   0.353  0.00  0.00    -0.302 NA
ATOM     21  C   UNL     1      -9.240  -3.279  -0.956  0.00  0.00    +0.103 C 
ATOM     22  C   UNL     1      -7.926  -2.519  -0.761  0.00  0.00    +0.122 C 
ATOM     23  C   UNL     1     -11.096  -4.304   0.215  0.00  0.00    +0.105 C 
ENDBRANCH   8  17
ENDBRANCH   1  13
BRANCH   2  24
ATOM     24  C   UNL     1       1.277   1.961   0.167  0.00  0.00    +0.105 C 
BRANCH  24  25
ATOM     25  C   UNL     1       2.435   0.981   0.365  0.00  0.00    +0.105 C 
BRANCH  25  26
ATOM     26  C   UNL     1       3.739   1.736   0.351  0.00  0.00    +0.216 C 
ATOM     27  O   UNL     1       3.742   2.939   0.199  0.00  0.00    -0.276 OA
ATOM     28  N   UNL     1       4.903   1.075   0.509  0.00  0.00    -0.299 N 
ATOM     29  C   UNL     1       4.922  -0.384   0.701  0.00  0.00    +0.123 C 
ATOM     30  C   UNL     1       5.909  -0.990  -0.309  0.00  0.00    +0.103 C 
ATOM     31  N   UNL     1       7.213  -0.329  -0.170  0.00  0.00    -0.295 NA
ATOM     32  C   UNL     1       7.123   1.100  -0.498  0.00  0.00    +0.103 C 
ATOM     33  C   UNL     1       6.187   1.792   0.499  0.00  0.00    +0.123 C 
BRANCH  31  34
ATOM     34  C   UNL     1       8.231  -0.995  -0.993  0.00  0.00    +0.119 C 
BRANCH  34  35
ATOM     35  C   UNL     1       8.128  -2.487  -0.809  0.00  0.00    -0.033 A 
ATOM     36  C   UNL     1       8.859  -3.114   0.182  0.00  0.00    +0.005 A 
ATOM     37  C   UNL     1       8.760  -4.482   0.354  0.00  0.00    +0.000 A 
ATOM     38  C   UNL     1       7.939  -5.225  -0.473  0.00  0.00    +0.000 A 
ATOM     39  C   UNL     1       7.212  -4.599  -1.469  0.00  0.00    +0.000 A 
ATOM     40  C   UNL     1       7.306  -3.230  -1.637  0.00  0.00    +0.005 A 
ENDBRANCH  34  35
ENDBRANCH  31  34
ENDBRANCH  25  26
ENDBRANCH  24  25
ENDBRANCH   2  24
TORSDOF 7
