REMARK  Name = ZINC06600937
REMARK  11 active torsions:
REMARK  status: ('A' for Active; 'I' for Inactive)
REMARK    1  A    between atoms: C_1  and  C_2
REMARK    2  A    between atoms: C_2  and  O_3
REMARK    3  A    between atoms: O_3  and  C_4
REMARK    4  A    between atoms: C_7  and  N_10
REMARK    5  A    between atoms: N_10  and  C_11
REMARK    6  A    between atoms: C_11  and  C_13
REMARK    7  A    between atoms: C_11  and  C_14
REMARK    8  A    between atoms: N_16  and  C_17
REMARK    9  A    between atoms: C_22  and  C_24
REMARK   10  A    between atoms: C_25  and  N_32
REMARK   11  A    between atoms: C_26  and  C_29
REMARK                            x       y       z     vdW  Elec       q    Type
REMARK                         _______ _______ _______ _____ _____    ______ ____
ROOT
ATOM      1  N   UNL     1       4.639   0.901  -0.126  0.00  0.00    -0.255 N 
ATOM      2  C   UNL     1       3.724  -0.032   0.205  0.00  0.00    +0.261 C 
ATOM      3  O   UNL     1       4.045  -1.205   0.262  0.00  0.00    -0.269 OA
ENDROOT
BRANCH   1   7
ATOM      4  C   UNL     1       8.498  -0.253  -1.202  0.00  0.00    +0.121 A 
ATOM      5  C   UNL     1       8.056  -0.440   0.099  0.00  0.00    +0.047 A 
ATOM      6  C   UNL     1       6.778  -0.058   0.456  0.00  0.00    +0.027 A 
ATOM      7  C   UNL     1       5.935   0.514  -0.488  0.00  0.00    +0.038 A 
ATOM      8  C   UNL     1       6.376   0.696  -1.792  0.00  0.00    +0.027 A 
ATOM      9  C   UNL     1       7.657   0.318  -2.146  0.00  0.00    +0.047 A 
BRANCH   4  10
ATOM     10  O   UNL     1       9.757  -0.629  -1.553  0.00  0.00    -0.492 OA
BRANCH  10  12
ATOM     11  C   UNL     1      11.583  -0.890  -3.115  0.00  0.00    +0.048 C 
ATOM     12  C   UNL     1      10.146  -0.407  -2.910  0.00  0.00    +0.225 C 
ENDBRANCH  10  12
ENDBRANCH   4  10
ENDBRANCH   1   7
BRANCH   2  13
ATOM     13  C   UNL     1       2.346   0.366   0.497  0.00  0.00    +0.116 A 
ATOM     14  C   UNL     1       1.227  -0.433   0.741  0.00  0.00    +0.076 A 
ATOM     15  C   UNL     1       0.077   0.318   0.982  0.00  0.00    +0.155 A 
ATOM     16  N   UNL     1       0.149   1.630   0.959  0.00  0.00    -0.203 NA
ATOM     17  S   UNL     1       1.647   1.998   0.636  0.00  0.00    +0.019 S 
BRANCH  15  18
ATOM     18  C   UNL     1      -1.206  -0.353   1.260  0.00  0.00    +0.262 C 
ATOM     19  O   UNL     1      -1.266  -1.568   1.280  0.00  0.00    -0.269 OA
ATOM     20  N   UNL     1      -2.313   0.379   1.493  0.00  0.00    -0.324 N 
ATOM     21  H   UNL     1      -2.266   1.348   1.477  0.00  0.00    +0.145 HD
ATOM     22  H   UNL     1      -3.158  -0.062   1.676  0.00  0.00    +0.145 HD
ENDBRANCH  15  18
BRANCH  14  23
ATOM     23  N   UNL     1       1.257  -1.822   0.743  0.00  0.00    -0.355 N 
ATOM     24  H   UNL     1       0.446  -2.324   0.919  0.00  0.00    +0.142 HD
ATOM     25  H   UNL     1       2.088  -2.289   0.568  0.00  0.00    +0.142 HD
ENDBRANCH  14  23
ENDBRANCH   2  13
BRANCH   1  26
ATOM     26  C   UNL     1       4.277   2.321  -0.108  0.00  0.00    +0.164 C 
ATOM     27  C   UNL     1       5.545   3.171  -0.209  0.00  0.00    +0.038 C 
BRANCH  26  28
ATOM     28  C   UNL     1       3.374   2.624  -1.276  0.00  0.00    +0.234 C 
ATOM     29  O   UNL     1       3.347   1.877  -2.231  0.00  0.00    -0.274 OA
ATOM     30  N   UNL     1       2.596   3.724  -1.258  0.00  0.00    -0.311 N 
ATOM     31  H   UNL     1       2.618   4.321  -0.494  0.00  0.00    +0.149 HD
BRANCH  30  32
ATOM     32  C   UNL     1       1.718   4.019  -2.393  0.00  0.00    +0.073 C 
ATOM     33  C   UNL     1       2.481   4.840  -3.453  0.00  0.00    +0.022 C 
ATOM     34  C   UNL     1       1.424   5.833  -3.997  0.00  0.00    +0.002 C 
ATOM     35  C   UNL     1       0.619   6.206  -2.728  0.00  0.00    +0.002 C 
ATOM     36  C   UNL     1       0.534   4.887  -1.933  0.00  0.00    +0.022 C 
ENDBRANCH  30  32
ENDBRANCH  26  28
ENDBRANCH   1  26
TORSDOF 9
