REMARK  Name = ZINC63314608
REMARK  6 active torsions:
REMARK  status: ('A' for Active; 'I' for Inactive)
REMARK    1  A    between atoms: C_1  and  O_2
REMARK    2  A    between atoms: O_2  and  C_3
REMARK    3  A    between atoms: C_6  and  N_9
REMARK    4  A    between atoms: C_15  and  C_17
REMARK    5  A    between atoms: C_17  and  C_18
REMARK    6  A    between atoms: C_18  and  N_19
REMARK                            x       y       z     vdW  Elec       q    Type
REMARK                         _______ _______ _______ _____ _____    ______ ____
ROOT
ATOM      1  N   UNL     1       3.993  -7.552   9.261  0.00  0.00    -0.299 N 
ATOM      2  C   UNL     1       4.620  -8.161  10.286  0.00  0.00    +0.302 C 
ATOM      3  O   UNL     1       5.130  -7.497  11.168  0.00  0.00    -0.253 OA
ATOM      4  N   UNL     1       4.684  -9.507  10.334  0.00  0.00    -0.283 N 
ATOM      5  C   UNL     1       4.181 -10.297   9.206  0.00  0.00    +0.114 C 
ATOM      6  C   UNL     1       5.309 -11.194   8.665  0.00  0.00    +0.052 C 
ATOM      7  C   UNL     1       5.974 -11.824   9.863  0.00  0.00    -0.035 C 
ATOM      8  C   UNL     1       6.250 -13.090  10.149  0.00  0.00    +0.001 A 
ATOM      9  C   UNL     1       6.111 -14.325   9.360  0.00  0.00    +0.030 A 
ATOM     10  C   UNL     1       6.479 -15.478   9.981  0.00  0.00    +0.042 A 
ATOM     11  C   UNL     1       6.965 -15.524  11.293  0.00  0.00    +0.022 A 
ATOM     12  C   UNL     1       7.133 -14.437  12.087  0.00  0.00    +0.027 A 
ATOM     13  C   UNL     1       6.789 -13.166  11.541  0.00  0.00    +0.043 A 
ATOM     14  N   UNL     1       6.870 -11.977  12.062  0.00  0.00    -0.376 N 
ATOM     15  C   UNL     1       6.455 -11.002  11.053  0.00  0.00    +0.124 C 
ATOM     16  C   UNL     1       5.263 -10.166  11.515  0.00  0.00    +0.138 C 
ATOM     17 CL   UNL     1       6.338 -16.968   9.102  0.00  0.00    -0.084 Cl
ATOM     18  H   UNL     1       3.521  -8.081   8.598  0.00  0.00    +0.150 HD
ATOM     19  H   UNL     1       7.156 -11.772  12.966  0.00  0.00    +0.160 HD
ENDROOT
BRANCH   1  20
ATOM     20  C   UNL     1       4.023  -6.092   9.147  0.00  0.00    +0.115 C 
BRANCH  20  21
ATOM     21  C   UNL     1       3.240  -5.661   7.905  0.00  0.00    +0.114 C 
BRANCH  21  28
ATOM     22  N   UNL     1       2.496  -2.510   4.238  0.00  0.00    -0.327 N 
ATOM     23  C   UNL     1       3.215  -1.722   5.250  0.00  0.00    +0.124 C 
ATOM     24  C   UNL     1       2.666  -2.086   6.635  0.00  0.00    +0.126 C 
ATOM     25  N   UNL     1       2.644  -3.550   6.762  0.00  0.00    -0.298 N 
ATOM     26  C   UNL     1       1.926  -4.338   5.750  0.00  0.00    +0.126 C 
ATOM     27  C   UNL     1       2.470  -3.974   4.368  0.00  0.00    +0.124 C 
ATOM     28  C   UNL     1       3.271  -4.159   7.787  0.00  0.00    +0.217 C 
ATOM     29  O   UNL     1       3.861  -3.498   8.616  0.00  0.00    -0.276 OA
BRANCH  22  33
ATOM     30  C   UNL     1       0.554  -0.627   1.067  0.00  0.00    +0.120 A 
ATOM     31  C   UNL     1       0.618  -2.012   1.117  0.00  0.00    +0.047 A 
ATOM     32  C   UNL     1       1.262  -2.637   2.167  0.00  0.00    +0.027 A 
ATOM     33  C   UNL     1       1.845  -1.878   3.174  0.00  0.00    +0.030 A 
ATOM     34  C   UNL     1       1.780  -0.492   3.123  0.00  0.00    +0.027 A 
ATOM     35  C   UNL     1       1.141   0.131   2.069  0.00  0.00    +0.047 A 
BRANCH  30  37
ATOM     36  C   UNL     1      -0.662  -0.855  -0.964  0.00  0.00    +0.277 C 
ATOM     37  O   UNL     1      -0.080  -0.013   0.033  0.00  0.00    -0.495 OA
ENDBRANCH  30  37
ENDBRANCH  22  33
ENDBRANCH  21  28
ENDBRANCH  20  21
ENDBRANCH   1  20
TORSDOF 5
