REMARK  Name = ZINC60090406
REMARK  8 active torsions:
REMARK  status: ('A' for Active; 'I' for Inactive)
REMARK    1  A    between atoms: C_1  and  C_2
REMARK    2  A    between atoms: C_2  and  C_3
REMARK    3  A    between atoms: C_3  and  N_4
REMARK    4  A    between atoms: N_4  and  C_5
REMARK    5  A    between atoms: N_4  and  C_18
REMARK    6  A    between atoms: C_5  and  C_6
REMARK    7  A    between atoms: N_8  and  C_9
REMARK    8  A    between atoms: C_14  and  C_15
REMARK                            x       y       z     vdW  Elec       q    Type
REMARK                         _______ _______ _______ _____ _____    ______ ____
ROOT
ATOM      1  C   UNL     1      -0.470  -2.634  -1.348  0.00  0.00    +0.019 C 
ENDROOT
BRANCH   1   2
ATOM      2  C   UNL     1      -1.003  -2.332  -2.725  0.00  0.00    +0.201 C 
ATOM      3  O   UNL     1      -0.303  -1.762  -3.535  0.00  0.00    -0.278 OA
ATOM      4  N   UNL     1      -2.258  -2.696  -3.057  0.00  0.00    -0.286 N 
ATOM      5  H   UNL     1      -2.843  -3.084  -2.387  0.00  0.00    +0.155 HD
BRANCH   4   6
ATOM      6  C   UNL     1      -2.714  -2.516  -4.360  0.00  0.00    +0.045 A 
ATOM      7  C   UNL     1      -1.842  -2.665  -5.431  0.00  0.00    +0.024 A 
ATOM      8  C   UNL     1      -2.296  -2.486  -6.722  0.00  0.00    +0.002 A 
ATOM      9  C   UNL     1      -3.620  -2.156  -6.960  0.00  0.00    +0.001 A 
ATOM     10  C   UNL     1      -4.500  -2.004  -5.910  0.00  0.00    +0.015 A 
ATOM     11  C   UNL     1      -4.056  -2.188  -4.598  0.00  0.00    +0.058 A 
BRANCH  11  12
ATOM     12  C   UNL     1      -4.994  -2.033  -3.470  0.00  0.00    +0.243 C 
ATOM     13  O   UNL     1      -4.584  -2.090  -2.327  0.00  0.00    -0.270 OA
ATOM     14  N   UNL     1      -6.305  -1.829  -3.706  0.00  0.00    -0.325 N 
ATOM     15  H   UNL     1      -6.632  -1.784  -4.618  0.00  0.00    +0.145 HD
ATOM     16  H   UNL     1      -6.921  -1.727  -2.964  0.00  0.00    +0.145 HD
ENDBRANCH  11  12
ENDBRANCH   4   6
ENDBRANCH   1   2
BRANCH   1  17
ATOM     17  N   UNL     1       0.884  -2.080  -1.215  0.00  0.00    +0.388 N 
ATOM     18  H   UNL     1       1.235  -2.268  -0.288  0.00  0.00    -0.081 HD
BRANCH  17  19
ATOM     19  C   UNL     1       1.768  -2.703  -2.209  0.00  0.00    -0.063 C 
ATOM     20  C   UNL     1       1.904  -4.201  -1.912  0.00  0.00    -0.010 C 
ATOM     21  C   UNL     1       2.624  -4.861  -3.086  0.00  0.00    +0.034 C 
ATOM     22  C   UNL     1       3.896  -4.122  -3.410  0.00  0.00    -0.044 A 
ATOM     23  C   UNL     1       4.850  -4.781  -4.175  0.00  0.00    +0.004 A 
ATOM     24  C   UNL     1       6.033  -4.156  -4.510  0.00  0.00    +0.000 A 
ATOM     25  C   UNL     1       6.272  -2.863  -4.083  0.00  0.00    +0.000 A 
ATOM     26  C   UNL     1       5.327  -2.208  -3.322  0.00  0.00    +0.004 A 
ATOM     27  C   UNL     1       4.136  -2.837  -2.980  0.00  0.00    -0.046 A 
ATOM     28  C   UNL     1       3.155  -2.068  -2.134  0.00  0.00    +0.020 C 
ENDBRANCH  17  19
BRANCH  17  29
ATOM     29  C   UNL     1       0.843  -0.628  -1.437  0.00  0.00    -0.078 C 
BRANCH  29  31
ATOM     30  C   UNL     1       0.084   1.555  -0.488  0.00  0.00    +0.002 C 
ATOM     31  C   UNL     1       0.021   0.034  -0.330  0.00  0.00    -0.022 C 
ENDBRANCH  29  31
ENDBRANCH  17  29
ENDBRANCH   1  17
TORSDOF 7
