REMARK  Name = ZINC04180178
REMARK  13 active torsions:
REMARK  status: ('A' for Active; 'I' for Inactive)
REMARK    1  A    between atoms: C_1  and  C_2
REMARK    2  A    between atoms: C_2  and  O_3
REMARK    3  A    between atoms: O_3  and  C_4
REMARK    4  A    between atoms: C_7  and  C_10
REMARK    5  A    between atoms: C_17  and  N_32
REMARK    6  A    between atoms: C_18  and  C_30
REMARK    7  A    between atoms: C_19  and  C_21
REMARK    8  A    between atoms: C_24  and  O_27
REMARK    9  A    between atoms: O_27  and  C_28
REMARK   10  A    between atoms: C_28  and  C_29
REMARK   11  A    between atoms: C_33  and  C_34
REMARK   12  A    between atoms: C_33  and  C_35
REMARK   13  A    between atoms: C_33  and  N_68
REMARK                            x       y       z     vdW  Elec       q    Type
REMARK                         _______ _______ _______ _____ _____    ______ ____
ROOT
ATOM      1  C   UNL     1       0.159  -1.468  -2.010  0.00  0.00    +0.013 C 
ATOM      2  C   UNL     1       0.540  -0.343  -1.378  0.00  0.00    -0.021 C 
ATOM      3  C   UNL     1      -0.248   0.204  -0.206  0.00  0.00    -0.038 C 
ATOM      4  C   UNL     1       1.046   2.244  -0.293  0.00  0.00    -0.042 C 
ATOM      5  C   UNL     1       1.976   1.618  -1.301  0.00  0.00    -0.031 C 
ATOM      6  C   UNL     1       1.742   0.404  -1.802  0.00  0.00    +0.130 C 
ATOM      7  O   UNL     1       2.581  -0.174  -2.696  0.00  0.00    -0.441 OA
ATOM      8  C   UNL     1       3.422   0.587  -3.417  0.00  0.00    +0.199 C 
ATOM      9  C   UNL     1       3.756   1.836  -3.005  0.00  0.00    +0.098 C 
ATOM     10  C   UNL     1       3.194   2.399  -1.731  0.00  0.00    +0.092 C 
ATOM     11  N   UNL     1      -0.307   1.674  -0.393  0.00  0.00    +0.387 N 
ATOM     12  H   UNL     1      -0.687   1.877  -1.325  0.00  0.00    -0.081 HD
ENDROOT
BRANCH   1  16
ATOM     13  C   UNL     1      -3.011  -3.813  -0.441  0.00  0.00    +0.121 A 
ATOM     14  C   UNL     1      -2.813  -3.747  -1.814  0.00  0.00    +0.046 A 
ATOM     15  C   UNL     1      -1.785  -2.987  -2.328  0.00  0.00    +0.011 A 
ATOM     16  C   UNL     1      -0.941  -2.282  -1.465  0.00  0.00    -0.025 A 
ATOM     17  C   UNL     1      -1.141  -2.357  -0.083  0.00  0.00    +0.011 A 
ATOM     18  C   UNL     1      -2.175  -3.115   0.421  0.00  0.00    +0.046 A 
BRANCH  13  19
ATOM     19  O   UNL     1      -4.026  -4.564   0.061  0.00  0.00    -0.492 OA
BRANCH  19  21
ATOM     20  C   UNL     1      -5.360  -5.479   1.857  0.00  0.00    +0.048 C 
ATOM     21  C   UNL     1      -4.174  -4.588   1.483  0.00  0.00    +0.225 C 
ENDBRANCH  19  21
ENDBRANCH  13  19
ENDBRANCH   1  16
BRANCH  10  22
ATOM     22  C   UNL     1       4.241   2.325  -0.649  0.00  0.00    -0.035 A 
ATOM     23  C   UNL     1       4.757   1.099  -0.272  0.00  0.00    +0.008 A 
ATOM     24  C   UNL     1       5.720   1.028   0.716  0.00  0.00    +0.046 A 
ATOM     25  C   UNL     1       6.161   2.188   1.337  0.00  0.00    +0.121 A 
ATOM     26  C   UNL     1       5.638   3.416   0.960  0.00  0.00    +0.046 A 
ATOM     27  C   UNL     1       4.679   3.482  -0.032  0.00  0.00    +0.008 A 
BRANCH  25  28
ATOM     28  O   UNL     1       7.104   2.121   2.313  0.00  0.00    -0.492 OA
BRANCH  28  29
ATOM     29  C   UNL     1       7.599   0.823   2.649  0.00  0.00    +0.225 C 
ATOM     30  C   UNL     1       8.644   0.947   3.759  0.00  0.00    +0.048 C 
ENDBRANCH  28  29
ENDBRANCH  25  28
ENDBRANCH  10  22
BRANCH   8  31
ATOM     31  N   UNL     1       3.950   0.094  -4.584  0.00  0.00    -0.328 N 
ATOM     32  H   UNL     1       3.716  -0.798  -4.884  0.00  0.00    +0.145 HD
ATOM     33  H   UNL     1       4.558   0.638  -5.109  0.00  0.00    +0.145 HD
ENDBRANCH   8  31
BRANCH  11  34
ATOM     34  C   UNL     1      -1.188   2.279   0.628  0.00  0.00    -0.074 C 
ATOM     35  C   UNL     1      -0.733   1.876   2.033  0.00  0.00    -0.013 C 
ATOM     36  C   UNL     1      -1.137   3.802   0.493  0.00  0.00    -0.013 C 
ENDBRANCH  11  34
BRANCH   9  37
ATOM     37  C   UNL     1       4.653   2.625  -3.794  0.00  0.00    +0.101 C 
ATOM     38  N   UNL     1       5.364   3.252  -4.420  0.00  0.00    -0.191 NA
ENDBRANCH   9  37
TORSDOF 9
