REMARK  Name = ZINC31168767
REMARK  16 active torsions:
REMARK  status: ('A' for Active; 'I' for Inactive)
REMARK    1  A    between atoms: C_1  and  C_2
REMARK    2  A    between atoms: C_2  and  C_4
REMARK    3  A    between atoms: C_2  and  O_20
REMARK    4  A    between atoms: C_4  and  C_5
REMARK    5  A    between atoms: C_5  and  C_7
REMARK    6  A    between atoms: C_5  and  O_8
REMARK    7  A    between atoms: O_8  and  C_9
REMARK    8  A    between atoms: C_9  and  C_11
REMARK    9  A    between atoms: C_12  and  C_13
REMARK   10  A    between atoms: C_16  and  O_19
REMARK   11  A    between atoms: O_20  and  C_21
REMARK   12  A    between atoms: C_23  and  O_36
REMARK   13  A    between atoms: C_25  and  O_35
REMARK   14  A    between atoms: C_27  and  O_34
REMARK   15  A    between atoms: C_29  and  C_32
REMARK   16  A    between atoms: C_32  and  O_33
REMARK                            x       y       z     vdW  Elec       q    Type
REMARK                         _______ _______ _______ _____ _____    ______ ____
ROOT
ATOM      1  C   UNL     1      -0.738   2.051  -0.728  0.00  0.00    +0.038 C 
ATOM      2  C   UNL     1      -0.519   0.599  -0.300  0.00  0.00    +0.122 C 
ENDROOT
BRANCH   2   3
ATOM      3  C   UNL     1       0.366  -0.108  -1.328  0.00  0.00    +0.075 C 
BRANCH   3   4
ATOM      4  C   UNL     1       0.439  -1.601  -0.997  0.00  0.00    +0.176 C 
ATOM      5  C   UNL     1       1.180  -2.335  -2.116  0.00  0.00    +0.052 C 
BRANCH   4   6
ATOM      6  O   UNL     1       1.138  -1.782   0.236  0.00  0.00    -0.458 OA
BRANCH   6   7
ATOM      7  C   UNL     1       0.886  -2.916   0.922  0.00  0.00    +0.332 C 
ATOM      8  O   UNL     1       0.037  -3.691   0.525  0.00  0.00    -0.246 OA
BRANCH   7   9
ATOM      9  C   UNL     1       1.611  -3.204   2.106  0.00  0.00    +0.092 C 
ATOM     10  C   UNL     1       1.393  -4.362   2.766  0.00  0.00    +0.015 C 
BRANCH  10  11
ATOM     11  C   UNL     1       2.145  -4.661   3.994  0.00  0.00    -0.025 A 
ATOM     12  C   UNL     1       3.082  -3.744   4.484  0.00  0.00    +0.011 A 
ATOM     13  C   UNL     1       3.783  -4.029   5.634  0.00  0.00    +0.046 A 
ATOM     14  C   UNL     1       3.562  -5.224   6.308  0.00  0.00    +0.117 A 
ATOM     15  C   UNL     1       2.632  -6.138   5.825  0.00  0.00    +0.046 A 
ATOM     16  C   UNL     1       1.921  -5.861   4.679  0.00  0.00    +0.011 A 
BRANCH  14  17
ATOM     17  O   UNL     1       4.256  -5.500   7.441  0.00  0.00    -0.507 OA
ATOM     18  H   UNL     1       3.826  -5.192   8.251  0.00  0.00    +0.292 HD
ENDBRANCH  14  17
ENDBRANCH  10  11
ENDBRANCH   7   9
ENDBRANCH   6   7
ENDBRANCH   4   6
ENDBRANCH   3   4
ENDBRANCH   2   3
BRANCH   2  19
ATOM     19  O   UNL     1       0.118   0.570   0.979  0.00  0.00    -0.346 OA
BRANCH  19  20
ATOM     20  C   UNL     1      -0.791   0.544   2.081  0.00  0.00    +0.282 C 
ATOM     21  C   UNL     1      -0.007   0.380   3.386  0.00  0.00    +0.201 C 
ATOM     22  C   UNL     1      -0.983   0.413   4.566  0.00  0.00    +0.179 C 
ATOM     23  C   UNL     1      -1.773   1.724   4.524  0.00  0.00    +0.177 C 
ATOM     24  C   UNL     1      -2.489   1.837   3.175  0.00  0.00    +0.178 C 
ATOM     25  O   UNL     1      -1.528   1.767   2.120  0.00  0.00    -0.341 OA
BRANCH  23  26
ATOM     26  O   UNL     1      -2.736   1.736   5.580  0.00  0.00    -0.386 OA
ATOM     27  H   UNL     1      -2.352   1.663   6.464  0.00  0.00    +0.210 HD
ENDBRANCH  23  26
BRANCH  22  28
ATOM     28  O   UNL     1      -0.253   0.333   5.792  0.00  0.00    -0.386 OA
ATOM     29  H   UNL     1       0.277  -0.472   5.882  0.00  0.00    +0.210 HD
ENDBRANCH  22  28
BRANCH  21  30
ATOM     30  O   UNL     1       0.686  -0.870   3.373  0.00  0.00    -0.384 OA
ATOM     31  H   UNL     1       1.388  -0.924   2.709  0.00  0.00    +0.210 HD
ENDBRANCH  21  30
BRANCH  24  32
ATOM     32  C   UNL     1      -3.233   3.171   3.102  0.00  0.00    +0.190 C 
BRANCH  32  33
ATOM     33  O   UNL     1      -3.995   3.226   1.894  0.00  0.00    -0.392 OA
ATOM     34  H   UNL     1      -4.493   4.047   1.780  0.00  0.00    +0.210 HD
ENDBRANCH  32  33
ENDBRANCH  24  32
ENDBRANCH  19  20
ENDBRANCH   2  19
TORSDOF 14
