REMARK  Name = ZINC66761763
REMARK  12 active torsions:
REMARK  status: ('A' for Active; 'I' for Inactive)
REMARK    1  A    between atoms: C_1  and  C_2
REMARK    2  A    between atoms: C_2  and  C_3
REMARK    3  A    between atoms: C_2  and  C_4
REMARK    4  A    between atoms: C_2  and  O_5
REMARK    5  A    between atoms: O_5  and  C_6
REMARK    6  A    between atoms: C_12  and  N_15
REMARK    7  A    between atoms: C_16  and  C_18
REMARK    8  A    between atoms: C_18  and  C_20
REMARK    9  A    between atoms: C_18  and  N_24
REMARK   10  A    between atoms: C_20  and  C_21
REMARK   11  A    between atoms: C_21  and  S_22
REMARK   12  A    between atoms: S_22  and  C_23
REMARK                            x       y       z     vdW  Elec       q    Type
REMARK                         _______ _______ _______ _____ _____    ______ ____
ROOT
ATOM      1  N   UNL     1       8.008   0.690  -2.961  0.00  0.00    -0.283 N 
ATOM      2  C   UNL     1       8.830   0.705  -1.893  0.00  0.00    +0.238 C 
ATOM      3  O   UNL     1       8.377   0.564  -0.776  0.00  0.00    -0.273 OA
ATOM      4  H   UNL     1       8.361   0.870  -3.846  0.00  0.00    +0.155 HD
ENDROOT
BRANCH   1  11
ATOM      5  C   UNL     1       2.036  -1.235  -3.345  0.00  0.00    +0.406 C 
ATOM      6  O   UNL     1       2.654  -1.597  -4.326  0.00  0.00    -0.226 OA
ATOM      7  N   UNL     1       2.635  -0.459  -2.420  0.00  0.00    -0.236 N 
ATOM      8  C   UNL     1       3.993  -0.157  -2.536  0.00  0.00    +0.127 A 
ATOM      9  C   UNL     1       4.628   0.556  -1.525  0.00  0.00    +0.046 A 
ATOM     10  C   UNL     1       5.973   0.849  -1.650  0.00  0.00    +0.028 A 
ATOM     11  C   UNL     1       6.645   0.415  -2.792  0.00  0.00    +0.052 A 
ATOM     12  C   UNL     1       5.946  -0.291  -3.759  0.00  0.00    +0.136 A 
ATOM     13  N   UNL     1       4.663  -0.558  -3.604  0.00  0.00    -0.238 NA
ATOM     14  H   UNL     1       2.123  -0.109  -1.675  0.00  0.00    +0.160 HD
BRANCH   5  15
ATOM     15  O   UNL     1       0.753  -1.610  -3.180  0.00  0.00    -0.444 OA
BRANCH  15  17
ATOM     16  C   UNL     1       0.979  -3.734  -4.309  0.00  0.00    +0.055 C 
ATOM     17  C   UNL     1       0.182  -2.433  -4.198  0.00  0.00    +0.107 C 
ATOM     18  C   UNL     1       0.225  -1.693  -5.537  0.00  0.00    +0.055 C 
ATOM     19  C   UNL     1      -1.270  -2.754  -3.840  0.00  0.00    +0.055 C 
ENDBRANCH  15  17
ENDBRANCH   5  15
ENDBRANCH   1  11
BRANCH   2  20
ATOM     20  C   UNL     1      10.312   0.896  -2.085  0.00  0.00    +0.161 C 
BRANCH  20  21
ATOM     21  N   UNL     1      10.914   1.346  -0.828  0.00  0.00    -0.288 N 
ATOM     22  C   UNL     1      10.825   0.577   0.276  0.00  0.00    +0.298 C 
ATOM     23  O   UNL     1      10.246  -0.491   0.227  0.00  0.00    -0.253 OA
ATOM     24  N   UNL     1      11.379   0.991   1.433  0.00  0.00    -0.313 N 
ATOM     25  H   UNL     1      11.376   2.198  -0.789  0.00  0.00    +0.151 HD
ATOM     26  H   UNL     1      11.841   1.843   1.471  0.00  0.00    +0.146 HD
ATOM     27  H   UNL     1      11.315   0.438   2.226  0.00  0.00    +0.146 HD
ENDBRANCH  20  21
BRANCH  20  28
ATOM     28  C   UNL     1      10.947  -0.431  -2.507  0.00  0.00    +0.042 C 
BRANCH  28  29
ATOM     29  C   UNL     1      12.428  -0.210  -2.824  0.00  0.00    +0.071 C 
BRANCH  29  30
ATOM     30  S   UNL     1      13.180  -1.783  -3.324  0.00  0.00    -0.164 S 
ATOM     31  C   UNL     1      14.911  -1.354  -3.659  0.00  0.00    +0.084 C 
ENDBRANCH  29  30
ENDBRANCH  28  29
ENDBRANCH  20  28
ENDBRANCH   2  20
TORSDOF 8
