REMARK  Name = ZINC44594332
REMARK  8 active torsions:
REMARK  status: ('A' for Active; 'I' for Inactive)
REMARK    1  A    between atoms: C_1  and  C_2
REMARK    2  A    between atoms: C_7  and  N_12
REMARK    3  A    between atoms: C_9  and  C_11
REMARK    4  A    between atoms: N_12  and  S_13
REMARK    5  A    between atoms: S_13  and  C_16
REMARK    6  A    between atoms: C_19  and  C_22
REMARK    7  A    between atoms: C_22  and  C_23
REMARK    8  A    between atoms: C_23  and  N_24
REMARK                            x       y       z     vdW  Elec       q    Type
REMARK                         _______ _______ _______ _____ _____    ______ ____
ROOT
ATOM      1  S   UNL     1       0.817   0.440   5.046  0.00  0.00    +0.059 S 
ATOM      2  O   UNL     1       1.535  -0.308   6.017  0.00  0.00    -0.153 OA
ATOM      3  O   UNL     1       1.230   1.731   4.620  0.00  0.00    -0.153 OA
ENDROOT
BRANCH   1   4
ATOM      4  C   UNL     1      -0.826   0.615   5.659  0.00  0.00    +0.105 A 
ATOM      5  C   UNL     1      -1.619   1.660   5.224  0.00  0.00    +0.029 A 
ATOM      6  C   UNL     1      -2.908   1.797   5.705  0.00  0.00    +0.005 A 
ATOM      7  C   UNL     1      -3.404   0.888   6.621  0.00  0.00    -0.049 A 
ATOM      8  C   UNL     1      -2.611  -0.158   7.055  0.00  0.00    +0.005 A 
ATOM      9  C   UNL     1      -1.324  -0.297   6.571  0.00  0.00    +0.029 A 
BRANCH   7  10
ATOM     10  C   UNL     1      -4.808   1.038   7.146  0.00  0.00    +0.015 C 
BRANCH  10  11
ATOM     11  C   UNL     1      -5.775   0.269   6.244  0.00  0.00    -0.082 C 
BRANCH  11  12
ATOM     12  N   UNL     1      -7.144   0.414   6.755  0.00  0.00    +0.378 N 
ATOM     13  H   UNL     1      -7.194   0.046   7.693  0.00  0.00    -0.090 HD
ATOM     14  H   UNL     1      -7.397   1.391   6.764  0.00  0.00    -0.090 HD
ATOM     15  H   UNL     1      -7.782  -0.093   6.160  0.00  0.00    -0.090 HD
ENDBRANCH  11  12
ENDBRANCH  10  11
ENDBRANCH   7  10
ENDBRANCH   1   4
BRANCH   1  16
ATOM     16  N   UNL     1       0.735  -0.503   3.687  0.00  0.00    -0.187 NA
ATOM     17  H   UNL     1       1.155  -1.377   3.677  0.00  0.00    +0.148 HD
BRANCH  16  23
ATOM     18  C   UNL     1      -0.019   1.526   0.010  0.00  0.00    +0.008 C 
ATOM     19  C   UNL     1       0.002  -0.004   0.002  0.00  0.00    -0.010 C 
ATOM     20  C   UNL     1      -1.433  -0.534   0.013  0.00  0.00    +0.003 C 
ATOM     21  C   UNL     1      -2.149  -0.040   1.272  0.00  0.00    +0.002 C 
ATOM     22  C   UNL     1      -1.409  -0.547   2.511  0.00  0.00    +0.020 C 
ATOM     23  C   UNL     1       0.026  -0.018   2.500  0.00  0.00    +0.080 C 
ATOM     24  C   UNL     1       0.742  -0.511   1.242  0.00  0.00    +0.007 C 
ATOM     25  C   UNL     1       2.178   0.019   1.231  0.00  0.00    +0.009 C 
ENDBRANCH  16  23
ENDBRANCH   1  16
TORSDOF 6
