REMARK  Name = ZINC67642731
REMARK  8 active torsions:
REMARK  status: ('A' for Active; 'I' for Inactive)
REMARK    1  A    between atoms: C_1  and  C_2
REMARK    2  A    between atoms: C_2  and  C_3
REMARK    3  A    between atoms: C_2  and  C_4
REMARK    4  A    between atoms: C_4  and  C_5
REMARK    5  A    between atoms: C_5  and  C_7
REMARK    6  A    between atoms: C_5  and  N_17
REMARK    7  A    between atoms: C_18  and  C_20
REMARK    8  A    between atoms: N_22  and  C_29
REMARK                            x       y       z     vdW  Elec       q    Type
REMARK                         _______ _______ _______ _____ _____    ______ ____
ROOT
ATOM      1  C   UNL     1      -1.340  -1.938  -0.135  0.00  0.00    +0.142 C 
ENDROOT
BRANCH   1   2
ATOM      2  C   UNL     1      -2.675  -2.484  -0.572  0.00  0.00    +0.154 A 
ATOM      3  N   UNL     1      -3.694  -2.756   0.201  0.00  0.00    -0.132 NA
ATOM      4  N   UNL     1      -4.674  -3.197  -0.510  0.00  0.00    -0.134 NA
ATOM      5  C   UNL     1      -4.325  -3.222  -1.762  0.00  0.00    +0.132 A 
ATOM      6  N   UNL     1      -3.046  -2.780  -1.835  0.00  0.00    -0.315 N 
ATOM      7  C   UNL     1      -2.246  -2.676  -3.056  0.00  0.00    +0.106 C 
ATOM      8  C   UNL     1      -3.182  -2.460  -4.249  0.00  0.00    -0.061 C 
ATOM      9  N   UNL     1      -3.576  -3.752  -4.816  0.00  0.00    +0.380 N 
ATOM     10  C   UNL     1      -4.320  -4.552  -3.842  0.00  0.00    -0.075 C 
ATOM     11  C   UNL     1      -5.157  -3.642  -2.947  0.00  0.00    +0.057 C 
ATOM     12  H   UNL     1      -4.156  -3.594  -5.627  0.00  0.00    -0.086 HD
ATOM     13  H   UNL     1      -2.749  -4.257  -5.096  0.00  0.00    -0.086 HD
ENDBRANCH   1   2
BRANCH   1  14
ATOM     14  N   UNL     1      -0.807  -2.765   0.951  0.00  0.00    -0.301 N 
ATOM     15  C   UNL     1       0.521  -2.804   1.177  0.00  0.00    +0.247 C 
ATOM     16  O   UNL     1       1.269  -2.085   0.541  0.00  0.00    -0.270 OA
ATOM     17  H   UNL     1      -1.409  -3.283   1.507  0.00  0.00    +0.150 HD
BRANCH  15  18
ATOM     18  C   UNL     1       1.067  -3.717   2.191  0.00  0.00    +0.062 A 
ATOM     19  C   UNL     1       0.362  -4.582   2.974  0.00  0.00    +0.099 A 
ATOM     20  N   UNL     1       1.208  -5.257   3.789  0.00  0.00    -0.349 N 
ATOM     21  C   UNL     1       2.510  -4.856   3.569  0.00  0.00    +0.050 A 
ATOM     22  C   UNL     1       2.485  -3.882   2.558  0.00  0.00    +0.012 A 
ATOM     23  C   UNL     1       3.672  -3.297   2.123  0.00  0.00    +0.011 A 
ATOM     24  C   UNL     1       4.869  -3.683   2.686  0.00  0.00    +0.001 A 
ATOM     25  C   UNL     1       4.895  -4.648   3.681  0.00  0.00    +0.002 A 
ATOM     26  C   UNL     1       3.728  -5.228   4.128  0.00  0.00    +0.026 A 
ATOM     27  C   UNL     1       0.799  -6.269   4.766  0.00  0.00    +0.149 C 
ENDBRANCH  15  18
ENDBRANCH   1  14
BRANCH   1  28
ATOM     28  C   UNL     1      -1.514  -0.500   0.357  0.00  0.00    +0.033 C 
BRANCH  28  30
ATOM     29  C   UNL     1      -2.257   1.795  -0.294  0.00  0.00    +0.007 C 
ATOM     30  C   UNL     1      -1.938   0.391  -0.812  0.00  0.00    -0.015 C 
ATOM     31  C   UNL     1      -0.799   0.471  -1.831  0.00  0.00    +0.007 C 
ENDBRANCH  28  30
ENDBRANCH   1  28
TORSDOF 5
