REMARK  Name = ZINC37064703
REMARK  3 active torsions:
REMARK  status: ('A' for Active; 'I' for Inactive)
REMARK    1  A    between atoms: C_1  and  C_2
REMARK    2  A    between atoms: C_5  and  N_9
REMARK    3  A    between atoms: C_6  and  N_8
REMARK                            x       y       z     vdW  Elec       q    Type
REMARK                         _______ _______ _______ _____ _____    ______ ____
ROOT
ATOM      1  C   UNL     1      -0.018   1.503   0.010  0.00  0.00    +0.044 C 
ATOM      2  C   UNL     1       0.002  -0.004   0.002  0.00  0.00    -0.049 A 
ATOM      3  C   UNL     1       0.006  -0.687  -1.200  0.00  0.00    +0.005 A 
ATOM      4  C   UNL     1       0.024  -2.069  -1.215  0.00  0.00    +0.025 A 
ATOM      5  C   UNL     1       0.040  -2.775  -0.022  0.00  0.00    +0.057 A 
ATOM      6  C   UNL     1       0.036  -2.087   1.191  0.00  0.00    +0.047 A 
ATOM      7  C   UNL     1       0.023  -0.700   1.196  0.00  0.00    +0.028 A 
ENDROOT
BRANCH   5   8
ATOM      8  N   UNL     1       0.058  -4.176  -0.035  0.00  0.00    -0.270 N 
ATOM      9  C   UNL     1      -1.220  -4.876  -0.040  0.00  0.00    +0.114 C 
ATOM     10  C   UNL     1      -1.040  -6.316  -0.522  0.00  0.00    +0.020 C 
ATOM     11  C   UNL     1       0.096  -6.963   0.279  0.00  0.00    +0.011 C 
ATOM     12  C   UNL     1       1.410  -6.277  -0.104  0.00  0.00    +0.096 C 
ATOM     13  C   UNL     1       1.244  -4.786  -0.046  0.00  0.00    +0.220 C 
ATOM     14  O   UNL     1       2.243  -4.099  -0.003  0.00  0.00    -0.275 OA
ENDBRANCH   5   8
BRANCH   6  15
ATOM     15  N   UNL     1       0.051  -2.793   2.398  0.00  0.00    -0.357 N 
ATOM     16  H   UNL     1       0.064  -3.763   2.393  0.00  0.00    +0.142 HD
ATOM     17  H   UNL     1       0.049  -2.312   3.241  0.00  0.00    +0.142 HD
ENDBRANCH   6  15
TORSDOF 2
