REMARK  Name = ZINC00052568
REMARK  5 active torsions:
REMARK  status: ('A' for Active; 'I' for Inactive)
REMARK    1  A    between atoms: C_1  and  C_2
REMARK    2  A    between atoms: C_2  and  O_15
REMARK    3  A    between atoms: N_12  and  C_13
REMARK    4  A    between atoms: C_13  and  C_14
REMARK    5  A    between atoms: C_14  and  N_36
REMARK                            x       y       z     vdW  Elec       q    Type
REMARK                         _______ _______ _______ _____ _____    ______ ____
ROOT
ATOM      1  C   UNL     1       1.251   4.070   1.270  0.00  0.00    +0.068 C 
ATOM      2  C   UNL     1       0.717   3.380   0.013  0.00  0.00    +0.175 C 
ATOM      3  C   UNL     1      -0.819   3.342   0.028  0.00  0.00    +0.160 C 
ATOM      4  C   UNL     1      -1.374   4.026  -1.218  0.00  0.00    +0.053 C 
ATOM      5  C   UNL     1      -2.903   3.964  -1.199  0.00  0.00    +0.004 C 
ATOM      6  C   UNL     1      -3.425   4.661   0.060  0.00  0.00    +0.000 C 
ATOM      7  C   UNL     1      -2.879   3.951   1.300  0.00  0.00    +0.004 C 
ATOM      8  C   UNL     1      -1.350   4.012   1.291  0.00  0.00    +0.053 C 
ATOM      9  O   UNL     1      -1.146   1.927   0.018  0.00  0.00    -0.439 OA
ATOM     10  C   UNL     1      -0.014   1.211   0.009  0.00  0.00    +0.406 C 
ATOM     11  O   UNL     1       0.002  -0.004   0.002  0.00  0.00    -0.226 OA
ATOM     12  N   UNL     1       1.099   1.958   0.002  0.00  0.00    -0.238 N 
ENDROOT
BRANCH   2  13
ATOM     13  O   UNL     1       1.193   4.037  -1.163  0.00  0.00    -0.368 OA
ATOM     14  H   UNL     1       2.156   4.030  -1.256  0.00  0.00    +0.212 HD
ENDBRANCH   2  13
BRANCH  12  15
ATOM     15  C   UNL     1       2.470   1.444  -0.014  0.00  0.00    +0.094 C 
BRANCH  15  16
ATOM     16  C   UNL     1       2.934   1.272  -1.462  0.00  0.00    -0.067 C 
BRANCH  16  19
ATOM     17  H   UNL     1       4.378  -0.105  -0.958  0.00  0.00    -0.090 HD
ATOM     18  H   UNL     1       4.638   0.634  -2.425  0.00  0.00    -0.090 HD
ATOM     19  N   UNL     1       4.321   0.775  -1.467  0.00  0.00    +0.379 N 
ATOM     20  H   UNL     1       4.928   1.466  -1.011  0.00  0.00    -0.090 HD
ENDBRANCH  16  19
ENDBRANCH  15  16
ENDBRANCH  12  15
TORSDOF 4
