REMARK  Name = ZINC36038432
REMARK  12 active torsions:
REMARK  status: ('A' for Active; 'I' for Inactive)
REMARK    1  A    between atoms: C_1  and  C_2
REMARK    2  A    between atoms: C_2  and  C_3
REMARK    3  A    between atoms: C_3  and  C_5
REMARK    4  A    between atoms: C_3  and  C_6
REMARK    5  A    between atoms: C_6  and  N_7
REMARK    6  A    between atoms: C_10  and  C_32
REMARK    7  A    between atoms: N_16  and  S_19
REMARK    8  A    between atoms: S_19  and  C_22
REMARK    9  A    between atoms: C_26  and  C_28
REMARK   10  A    between atoms: C_32  and  C_33
REMARK   11  A    between atoms: C_33  and  C_34
REMARK   12  A    between atoms: C_33  and  C_35
REMARK                            x       y       z     vdW  Elec       q    Type
REMARK                         _______ _______ _______ _____ _____    ______ ____
ROOT
ATOM      1  N   UNL     1      -2.933  -2.747  -0.367  0.00  0.00    -0.313 N 
ATOM      2  C   UNL     1      -3.563  -2.899   0.817  0.00  0.00    +0.200 C 
ATOM      3  O   UNL     1      -3.089  -2.659   1.908  0.00  0.00    -0.277 OA
ATOM      4  C   UNL     1      -4.960  -3.419   0.555  0.00  0.00    +0.019 C 
ATOM      5  N   UNL     1      -5.197  -3.156  -0.885  0.00  0.00    +0.401 N 
ATOM      6  C   UNL     1      -3.834  -3.140  -1.453  0.00  0.00    +0.006 C 
ATOM      7  C   UNL     1      -3.475  -4.535  -1.960  0.00  0.00    +0.023 C 
ATOM      8  C   UNL     1      -2.047  -4.522  -2.515  0.00  0.00    +0.109 C 
ATOM      9  N   UNL     1      -1.941  -3.459  -3.523  0.00  0.00    -0.177 NA
ATOM     10  C   UNL     1      -2.336  -2.093  -3.154  0.00  0.00    +0.109 C 
ATOM     11  C   UNL     1      -3.761  -2.126  -2.594  0.00  0.00    +0.023 C 
ATOM     12  H   UNL     1      -5.748  -3.894  -1.296  0.00  0.00    -0.082 HD
ATOM     13  H   UNL     1      -5.644  -2.261  -1.015  0.00  0.00    -0.082 HD
ENDROOT
BRANCH   9  14
ATOM     14  S   UNL     1      -1.388  -3.795  -5.048  0.00  0.00    +0.061 S 
ATOM     15  O   UNL     1      -0.880  -2.576  -5.573  0.00  0.00    -0.153 OA
ATOM     16  O   UNL     1      -0.595  -4.969  -4.943  0.00  0.00    -0.153 OA
BRANCH  14  17
ATOM     17  C   UNL     1      -2.789  -4.220  -6.029  0.00  0.00    +0.106 A 
ATOM     18  C   UNL     1      -3.205  -5.536  -6.106  0.00  0.00    +0.028 A 
ATOM     19  C   UNL     1      -4.303  -5.870  -6.875  0.00  0.00    +0.002 A 
ATOM     20  C   UNL     1      -4.987  -4.887  -7.567  0.00  0.00    +0.012 A 
ATOM     21  C   UNL     1      -4.572  -3.571  -7.489  0.00  0.00    +0.057 A 
ATOM     22  C   UNL     1      -3.475  -3.237  -6.716  0.00  0.00    +0.041 A 
BRANCH  21  23
ATOM     23  C   UNL     1      -5.317  -2.500  -8.243  0.00  0.00    +0.417 C 
ATOM     24  F   UNL     1      -6.381  -3.078  -8.944  0.00  0.00    -0.166 F 
ATOM     25  F   UNL     1      -5.812  -1.553  -7.341  0.00  0.00    -0.166 F 
ATOM     26  F   UNL     1      -4.449  -1.876  -9.145  0.00  0.00    -0.166 F 
ENDBRANCH  21  23
ENDBRANCH  14  17
ENDBRANCH   9  14
BRANCH   1  27
ATOM     27  C   UNL     1      -1.563  -2.258  -0.539  0.00  0.00    +0.109 C 
BRANCH  27  28
ATOM     28  C   UNL     1      -1.575  -0.731  -0.638  0.00  0.00    +0.003 C 
ATOM     29  C   UNL     1      -2.045  -0.138   0.692  0.00  0.00    +0.009 C 
BRANCH  28  31
ATOM     30  C   UNL     1      -0.198   1.284  -1.173  0.00  0.00    +0.004 C 
ATOM     31  C   UNL     1      -0.164  -0.229  -0.951  0.00  0.00    +0.001 C 
ENDBRANCH  28  31
ENDBRANCH  27  28
ENDBRANCH   1  27
BRANCH   4  32
ATOM     32  C   UNL     1      -5.978  -2.664   1.412  0.00  0.00    -0.004 C 
BRANCH  32  33
ATOM     33  C   UNL     1      -5.756  -3.005   2.887  0.00  0.00    -0.018 C 
ATOM     34  C   UNL     1      -6.683  -2.149   3.753  0.00  0.00    +0.007 C 
ATOM     35  C   UNL     1      -6.062  -4.485   3.120  0.00  0.00    +0.007 C 
ENDBRANCH  32  33
ENDBRANCH   4  32
TORSDOF 8
