REMARK  Name = ZINC63425425
REMARK  12 active torsions:
REMARK  status: ('A' for Active; 'I' for Inactive)
REMARK    1  A    between atoms: C_1  and  C_2
REMARK    2  A    between atoms: C_2  and  C_3
REMARK    3  A    between atoms: C_2  and  C_4
REMARK    4  A    between atoms: C_2  and  O_5
REMARK    5  A    between atoms: O_5  and  C_6
REMARK    6  A    between atoms: N_8  and  C_9
REMARK    7  A    between atoms: C_9  and  C_11
REMARK    8  A    between atoms: C_9  and  C_21
REMARK    9  A    between atoms: C_11  and  C_12
REMARK   10  A    between atoms: C_25  and  S_28
REMARK   11  A    between atoms: S_28  and  C_29
REMARK   12  A    between atoms: C_29  and  C_30
REMARK                            x       y       z     vdW  Elec       q    Type
REMARK                         _______ _______ _______ _____ _____    ______ ____
ROOT
ATOM      1  C   UNL     1       4.748   0.388  -2.515  0.00  0.00    +0.133 C 
ENDROOT
BRANCH   1   2
ATOM      2  C   UNL     1       5.611  -0.265  -1.434  0.00  0.00    +0.280 C 
ATOM      3  N   UNL     1       4.989  -0.096  -0.114  0.00  0.00    -0.155 NA
ATOM      4  N   UNL     1       5.033  -1.161   0.516  0.00  0.00    -0.146 NA
ATOM      5  C   UNL     1       5.691  -2.197  -0.289  0.00  0.00    +0.319 C 
ATOM      6  O   UNL     1       5.679  -1.691  -1.642  0.00  0.00    -0.316 OA
BRANCH   5   7
ATOM      7  S   UNL     1       4.765  -3.754  -0.189  0.00  0.00    -0.095 S 
BRANCH   7   8
ATOM      8  C   UNL     1       3.115  -3.324  -0.807  0.00  0.00    +0.169 C 
BRANCH   8   9
ATOM      9  C   UNL     1       2.201  -4.515  -0.670  0.00  0.00    +0.220 C 
ATOM     10  O   UNL     1       2.621  -5.551  -0.201  0.00  0.00    -0.275 OA
ATOM     11  N   UNL     1       0.916  -4.428  -1.068  0.00  0.00    -0.329 N 
ATOM     12  H   UNL     1       0.580  -3.599  -1.443  0.00  0.00    +0.145 HD
ATOM     13  H   UNL     1       0.328  -5.194  -0.979  0.00  0.00    +0.145 HD
ENDBRANCH   8   9
ENDBRANCH   7   8
ENDBRANCH   5   7
ENDBRANCH   1   2
BRANCH   1  16
ATOM     14  C   UNL     1       2.881  -0.802  -3.534  0.00  0.00    +0.401 C 
ATOM     15  O   UNL     1       3.505  -0.832  -4.576  0.00  0.00    -0.226 OA
ATOM     16  N   UNL     1       3.393  -0.168  -2.460  0.00  0.00    -0.274 N 
ATOM     17  H   UNL     1       2.865  -0.080  -1.652  0.00  0.00    +0.152 HD
BRANCH  14  18
ATOM     18  O   UNL     1       1.679  -1.402  -3.451  0.00  0.00    -0.445 OA
BRANCH  18  20
ATOM     19  C   UNL     1       2.174  -3.174  -5.019  0.00  0.00    +0.055 C 
ATOM     20  C   UNL     1       1.200  -2.061  -4.626  0.00  0.00    +0.107 C 
ATOM     21  C   UNL     1       1.093  -1.050  -5.769  0.00  0.00    +0.055 C 
ATOM     22  C   UNL     1      -0.178  -2.664  -4.346  0.00  0.00    +0.055 C 
ENDBRANCH  18  20
ENDBRANCH  14  18
ENDBRANCH   1  16
BRANCH   1  23
ATOM     23  C   UNL     1       4.689   1.898  -2.277  0.00  0.00    +0.060 C 
BRANCH  23  24
ATOM     24  C   UNL     1       3.942   2.556  -3.409  0.00  0.00    -0.040 C 
ATOM     25  C   UNL     1       2.629   2.880  -3.437  0.00  0.00    -0.001 A 
ATOM     26  C   UNL     1       1.545   2.720  -2.461  0.00  0.00    +0.010 A 
ATOM     27  C   UNL     1       0.304   3.151  -2.783  0.00  0.00    +0.001 A 
ATOM     28  C   UNL     1       0.028   3.743  -4.023  0.00  0.00    +0.002 A 
ATOM     29  C   UNL     1       0.972   3.924  -4.971  0.00  0.00    +0.026 A 
ATOM     30  C   UNL     1       2.312   3.509  -4.739  0.00  0.00    +0.043 A 
ATOM     31  N   UNL     1       3.387   3.572  -5.487  0.00  0.00    -0.380 N 
ATOM     32  C   UNL     1       4.511   2.995  -4.740  0.00  0.00    +0.144 C 
ATOM     33  H   UNL     1       3.433   3.942  -6.382  0.00  0.00    +0.160 HD
ENDBRANCH  23  24
ENDBRANCH   1  23
TORSDOF 9
