REMARK  Name = ZINC07570378
REMARK  9 active torsions:
REMARK  status: ('A' for Active; 'I' for Inactive)
REMARK    1  A    between atoms: C_1  and  C_2
REMARK    2  A    between atoms: C_8  and  N_10
REMARK    3  A    between atoms: N_10  and  C_11
REMARK    4  A    between atoms: C_11  and  N_13
REMARK    5  A    between atoms: N_13  and  C_14
REMARK    6  A    between atoms: C_16  and  C_21
REMARK    7  A    between atoms: C_16  and  C_22
REMARK    8  A    between atoms: C_17  and  C_19
REMARK    9  A    between atoms: C_17  and  C_20
REMARK                            x       y       z     vdW  Elec       q    Type
REMARK                         _______ _______ _______ _____ _____    ______ ____
ROOT
ATOM      1  N   UNL     1       3.619   1.379   3.143  0.00  0.00    -0.324 N 
ATOM      2  H   UNL     1       3.832   2.195   2.663  0.00  0.00    +0.148 HD
ENDROOT
BRANCH   1   3
ATOM      3  C   UNL     1       4.676   0.652   3.858  0.00  0.00    +0.069 C 
ATOM      4  C   UNL     1       4.703   1.110   5.316  0.00  0.00    +0.009 C 
ATOM      5  C   UNL     1       5.808   0.384   6.080  0.00  0.00    -0.072 C 
ATOM      6  C   UNL     1       7.149   0.248   3.962  0.00  0.00    -0.072 C 
ATOM      7  C   UNL     1       6.028   0.974   3.223  0.00  0.00    +0.009 C 
ATOM      8  C   UNL     1       7.137  -1.237   3.581  0.00  0.00    -0.010 C 
ATOM      9  C   UNL     1       8.489   0.836   3.466  0.00  0.00    -0.010 C 
ATOM     10  C   UNL     1       5.372  -1.059   6.364  0.00  0.00    -0.010 C 
ATOM     11  C   UNL     1       5.970   1.089   7.446  0.00  0.00    -0.010 C 
ATOM     12  N   UNL     1       7.149   0.431   5.438  0.00  0.00    +0.386 N 
ATOM     13  H   UNL     1       7.726  -0.311   5.851  0.00  0.00    -0.084 HD
ATOM     14  H   UNL     1       7.568   1.346   5.645  0.00  0.00    -0.084 HD
ENDBRANCH   1   3
BRANCH   1  15
ATOM     15  C   UNL     1       2.355   0.912   3.153  0.00  0.00    +0.131 C 
ATOM     16  S   UNL     1       1.980  -0.528   3.999  0.00  0.00    -0.019 S 
BRANCH  15  17
ATOM     17  N   UNL     1       1.386   1.579   2.496  0.00  0.00    -0.323 N 
ATOM     18  H   UNL     1       1.598   2.396   2.016  0.00  0.00    +0.148 HD
BRANCH  17  25
ATOM     19  C   UNL     1      -0.013   1.086   0.008  0.00  0.00    +0.009 C 
ATOM     20  C   UNL     1      -0.729   1.579   1.267  0.00  0.00    +0.006 C 
ATOM     21  C   UNL     1      -0.750   3.109   1.275  0.00  0.00    +0.005 C 
ATOM     22  C   UNL     1      -1.466   3.603   2.534  0.00  0.00    +0.000 C 
ATOM     23  C   UNL     1      -0.726   3.096   3.774  0.00  0.00    +0.002 C 
ATOM     24  C   UNL     1      -0.705   1.566   3.765  0.00  0.00    +0.022 C 
ATOM     25  C   UNL     1       0.011   1.072   2.506  0.00  0.00    +0.075 C 
ENDBRANCH  17  25
ENDBRANCH  15  17
ENDBRANCH   1  15
TORSDOF 4
