REMARK  Name = ZINC04337357
REMARK  12 active torsions:
REMARK  status: ('A' for Active; 'I' for Inactive)
REMARK    1  A    between atoms: C_1  and  C_2
REMARK    2  A    between atoms: C_2  and  O_3
REMARK    3  A    between atoms: O_3  and  C_4
REMARK    4  A    between atoms: C_4  and  C_6
REMARK    5  A    between atoms: C_9  and  C_22
REMARK    6  A    between atoms: C_11  and  C_13
REMARK    7  A    between atoms: C_17  and  O_20
REMARK    8  A    between atoms: C_18  and  O_19
REMARK    9  A    between atoms: O_20  and  C_21
REMARK   10  A    between atoms: C_26  and  O_29
REMARK   11  A    between atoms: C_27  and  O_28
REMARK   12  A    between atoms: O_29  and  C_30
REMARK                            x       y       z     vdW  Elec       q    Type
REMARK                         _______ _______ _______ _____ _____    ______ ____
ROOT
ATOM      1  C   UNL     1       1.311  -2.550   2.375  0.00  0.00    +0.132 C 
ATOM      2  C   UNL     1       1.385  -3.886   2.463  0.00  0.00    +0.021 C 
ATOM      3  C   UNL     1       2.098  -4.580   3.591  0.00  0.00    +0.040 C 
ATOM      4  C   UNL     1       2.314  -3.598   4.745  0.00  0.00    -0.031 C 
ATOM      5  C   UNL     1       1.927  -1.634   3.394  0.00  0.00    -0.017 C 
ATOM      6  N   UNL     1       0.793  -4.644   1.493  0.00  0.00    -0.308 NA
ATOM      7  H   UNL     1       0.392  -4.216   0.720  0.00  0.00    +0.186 HD
ATOM      8  N   UNL     1       2.914  -2.361   4.208  0.00  0.00    +0.389 N 
ATOM      9  H   UNL     1       3.724  -2.601   3.625  0.00  0.00    -0.084 HD
ATOM     10  H   UNL     1       3.217  -1.764   4.986  0.00  0.00    -0.084 HD
ENDROOT
BRANCH   5  11
ATOM     11  C   UNL     1       2.610  -0.490   2.689  0.00  0.00    -0.015 A 
ATOM     12  C   UNL     1       3.950  -0.582   2.362  0.00  0.00    +0.006 A 
ATOM     13  C   UNL     1       4.578   0.463   1.711  0.00  0.00    +0.004 A 
ATOM     14  C   UNL     1       3.872   1.609   1.394  0.00  0.00    +0.049 A 
ATOM     15  C   UNL     1       2.530   1.709   1.724  0.00  0.00    +0.161 A 
ATOM     16  C   UNL     1       1.896   0.654   2.375  0.00  0.00    +0.160 A 
BRANCH  16  17
ATOM     17  O   UNL     1       0.579   0.748   2.702  0.00  0.00    -0.503 OA
ATOM     18  H   UNL     1       0.417   1.126   3.577  0.00  0.00    +0.292 HD
ENDBRANCH  16  17
BRANCH  15  19
ATOM     19  O   UNL     1       1.834   2.835   1.414  0.00  0.00    -0.491 OA
ATOM     20  C   UNL     1       2.549   3.877   0.746  0.00  0.00    +0.277 C 
ENDBRANCH  15  19
ENDBRANCH   5  11
BRANCH   4  21
ATOM     21  C   UNL     1       3.245  -4.208   5.761  0.00  0.00    -0.016 A 
ATOM     22  C   UNL     1       4.582  -3.853   5.775  0.00  0.00    +0.006 A 
ATOM     23  C   UNL     1       5.438  -4.411   6.705  0.00  0.00    +0.004 A 
ATOM     24  C   UNL     1       4.962  -5.327   7.626  0.00  0.00    +0.049 A 
ATOM     25  C   UNL     1       3.625  -5.687   7.617  0.00  0.00    +0.161 A 
ATOM     26  C   UNL     1       2.761  -5.121   6.683  0.00  0.00    +0.160 A 
BRANCH  26  27
ATOM     27  O   UNL     1       1.446  -5.468   6.674  0.00  0.00    -0.503 OA
ATOM     28  H   UNL     1       1.244  -6.228   6.111  0.00  0.00    +0.292 HD
ENDBRANCH  26  27
BRANCH  25  29
ATOM     29  O   UNL     1       3.155  -6.588   8.521  0.00  0.00    -0.491 OA
ATOM     30  C   UNL     1       4.097  -7.123   9.453  0.00  0.00    +0.277 C 
ENDBRANCH  25  29
ENDBRANCH   4  21
BRANCH   1  31
ATOM     31  C   UNL     1       0.631  -1.981   1.276  0.00  0.00    +0.314 C 
ATOM     32  O   UNL     1      -0.511  -1.581   1.408  0.00  0.00    -0.250 OA
BRANCH  31  33
ATOM     33  O   UNL     1       1.247  -1.880   0.080  0.00  0.00    -0.464 OA
BRANCH  33  35
ATOM     34  C   UNL     1       1.337  -1.288  -2.261  0.00  0.00    +0.048 C 
ATOM     35  C   UNL     1       0.543  -1.195  -0.957  0.00  0.00    +0.229 C 
ENDBRANCH  33  35
ENDBRANCH  31  33
ENDBRANCH   1  31
TORSDOF 9
