REMARK  Name = ZINC35750658
REMARK  7 active torsions:
REMARK  status: ('A' for Active; 'I' for Inactive)
REMARK    1  A    between atoms: C_4  and  C_7
REMARK    2  A    between atoms: C_7  and  N_8
REMARK    3  A    between atoms: C_9  and  C_30
REMARK    4  A    between atoms: C_11  and  C_16
REMARK    5  A    between atoms: C_19  and  N_22
REMARK    6  A    between atoms: C_23  and  C_25
REMARK    7  A    between atoms: N_32  and  C_33
REMARK                            x       y       z     vdW  Elec       q    Type
REMARK                         _______ _______ _______ _____ _____    ______ ____
ROOT
ATOM      1  N   UNL     1       3.908  -1.086   2.192  0.00  0.00    -0.248 N 
ATOM      2  C   UNL     1       4.911  -0.024   2.404  0.00  0.00    +0.211 C 
ATOM      3  C   UNL     1       5.185  -0.131   3.923  0.00  0.00    +0.238 C 
ATOM      4  O   UNL     1       4.816  -1.496   4.199  0.00  0.00    -0.440 OA
ATOM      5  C   UNL     1       3.905  -1.871   3.285  0.00  0.00    +0.405 C 
ATOM      6  O   UNL     1       3.160  -2.820   3.429  0.00  0.00    -0.226 OA
ENDROOT
BRANCH   3   7
ATOM      7  C   UNL     1       6.642   0.105   4.226  0.00  0.00    -0.005 A 
ATOM      8  C   UNL     1       7.560  -0.912   4.036  0.00  0.00    +0.009 A 
ATOM      9  C   UNL     1       8.896  -0.699   4.312  0.00  0.00    +0.024 A 
ATOM     10  C   UNL     1       9.318   0.538   4.780  0.00  0.00    +0.034 A 
ATOM     11  C   UNL     1       8.394   1.558   4.969  0.00  0.00    +0.024 A 
ATOM     12  C   UNL     1       7.060   1.340   4.686  0.00  0.00    +0.009 A 
BRANCH  10  13
ATOM     13  N   UNL     1      10.671   0.757   5.061  0.00  0.00    -0.279 N 
ATOM     14  C   UNL     1      11.025   1.584   6.064  0.00  0.00    +0.284 C 
ATOM     15  O   UNL     1      10.172   2.067   6.785  0.00  0.00    -0.266 OA
ATOM     16  H   UNL     1      11.353   0.314   4.533  0.00  0.00    +0.155 HD
BRANCH  14  17
ATOM     17  C   UNL     1      12.439   1.902   6.287  0.00  0.00    +0.189 A 
ATOM     18  C   UNL     1      12.934   2.716   7.266  0.00  0.00    +0.054 A 
ATOM     19  C   UNL     1      14.329   2.734   7.109  0.00  0.00    +0.042 A 
ATOM     20  C   UNL     1      14.620   1.940   6.055  0.00  0.00    +0.196 A 
ATOM     21  O   UNL     1      13.480   1.437   5.566  0.00  0.00    -0.458 OA
ENDBRANCH  14  17
ENDBRANCH  10  13
ENDBRANCH   3   7
BRANCH   2  22
ATOM     22  C   UNL     1       6.161  -0.299   1.609  0.00  0.00    +0.242 C 
ATOM     23  O   UNL     1       6.381  -1.417   1.193  0.00  0.00    -0.273 OA
ATOM     24  N   UNL     1       7.035   0.696   1.359  0.00  0.00    -0.284 N 
ATOM     25  H   UNL     1       6.898   1.572   1.754  0.00  0.00    +0.155 HD
BRANCH  24  26
ATOM     26  C   UNL     1       8.140   0.466   0.531  0.00  0.00    +0.034 A 
ATOM     27  C   UNL     1       8.040  -0.422  -0.531  0.00  0.00    +0.026 A 
ATOM     28  C   UNL     1       9.132  -0.647  -1.347  0.00  0.00    +0.040 A 
ATOM     29  C   UNL     1      10.325   0.012  -1.106  0.00  0.00    +0.124 A 
ATOM     30  C   UNL     1      10.427   0.898  -0.047  0.00  0.00    +0.040 A 
ATOM     31  C   UNL     1       9.336   1.131   0.768  0.00  0.00    +0.026 A 
ATOM     32  F   UNL     1      11.392  -0.210  -1.904  0.00  0.00    -0.205 F 
ENDBRANCH  24  26
ENDBRANCH   2  22
BRANCH   1  33
ATOM     33  C   UNL     1       3.063  -1.251   1.007  0.00  0.00    +0.147 C 
BRANCH  33  37
ATOM     34  C   UNL     1      -0.572   0.931   1.531  0.00  0.00    +0.000 A 
ATOM     35  C   UNL     1       0.524   1.542   0.951  0.00  0.00    +0.000 A 
ATOM     36  C   UNL     1       1.700   0.836   0.781  0.00  0.00    +0.005 A 
ATOM     37  C   UNL     1       1.781  -0.481   1.193  0.00  0.00    -0.030 A 
ATOM     38  C   UNL     1       0.686  -1.092   1.774  0.00  0.00    +0.005 A 
ATOM     39  C   UNL     1      -0.491  -0.386   1.942  0.00  0.00    +0.000 A 
ENDBRANCH  33  37
ENDBRANCH   1  33
TORSDOF 7
