REMARK  Name = ZINC06942288
REMARK  5 active torsions:
REMARK  status: ('A' for Active; 'I' for Inactive)
REMARK    1  A    between atoms: C_9  and  O_21
REMARK    2  A    between atoms: C_10  and  C_11
REMARK    3  A    between atoms: N_12  and  N_13
REMARK    4  A    between atoms: C_17  and  S_20
REMARK    5  A    between atoms: N_18  and  N_19
REMARK                            x       y       z     vdW  Elec       q    Type
REMARK                         _______ _______ _______ _____ _____    ______ ____
ROOT
ATOM      1  C   UNL     1      -2.084   4.308   0.036  0.00  0.00    +0.142 C 
ATOM      2  N   UNL     1      -1.022   3.558   0.026  0.00  0.00    -0.187 NA
ENDROOT
BRANCH   1  12
ATOM      3  C   UNL     1      -5.337   8.309   0.073  0.00  0.00    +0.001 A 
ATOM      4  C   UNL     1      -5.504   6.926   0.066  0.00  0.00    +0.001 A 
ATOM      5  C   UNL     1      -4.426   6.091   0.057  0.00  0.00    +0.009 A 
ATOM      6  C   UNL     1      -3.134   6.630   0.048  0.00  0.00    -0.006 A 
ATOM      7  C   UNL     1      -2.961   8.036   0.060  0.00  0.00    -0.016 A 
ATOM      8  C   UNL     1      -4.095   8.866   0.070  0.00  0.00    +0.008 A 
ATOM      9  C   UNL     1      -1.663   8.574   0.056  0.00  0.00    +0.027 A 
ATOM     10  C   UNL     1      -0.572   7.761   0.047  0.00  0.00    +0.060 A 
ATOM     11  C   UNL     1      -0.691   6.372   0.040  0.00  0.00    +0.140 A 
ATOM     12  C   UNL     1      -1.950   5.772   0.043  0.00  0.00    +0.045 A 
ATOM     13 BR   UNL     1       1.153   8.536   0.042  0.00  0.00    -0.046 Br
BRANCH  11  14
ATOM     14  O   UNL     1       0.425   5.598   0.030  0.00  0.00    -0.505 OA
ATOM     15  H   UNL     1       0.744   5.379  -0.856  0.00  0.00    +0.292 HD
ENDBRANCH  11  14
ENDBRANCH   1  12
BRANCH   2  16
ATOM     16  N   UNL     1      -1.149   2.163   0.019  0.00  0.00    -0.204 N 
ATOM     17  C   UNL     1      -0.017   1.363   0.009  0.00  0.00    +0.254 A 
ATOM     18  N   UNL     1       1.225   1.785   0.000  0.00  0.00    -0.109 NA
ATOM     19  N   UNL     1       2.063   0.663  -0.014  0.00  0.00    -0.119 NA
ATOM     20  C   UNL     1       1.307  -0.408  -0.013  0.00  0.00    +0.207 A 
ATOM     21  N   UNL     1       0.002  -0.004   0.002  0.00  0.00    -0.211 N 
ATOM     22  H   UNL     1      -2.030   1.757   0.022  0.00  0.00    +0.177 HD
BRANCH  21  23
ATOM     23  N   UNL     1      -1.092  -0.822   0.009  0.00  0.00    -0.294 N 
ATOM     24  H   UNL     1      -1.391  -1.033  -0.932  0.00  0.00    +0.163 HD
ATOM     25  H   UNL     1      -0.909  -1.667   0.528  0.00  0.00    +0.163 HD
ENDBRANCH  21  23
BRANCH  20  26
ATOM     26  S   UNL     1       1.874  -2.077  -0.028  0.00  0.00    -0.102 S 
ATOM     27  H   UNL     1       1.966  -2.377  -1.336  0.00  0.00    +0.110 HD
ENDBRANCH  20  26
ENDBRANCH   2  16
TORSDOF 5
