REMARK  Name = ZINC67649454
REMARK  6 active torsions:
REMARK  status: ('A' for Active; 'I' for Inactive)
REMARK    1  A    between atoms: C_1  and  N_2
REMARK    2  A    between atoms: C_3  and  C_5
REMARK    3  A    between atoms: C_8  and  N_23
REMARK    4  A    between atoms: N_11  and  C_12
REMARK    5  A    between atoms: C_12  and  C_13
REMARK    6  A    between atoms: N_21  and  C_22
REMARK                            x       y       z     vdW  Elec       q    Type
REMARK                         _______ _______ _______ _____ _____    ______ ____
ROOT
ATOM      1  C   UNL     1       0.606  -2.171  -1.026  0.00  0.00    +0.142 C 
ATOM      2  C   UNL     1       1.387  -2.692   0.194  0.00  0.00    +0.013 C 
ATOM      3  C   UNL     1       2.549  -3.525  -0.396  0.00  0.00    -0.059 C 
ATOM      4  C   UNL     1       2.032  -3.886  -1.811  0.00  0.00    +0.069 C 
ATOM      5  N   UNL     1       1.304  -2.659  -2.235  0.00  0.00    -0.287 NA
ENDROOT
BRANCH   1   8
ATOM      6  C   UNL     1      -0.018   1.461   0.010  0.00  0.00    +0.128 C 
ATOM      7  N   UNL     1       0.002  -0.004   0.002  0.00  0.00    -0.317 N 
ATOM      8  C   UNL     1       0.585  -0.664  -1.018  0.00  0.00    +0.230 C 
ATOM      9  O   UNL     1       1.093  -0.046  -1.929  0.00  0.00    -0.274 OA
ATOM     10  H   UNL     1      -0.404  -0.499   0.731  0.00  0.00    +0.148 HD
ENDBRANCH   1   8
BRANCH   3  11
ATOM     11  N   UNL     1       2.778  -4.736   0.403  0.00  0.00    +0.381 N 
ATOM     12  H   UNL     1       1.942  -5.300   0.406  0.00  0.00    -0.090 HD
ATOM     13  H   UNL     1       3.539  -5.264   0.002  0.00  0.00    -0.090 HD
ATOM     14  H   UNL     1       3.012  -4.475   1.349  0.00  0.00    -0.090 HD
ENDBRANCH   3  11
BRANCH   5  15
ATOM     15  C   UNL     1       0.350  -2.954  -3.312  0.00  0.00    +0.138 C 
BRANCH  15  16
ATOM     16  C   UNL     1       1.102  -3.209  -4.593  0.00  0.00    +0.034 A 
ATOM     17  C   UNL     1       1.452  -4.421  -5.053  0.00  0.00    +0.032 A 
ATOM     18  C   UNL     1       2.160  -4.211  -6.318  0.00  0.00    +0.000 A 
ATOM     19  C   UNL     1       2.754  -5.063  -7.251  0.00  0.00    +0.010 A 
ATOM     20  C   UNL     1       3.352  -4.541  -8.362  0.00  0.00    +0.001 A 
ATOM     21  C   UNL     1       3.374  -3.169  -8.573  0.00  0.00    +0.002 A 
ATOM     22  C   UNL     1       2.793  -2.309  -7.666  0.00  0.00    +0.026 A 
ATOM     23  C   UNL     1       2.179  -2.820  -6.526  0.00  0.00    +0.049 A 
ATOM     24  N   UNL     1       1.524  -2.240  -5.463  0.00  0.00    -0.346 N 
ATOM     25  C   UNL     1       1.312  -0.801  -5.287  0.00  0.00    +0.149 C 
ENDBRANCH  15  16
ENDBRANCH   5  15
TORSDOF 4
