REMARK  Name = ZINC62620554
REMARK  11 active torsions:
REMARK  status: ('A' for Active; 'I' for Inactive)
REMARK    1  A    between atoms: C_1  and  C_2
REMARK    2  A    between atoms: C_2  and  N_3
REMARK    3  A    between atoms: C_6  and  N_9
REMARK    4  A    between atoms: N_9  and  C_10
REMARK    5  A    between atoms: C_11  and  C_13
REMARK    6  A    between atoms: N_24  and  S_25
REMARK    7  A    between atoms: S_25  and  C_28
REMARK    8  A    between atoms: C_31  and  O_36
REMARK    9  A    between atoms: C_32  and  O_34
REMARK   10  A    between atoms: O_34  and  C_35
REMARK   11  A    between atoms: O_36  and  C_37
REMARK                            x       y       z     vdW  Elec       q    Type
REMARK                         _______ _______ _______ _____ _____    ______ ____
ROOT
ATOM      1  C   UNL     1      -6.903  -3.837  -1.714  0.00  0.00    +0.166 C 
ATOM      2  C   UNL     1      -7.853  -2.612  -1.827  0.00  0.00    +0.035 C 
ATOM      3  C   UNL     1      -9.019  -3.194  -2.641  0.00  0.00    +0.010 C 
ATOM      4  C   UNL     1      -9.814  -2.181  -3.447  0.00  0.00    +0.005 C 
ATOM      5  C   UNL     1     -10.838  -2.965  -4.283  0.00  0.00    +0.000 C 
ATOM      6  C   UNL     1     -10.156  -3.980  -5.195  0.00  0.00    +0.002 C 
ATOM      7  C   UNL     1      -9.241  -4.924  -4.398  0.00  0.00    +0.021 C 
ATOM      8  C   UNL     1      -8.237  -4.079  -3.649  0.00  0.00    +0.084 C 
ATOM      9  N   UNL     1      -7.238  -4.755  -2.828  0.00  0.00    -0.161 NA
ENDROOT
BRANCH   1  12
ATOM     10  N   UNL     1      -4.952  -2.536  -0.926  0.00  0.00    -0.300 N 
ATOM     11  C   UNL     1      -5.784  -2.048   0.178  0.00  0.00    +0.132 C 
ATOM     12  C   UNL     1      -5.470  -3.387  -1.834  0.00  0.00    +0.234 C 
ATOM     13  O   UNL     1      -4.781  -3.791  -2.747  0.00  0.00    -0.274 OA
BRANCH  10  17
ATOM     14  N   UNL     1      -1.376  -0.512   0.012  0.00  0.00    +0.380 N 
ATOM     15  C   UNL     1      -2.051  -0.118  -1.230  0.00  0.00    -0.077 C 
ATOM     16  C   UNL     1      -3.511  -0.575  -1.189  0.00  0.00    +0.004 C 
ATOM     17  C   UNL     1      -3.559  -2.099  -1.042  0.00  0.00    +0.072 C 
ATOM     18  C   UNL     1      -2.788  -2.505   0.218  0.00  0.00    +0.004 C 
ATOM     19  C   UNL     1      -1.355  -1.976   0.125  0.00  0.00    -0.077 C 
ATOM     20  H   UNL     1      -1.871  -0.123   0.800  0.00  0.00    -0.082 HD
BRANCH  14  22
ATOM     21  C   UNL     1      -0.019   1.526   0.010  0.00  0.00    -0.017 C 
ATOM     22  C   UNL     1       0.002  -0.004   0.002  0.00  0.00    -0.082 C 
ENDBRANCH  14  22
ENDBRANCH  10  17
ENDBRANCH   1  12
BRANCH   9  23
ATOM     23  S   UNL     1      -6.599  -6.260  -3.088  0.00  0.00    +0.062 S 
ATOM     24  O   UNL     1      -6.746  -6.530  -4.476  0.00  0.00    -0.153 OA
ATOM     25  O   UNL     1      -5.335  -6.283  -2.438  0.00  0.00    -0.153 OA
BRANCH  23  26
ATOM     26  C   UNL     1      -7.623  -7.416  -2.240  0.00  0.00    +0.109 A 
ATOM     27  C   UNL     1      -7.348  -7.745  -0.925  0.00  0.00    +0.032 A 
ATOM     28  C   UNL     1      -8.149  -8.651  -0.255  0.00  0.00    +0.051 A 
ATOM     29  C   UNL     1      -9.229  -9.231  -0.900  0.00  0.00    +0.162 A 
ATOM     30  C   UNL     1      -9.505  -8.899  -2.223  0.00  0.00    +0.163 A 
ATOM     31  C   UNL     1      -8.702  -7.987  -2.887  0.00  0.00    +0.078 A 
BRANCH  30  32
ATOM     32  O   UNL     1     -10.565  -9.466  -2.860  0.00  0.00    -0.491 OA
ATOM     33  C   UNL     1     -10.788  -9.079  -4.217  0.00  0.00    +0.277 C 
ENDBRANCH  30  32
BRANCH  29  34
ATOM     34  O   UNL     1     -10.017 -10.123  -0.242  0.00  0.00    -0.491 OA
ATOM     35  C   UNL     1      -9.673 -10.415   1.114  0.00  0.00    +0.277 C 
ENDBRANCH  29  34
ENDBRANCH  23  26
ENDBRANCH   9  23
TORSDOF 7
