REMARK  Name = ZINC39345076
REMARK  11 active torsions:
REMARK  status: ('A' for Active; 'I' for Inactive)
REMARK    1  A    between atoms: C_7  and  N_25
REMARK    2  A    between atoms: N_9  and  C1*_12
REMARK    3  A    between atoms: C2*_14  and  O2*_24
REMARK    4  A    between atoms: C3*_16  and  O3*_23
REMARK    5  A    between atoms: C4*_18  and  C5*_21
REMARK    6  A    between atoms: C5*_21  and  O5*_22
REMARK    7  A    between atoms: N_25  and  C_26
REMARK    8  A    between atoms: C_26  and  C_27
REMARK    9  A    between atoms: C_27  and  C_28
REMARK   10  A    between atoms: C_28  and  C_29
REMARK   11  A    between atoms: C_29  and  N_30
REMARK                            x       y       z     vdW  Elec       q    Type
REMARK                         _______ _______ _______ _____ _____    ______ ____
ROOT
ATOM      1  C   UNL     1      -0.016   1.320   0.009  0.00  0.00    +0.213 C 
ATOM      2  N   UNL     1       1.048   2.084   0.003  0.00  0.00    -0.163 NA
ATOM      3  C   UNL     1       2.289   1.569  -0.011  0.00  0.00    +0.290 C 
ATOM      4  O   UNL     1       3.274   2.284  -0.017  0.00  0.00    -0.266 OA
ATOM      5  C   UNL     1       2.407   0.081  -0.021  0.00  0.00    +0.165 C 
ATOM      6  N   UNL     1       3.409  -0.730  -0.034  0.00  0.00    -0.238 NA
ATOM      7  C   UNL     1       2.901  -2.106  -0.036  0.00  0.00    +0.269 C 
ATOM      8  N   UNL     1       1.434  -2.012  -0.022  0.00  0.00    -0.250 N 
ATOM      9  C   UNL     1       1.134  -0.684  -0.013  0.00  0.00    +0.158 C 
ATOM     10  N   UNL     1       0.002  -0.004   0.002  0.00  0.00    -0.221 NA
ENDROOT
BRANCH   8  11
ATOM     11  C1* UNL     1       0.483  -3.127  -0.019  0.00  0.00    +0.242 C 
ATOM     12  C2* UNL     1      -0.345  -3.124   1.291  0.00  0.00    +0.193 C 
ATOM     13  C3* UNL     1      -1.623  -3.877   0.833  0.00  0.00    +0.178 C 
ATOM     14  C4* UNL     1      -1.765  -3.421  -0.635  0.00  0.00    +0.177 C 
ATOM     15  O4* UNL     1      -0.479  -2.965  -1.074  0.00  0.00    -0.348 OA
BRANCH  13  16
ATOM     16  O3* UNL     1      -1.436  -5.292   0.914  0.00  0.00    -0.386 OA
ATOM     17  H3* UNL     1      -2.207  -5.807   0.639  0.00  0.00    +0.210 HD
ENDBRANCH  13  16
BRANCH  12  18
ATOM     18  O2* UNL     1       0.330  -3.836   2.329  0.00  0.00    -0.385 OA
ATOM     19  H2* UNL     1      -0.151  -3.860   3.167  0.00  0.00    +0.210 HD
ENDBRANCH  12  18
BRANCH  14  20
ATOM     20  C5* UNL     1      -2.223  -4.595  -1.502  0.00  0.00    +0.190 C 
BRANCH  20  21
ATOM     21  O5* UNL     1      -2.464  -4.138  -2.834  0.00  0.00    -0.392 OA
ATOM     22  H5* UNL     1      -2.758  -4.832  -3.441  0.00  0.00    +0.210 HD
ENDBRANCH  20  21
ENDBRANCH  14  20
ENDBRANCH   8  11
BRANCH   7  23
ATOM     23  N   UNL     1       3.349  -2.806  -1.247  0.00  0.00    -0.280 NA
ATOM     24  H   UNL     1       2.766  -3.607  -1.439  0.00  0.00    +0.125 HD
BRANCH  23  25
ATOM     25  C   UNL     1       4.761  -3.198  -1.137  0.00  0.00    +0.084 C 
BRANCH  25  26
ATOM     26  C   UNL     1       5.191  -3.923  -2.414  0.00  0.00    +0.013 C 
BRANCH  26  27
ATOM     27  C   UNL     1       6.661  -4.330  -2.298  0.00  0.00    -0.018 C 
BRANCH  27  28
ATOM     28  C   UNL     1       7.091  -5.055  -3.575  0.00  0.00    -0.086 C 
BRANCH  28  29
ATOM     29  N   UNL     1       8.502  -5.447  -3.465  0.00  0.00    +0.378 N 
ATOM     30  H   UNL     1       8.786  -5.925  -4.307  0.00  0.00    -0.090 HD
ATOM     31  H   UNL     1       9.071  -4.623  -3.338  0.00  0.00    -0.090 HD
ATOM     32  H   UNL     1       8.620  -6.062  -2.673  0.00  0.00    -0.090 HD
ENDBRANCH  28  29
ENDBRANCH  27  28
ENDBRANCH  26  27
ENDBRANCH  25  26
ENDBRANCH  23  25
ENDBRANCH   7  23
TORSDOF 11
