REMARK  Name = ZINC06511134
REMARK  14 active torsions:
REMARK  status: ('A' for Active; 'I' for Inactive)
REMARK    1  A    between atoms: C_1  and  C_2
REMARK    2  A    between atoms: C_2  and  N_64
REMARK    3  A    between atoms: C_3  and  C_4
REMARK    4  A    between atoms: C_3  and  N_64
REMARK    5  A    between atoms: C_5  and  C_6
REMARK    6  A    between atoms: C_5  and  N_64
REMARK    7  A    between atoms: C_6  and  C_7
REMARK    8  A    between atoms: C_7  and  N_8
REMARK    9  A    between atoms: N_8  and  C_9
REMARK   10  A    between atoms: C_9  and  C_10
REMARK   11  A    between atoms: N_12  and  C_13
REMARK   12  A    between atoms: C_19  and  C_21
REMARK   13  A    between atoms: C_22  and  N_29
REMARK   14  A    between atoms: C_23  and  C_26
REMARK                            x       y       z     vdW  Elec       q    Type
REMARK                         _______ _______ _______ _____ _____    ______ ____
ROOT
ATOM      1  N   UNL     1       4.835   0.857   1.392  0.00  0.00    -0.288 N 
ATOM      2  C   UNL     1       5.333  -0.226   0.762  0.00  0.00    +0.257 C 
ATOM      3  O   UNL     1       5.936  -1.074   1.394  0.00  0.00    -0.269 OA
ENDROOT
BRANCH   2   4
ATOM      4  C   UNL     1       5.147  -0.382  -0.682  0.00  0.00    +0.115 A 
ATOM      5  C   UNL     1       5.686  -1.339  -1.544  0.00  0.00    +0.076 A 
ATOM      6  C   UNL     1       5.273  -1.160  -2.865  0.00  0.00    +0.155 A 
ATOM      7  N   UNL     1       4.463  -0.166  -3.157  0.00  0.00    -0.203 NA
ATOM      8  S   UNL     1       4.169   0.592  -1.806  0.00  0.00    +0.019 S 
BRANCH   6   9
ATOM      9  C   UNL     1       5.740  -2.075  -3.922  0.00  0.00    +0.262 C 
ATOM     10  O   UNL     1       6.489  -2.992  -3.645  0.00  0.00    -0.269 OA
ATOM     11  N   UNL     1       5.337  -1.895  -5.196  0.00  0.00    -0.324 N 
ATOM     12  H   UNL     1       4.739  -1.164  -5.417  0.00  0.00    +0.145 HD
ATOM     13  H   UNL     1       5.644  -2.497  -5.891  0.00  0.00    +0.145 HD
ENDBRANCH   6   9
BRANCH   5  14
ATOM     14  N   UNL     1       6.537  -2.356  -1.134  0.00  0.00    -0.355 N 
ATOM     15  H   UNL     1       6.790  -2.429  -0.200  0.00  0.00    +0.142 HD
ATOM     16  H   UNL     1       6.880  -2.992  -1.781  0.00  0.00    +0.142 HD
ENDBRANCH   5  14
ENDBRANCH   2   4
BRANCH   1  17
ATOM     17  C   UNL     1       5.085   1.051   2.823  0.00  0.00    +0.107 C 
BRANCH  17  18
ATOM     18  C   UNL     1       4.039   0.281   3.632  0.00  0.00    +0.000 C 
BRANCH  18  19
ATOM     19  C   UNL     1       4.299   0.484   5.126  0.00  0.00    -0.077 C 
BRANCH  19  20
ATOM     20  N   UNL     1       3.269  -0.247   5.893  0.00  0.00    +0.379 N 
ATOM     21  H   UNL     1       2.341   0.021   5.545  0.00  0.00    -0.082 HD
BRANCH  20  23
ATOM     22  C   UNL     1       4.788  -2.156   6.295  0.00  0.00    -0.017 C 
ATOM     23  C   UNL     1       3.446  -1.704   5.715  0.00  0.00    -0.082 C 
ENDBRANCH  20  23
BRANCH  20  24
ATOM     24  C   UNL     1       3.364   0.102   7.326  0.00  0.00    -0.082 C 
ATOM     25  C   UNL     1       2.219  -0.580   8.078  0.00  0.00    -0.017 C 
ENDBRANCH  20  24
ENDBRANCH  19  20
ENDBRANCH  18  19
ENDBRANCH  17  18
ENDBRANCH   1  17
BRANCH   1  26
ATOM     26  C   UNL     1       4.045   1.840   0.646  0.00  0.00    +0.203 C 
BRANCH  26  27
ATOM     27  C   UNL     1       2.619   1.366   0.546  0.00  0.00    +0.231 C 
ATOM     28  O   UNL     1       2.293   0.311   1.048  0.00  0.00    -0.274 OA
ATOM     29  N   UNL     1       1.704   2.114  -0.101  0.00  0.00    -0.311 N 
ATOM     30  H   UNL     1       1.964   2.958  -0.503  0.00  0.00    +0.149 HD
BRANCH  29  31
ATOM     31  C   UNL     1       0.317   1.653  -0.199  0.00  0.00    +0.073 C 
ATOM     32  C   UNL     1      -0.449   2.069   1.059  0.00  0.00    +0.022 C 
ATOM     33  C   UNL     1      -1.897   1.588   0.958  0.00  0.00    +0.002 C 
ATOM     34  C   UNL     1      -2.558   2.215  -0.272  0.00  0.00    +0.000 C 
ATOM     35  C   UNL     1      -1.793   1.798  -1.530  0.00  0.00    +0.002 C 
ATOM     36  C   UNL     1      -0.344   2.280  -1.428  0.00  0.00    +0.022 C 
ENDBRANCH  29  31
ENDBRANCH  26  27
ENDBRANCH   1  26
TORSDOF 12
