REMARK  Name = ZINC04305908
REMARK  5 active torsions:
REMARK  status: ('A' for Active; 'I' for Inactive)
REMARK    1  A    between atoms: C_1  and  C_2
REMARK    2  A    between atoms: C_5  and  N_8
REMARK    3  A    between atoms: C_10  and  N_22
REMARK    4  A    between atoms: C_11  and  N_21
REMARK    5  A    between atoms: C_20  and  N_46
REMARK                            x       y       z     vdW  Elec       q    Type
REMARK                         _______ _______ _______ _____ _____    ______ ____
ROOT
ATOM      1  N   UNL     1      -0.017   1.394   0.010  0.00  0.00    -0.297 N 
ATOM      2  C   UNL     1      -1.313   1.886   0.042  0.00  0.00    +0.160 A 
ATOM      3  C   UNL     1      -1.551   3.254  -0.053  0.00  0.00    +0.205 A 
ATOM      4  C   UNL     1      -2.868   3.702  -0.016  0.00  0.00    +0.154 A 
ATOM      5  N   UNL     1      -3.851   2.813   0.108  0.00  0.00    -0.197 NA
ATOM      6  C   UNL     1      -3.588   1.518   0.196  0.00  0.00    +0.221 A 
ATOM      7  N   UNL     1      -2.347   1.056   0.159  0.00  0.00    -0.197 NA
ATOM      8  N   UNL     1      -4.637   0.624   0.324  0.00  0.00    -0.303 N 
ATOM      9  C   UNL     1      -4.602  -0.385  -0.744  0.00  0.00    +0.089 C 
ATOM     10  C   UNL     1      -5.727  -1.398  -0.521  0.00  0.00    -0.060 C 
ATOM     11  C   UNL     1      -7.053   0.313   0.562  0.00  0.00    -0.060 C 
ATOM     12  C   UNL     1      -5.928   1.326   0.340  0.00  0.00    +0.089 C 
ATOM     13  C   UNL     1      -8.132  -1.645  -0.370  0.00  0.00    -0.096 C 
ATOM     14  H   UNL     1       0.725   1.993  -0.167  0.00  0.00    +0.154 HD
ATOM     15  N   UNL     1      -7.021  -0.683  -0.530  0.00  0.00    +0.380 N 
ATOM     16  H   UNL     1      -7.127  -0.197  -1.428  0.00  0.00    -0.082 HD
ENDROOT
BRANCH   1  21
ATOM     17  C   UNL     1       0.945  -4.126   0.890  0.00  0.00    +0.044 C 
ATOM     18  C   UNL     1       0.689  -2.660   0.655  0.00  0.00    -0.050 A 
ATOM     19  C   UNL     1       1.473  -1.957  -0.241  0.00  0.00    +0.005 A 
ATOM     20  C   UNL     1       1.242  -0.613  -0.457  0.00  0.00    +0.023 A 
ATOM     21  C   UNL     1       0.220   0.033   0.226  0.00  0.00    +0.032 A 
ATOM     22  C   UNL     1      -0.563  -0.674   1.130  0.00  0.00    +0.023 A 
ATOM     23  C   UNL     1      -0.330  -2.020   1.337  0.00  0.00    +0.005 A 
ENDBRANCH   1  21
BRANCH   4  24
ATOM     24  N   UNL     1      -3.153   5.055  -0.107  0.00  0.00    -0.341 N 
ATOM     25  H   UNL     1      -2.431   5.697  -0.198  0.00  0.00    +0.144 HD
ATOM     26  H   UNL     1      -4.073   5.360  -0.081  0.00  0.00    +0.144 HD
ENDBRANCH   4  24
BRANCH   3  27
ATOM     27  N   UNL     1      -0.429   4.210  -0.189  0.00  0.00    +0.063 N 
ATOM     28  O   UNL     1      -0.025   4.521  -1.295  0.00  0.00    -0.126 OA
ATOM     29  O   UNL     1       0.090   4.686   0.805  0.00  0.00    -0.126 OA
ENDBRANCH   3  27
TORSDOF 3
