REMARK  Name = ZINC36267816
REMARK  4 active torsions:
REMARK  status: ('A' for Active; 'I' for Inactive)
REMARK    1  A    between atoms: C_3  and  N_14
REMARK    2  A    between atoms: C_6  and  N_7
REMARK    3  A    between atoms: N_7  and  C_8
REMARK    4  A    between atoms: C_11  and  N_13
REMARK                            x       y       z     vdW  Elec       q    Type
REMARK                         _______ _______ _______ _____ _____    ______ ____
ROOT
ATOM      1  C   UNL     1      -0.017   1.389   0.010  0.00  0.00    +0.028 A 
ATOM      2  C   UNL     1       1.193   2.063   0.002  0.00  0.00    +0.055 A 
ATOM      3  C   UNL     1       2.370   1.338  -0.013  0.00  0.00    +0.215 A 
ATOM      4  N   UNL     1       2.354   0.020  -0.021  0.00  0.00    -0.230 NA
ATOM      5  C   UNL     1       1.226  -0.661  -0.014  0.00  0.00    +0.136 A 
ATOM      6  C   UNL     1       0.002  -0.004   0.002  0.00  0.00    +0.046 A 
ENDROOT
BRANCH   3   7
ATOM      7  N   UNL     1       3.667   2.052  -0.022  0.00  0.00    +0.075 N 
ATOM      8  O   UNL     1       3.691   3.261  -0.016  0.00  0.00    -0.125 OA
ATOM      9  O   UNL     1       4.701   1.427  -0.035  0.00  0.00    -0.125 OA
ENDBRANCH   3   7
BRANCH   6  10
ATOM     10  N   UNL     1      -1.192  -0.729   0.010  0.00  0.00    -0.341 N 
ATOM     11  H   UNL     1      -2.042  -0.263   0.021  0.00  0.00    +0.146 HD
BRANCH  10  12
ATOM     12  C   UNL     1      -1.159  -2.194   0.002  0.00  0.00    +0.055 C 
ATOM     13  C   UNL     1      -2.133  -2.917  -0.931  0.00  0.00    +0.006 C 
ATOM     14  C   UNL     1      -2.369  -2.931   0.582  0.00  0.00    -0.053 C 
BRANCH  14  15
ATOM     15  N   UNL     1      -2.118  -4.190   1.296  0.00  0.00    +0.381 N 
ATOM     16  H   UNL     1      -1.510  -4.015   2.082  0.00  0.00    -0.090 HD
ATOM     17  H   UNL     1      -2.992  -4.570   1.625  0.00  0.00    -0.090 HD
ATOM     18  H   UNL     1      -1.678  -4.849   0.671  0.00  0.00    -0.090 HD
ENDBRANCH  14  15
ENDBRANCH  10  12
ENDBRANCH   6  10
TORSDOF 4
