REMARK  Name = ZINC38926281
REMARK  7 active torsions:
REMARK  status: ('A' for Active; 'I' for Inactive)
REMARK    1  A    between atoms: C_1  and  C_2
REMARK    2  A    between atoms: C_5  and  C_23
REMARK    3  A    between atoms: C_7  and  S_8
REMARK    4  A    between atoms: S_8  and  N_11
REMARK    5  A    between atoms: N_11  and  C_12
REMARK    6  A    between atoms: C_12  and  C_13
REMARK    7  A    between atoms: N_32  and  C_33
REMARK                            x       y       z     vdW  Elec       q    Type
REMARK                         _______ _______ _______ _____ _____    ______ ____
ROOT
ATOM      1  C   UNL     1      -0.511  -0.342   1.482  0.00  0.00    +0.046 C 
ATOM      2  C   UNL     1      -0.308  -1.757   1.003  0.00  0.00    -0.024 A 
ATOM      3  C   UNL     1      -0.494  -2.068  -0.332  0.00  0.00    +0.005 A 
ATOM      4  C   UNL     1      -0.309  -3.365  -0.771  0.00  0.00    +0.006 A 
ATOM      5  C   UNL     1       0.064  -4.351   0.123  0.00  0.00    -0.018 A 
ATOM      6  C   UNL     1       0.251  -4.040   1.457  0.00  0.00    +0.034 A 
ATOM      7  C   UNL     1       0.069  -2.742   1.896  0.00  0.00    +0.108 A 
ENDROOT
BRANCH   5   8
ATOM      8  C   UNL     1       0.265  -5.766  -0.356  0.00  0.00    +0.159 C 
ATOM      9  C   UNL     1       1.632  -5.884  -0.969  0.00  0.00    -0.009 A 
ATOM     10  C   UNL     1       2.764  -5.909  -0.182  0.00  0.00    +0.007 A 
ATOM     11  C   UNL     1       4.012  -6.014  -0.771  0.00  0.00    +0.000 A 
ATOM     12  C   UNL     1       4.138  -6.093  -2.147  0.00  0.00    +0.001 A 
ATOM     13  C   UNL     1       3.012  -6.071  -2.947  0.00  0.00    +0.012 A 
ATOM     14  C   UNL     1       1.756  -5.969  -2.358  0.00  0.00    +0.026 A 
ATOM     15  C   UNL     1       0.516  -5.955  -3.168  0.00  0.00    +0.180 C 
ATOM     16  N   UNL     1       0.553  -5.743  -4.462  0.00  0.00    -0.226 NA
ATOM     17  N   UNL     1      -0.671  -6.172  -2.519  0.00  0.00    -0.157 NA
ATOM     18  N   UNL     1      -0.785  -6.098  -1.304  0.00  0.00    -0.295 N 
ATOM     19  H   UNL     1      -1.664  -6.279  -0.937  0.00  0.00    +0.183 HD
BRANCH  16  20
ATOM     20  C   UNL     1       1.689  -5.262  -5.042  0.00  0.00    +0.066 A 
ATOM     21  C   UNL     1       2.319  -5.986  -6.060  0.00  0.00    +0.028 A 
ATOM     22  C   UNL     1       3.467  -5.492  -6.642  0.00  0.00    +0.002 A 
ATOM     23  C   UNL     1       3.997  -4.285  -6.221  0.00  0.00    +0.000 A 
ATOM     24  C   UNL     1       3.380  -3.563  -5.213  0.00  0.00    +0.002 A 
ATOM     25  C   UNL     1       2.228  -4.040  -4.625  0.00  0.00    +0.028 A 
ENDBRANCH  16  20
ENDBRANCH   5   8
BRANCH   7  26
ATOM     26  S   UNL     1       0.313  -2.344   3.595  0.00  0.00    +0.059 S 
ATOM     27  O   UNL     1       0.670  -3.554   4.248  0.00  0.00    -0.153 OA
ATOM     28  O   UNL     1       1.140  -1.188   3.627  0.00  0.00    -0.153 OA
BRANCH  26  29
ATOM     29  N   UNL     1      -1.157  -1.891   4.208  0.00  0.00    -0.183 NA
ATOM     30  H   UNL     1      -1.299  -0.978   4.503  0.00  0.00    +0.148 HD
BRANCH  29  31
ATOM     31  C   UNL     1      -2.243  -2.869   4.305  0.00  0.00    +0.180 C 
BRANCH  31  32
ATOM     32  C   UNL     1      -3.315  -2.341   5.223  0.00  0.00    +0.124 A 
ATOM     33  N   UNL     1      -4.431  -1.677   4.817  0.00  0.00    -0.341 N 
ATOM     34  H   UNL     1      -4.672  -1.464   3.901  0.00  0.00    +0.167 HD
ATOM     35  C   UNL     1      -5.156  -1.362   5.948  0.00  0.00    +0.066 A 
ATOM     36  C   UNL     1      -6.356  -0.703   6.175  0.00  0.00    +0.028 A 
ATOM     37  C   UNL     1      -6.818  -0.550   7.465  0.00  0.00    +0.002 A 
ATOM     38  C   UNL     1      -6.091  -1.050   8.536  0.00  0.00    +0.002 A 
ATOM     39  C   UNL     1      -4.908  -1.701   8.332  0.00  0.00    +0.030 A 
ATOM     40  C   UNL     1      -4.420  -1.868   7.033  0.00  0.00    +0.089 A 
ATOM     41  N   UNL     1      -3.311  -2.458   6.518  0.00  0.00    -0.231 NA
ENDBRANCH  31  32
ENDBRANCH  29  31
ENDBRANCH  26  29
ENDBRANCH   7  26
TORSDOF 6
