REMARK  Name = ZINC13144970
REMARK  9 active torsions:
REMARK  status: ('A' for Active; 'I' for Inactive)
REMARK    1  A    between atoms: C_1  and  C_2
REMARK    2  A    between atoms: C_6  and  C_19
REMARK    3  A    between atoms: N_8  and  C_9
REMARK    4  A    between atoms: C_13  and  C_15
REMARK    5  A    between atoms: N_21  and  C_22
REMARK    6  A    between atoms: C_27  and  O_28
REMARK    7  A    between atoms: O_28  and  C_29
REMARK    8  A    between atoms: C_30  and  C_33
REMARK    9  A    between atoms: C_33  and  O_34
REMARK                            x       y       z     vdW  Elec       q    Type
REMARK                         _______ _______ _______ _____ _____    ______ ____
ROOT
ATOM      1  C   UNL     1       1.138   1.205   0.232  0.00  0.00    +0.069 C 
ATOM      2  C   UNL     1       0.393  -0.097   0.085  0.00  0.00    +0.081 A 
ATOM      3  C   UNL     1       0.107  -0.589  -1.181  0.00  0.00    +0.159 A 
ATOM      4  C   UNL     1      -0.588  -1.808  -1.292  0.00  0.00    +0.027 A 
ATOM      5  C   UNL     1      -0.895  -2.348  -2.618  0.00  0.00    +0.030 A 
ATOM      6  C   UNL     1      -0.259  -1.773  -3.697  0.00  0.00    +0.098 A 
ATOM      7  C   UNL     1       0.678  -0.666  -3.418  0.00  0.00    +0.212 A 
ATOM      8  N   UNL     1       1.679  -0.407  -4.231  0.00  0.00    -0.325 N 
ATOM      9  O   UNL     1       0.479   0.077  -2.299  0.00  0.00    -0.437 OA
ATOM     10  C   UNL     1      -0.966  -2.474  -0.120  0.00  0.00    +0.007 A 
ATOM     11  C   UNL     1      -0.637  -1.906   1.094  0.00  0.00    +0.117 A 
ATOM     12  N   UNL     1       0.022  -0.764   1.159  0.00  0.00    -0.256 NA
ATOM     13  H   UNL     1       1.867  -1.003  -4.973  0.00  0.00    +0.169 HD
ENDROOT
BRANCH   8  14
ATOM     14  C   UNL     1       2.453   0.702  -4.031  0.00  0.00    +0.043 A 
ATOM     15  C   UNL     1       1.855   1.931  -3.738  0.00  0.00    +0.026 A 
ATOM     16  C   UNL     1       2.636   3.051  -3.536  0.00  0.00    +0.003 A 
ATOM     17  C   UNL     1       4.012   2.966  -3.620  0.00  0.00    +0.013 A 
ATOM     18  C   UNL     1       4.623   1.745  -3.912  0.00  0.00    +0.038 A 
ATOM     19  C   UNL     1       3.842   0.609  -4.112  0.00  0.00    +0.038 A 
BRANCH  18  20
ATOM     20  C   UNL     1       6.097   1.657  -4.002  0.00  0.00    +0.242 C 
ATOM     21  O   UNL     1       6.627   0.593  -4.256  0.00  0.00    -0.270 OA
ATOM     22  N   UNL     1       6.851   2.756  -3.803  0.00  0.00    -0.325 N 
ATOM     23  H   UNL     1       6.427   3.605  -3.601  0.00  0.00    +0.145 HD
ATOM     24  H   UNL     1       7.817   2.698  -3.863  0.00  0.00    +0.145 HD
ENDBRANCH  18  20
ENDBRANCH   8  14
BRANCH   6  25
ATOM     25  C   UNL     1      -0.502  -2.244  -5.072  0.00  0.00    +0.253 C 
ATOM     26  O   UNL     1      -1.173  -3.241  -5.263  0.00  0.00    -0.270 OA
ATOM     27  N   UNL     1       0.018  -1.572  -6.117  0.00  0.00    -0.278 N 
ATOM     28  H   UNL     1       0.598  -0.809  -5.963  0.00  0.00    +0.155 HD
BRANCH  27  29
ATOM     29  C   UNL     1      -0.277  -1.974  -7.426  0.00  0.00    +0.076 A 
ATOM     30  C   UNL     1      -0.598  -3.297  -7.691  0.00  0.00    +0.027 A 
ATOM     31  C   UNL     1      -0.888  -3.691  -8.984  0.00  0.00    +0.002 A 
ATOM     32  C   UNL     1      -0.860  -2.769 -10.014  0.00  0.00    +0.004 A 
ATOM     33  C   UNL     1      -0.541  -1.449  -9.757  0.00  0.00    +0.047 A 
ATOM     34  C   UNL     1      -0.254  -1.044  -8.464  0.00  0.00    +0.141 A 
BRANCH  34  35
ATOM     35  O   UNL     1       0.054   0.255  -8.209  0.00  0.00    -0.493 OA
ATOM     36  C   UNL     1       0.058   1.152  -9.321  0.00  0.00    +0.277 C 
ENDBRANCH  34  35
ENDBRANCH  27  29
ENDBRANCH   6  25
BRANCH  10  37
ATOM     37  C   UNL     1      -1.714  -3.780  -0.182  0.00  0.00    +0.193 C 
BRANCH  37  38
ATOM     38  O   UNL     1      -1.975  -4.244   1.144  0.00  0.00    -0.390 OA
ATOM     39  H   UNL     1      -2.455  -5.082   1.180  0.00  0.00    +0.210 HD
ENDBRANCH  37  38
ENDBRANCH  10  37
TORSDOF 7
