REMARK  Name = ZINC09109388
REMARK  9 active torsions:
REMARK  status: ('A' for Active; 'I' for Inactive)
REMARK    1  A    between atoms: C_1  and  C_2
REMARK    2  A    between atoms: C_2  and  C_3
REMARK    3  A    between atoms: C_2  and  C_4
REMARK    4  A    between atoms: C_2  and  N_5
REMARK    5  A    between atoms: C_8  and  C_14
REMARK    6  A    between atoms: C_9  and  O_13
REMARK    7  A    between atoms: C_11  and  O_12
REMARK    8  A    between atoms: C_20  and  O_26
REMARK    9  A    between atoms: O_26  and  C_27
REMARK                            x       y       z     vdW  Elec       q    Type
REMARK                         _______ _______ _______ _____ _____    ______ ____
ROOT
ATOM      1  C   UNL     1      -2.166   0.892  -1.192  0.00  0.00    +0.018 C 
ATOM      2  C   UNL     1      -3.066   0.944   0.019  0.00  0.00    +0.011 A 
ATOM      3  C   UNL     1      -2.619   1.257   1.257  0.00  0.00    -0.022 A 
ATOM      4  C   UNL     1      -3.756   1.208   2.148  0.00  0.00    +0.006 A 
ATOM      5  C   UNL     1      -3.897   1.436   3.521  0.00  0.00    +0.056 A 
ATOM      6  C   UNL     1      -5.171   1.293   4.051  0.00  0.00    +0.121 A 
ATOM      7  C   UNL     1      -6.258   0.940   3.260  0.00  0.00    +0.047 A 
ATOM      8  C   UNL     1      -6.136   0.710   1.901  0.00  0.00    +0.030 A 
ATOM      9  C   UNL     1      -4.867   0.847   1.343  0.00  0.00    +0.047 A 
ATOM     10  N   UNL     1      -4.411   0.697   0.063  0.00  0.00    -0.359 N 
ATOM     11  H   UNL     1      -4.958   0.451  -0.700  0.00  0.00    +0.166 HD
ATOM     12  C   UNL     1      -1.178   1.582   1.563  0.00  0.00    +0.018 C 
ATOM     13  C   UNL     1      -0.324   1.112   0.378  0.00  0.00    -0.076 C 
ATOM     14  N   UNL     1      -0.910   1.611  -0.884  0.00  0.00    +0.388 N 
ATOM     15  H   UNL     1      -1.109   2.614  -0.790  0.00  0.00    -0.084 HD
ATOM     16  H   UNL     1      -0.240   1.464  -1.648  0.00  0.00    -0.084 HD
ENDROOT
BRANCH   1  20
ATOM     17  N   UNL     1      -3.757   3.492  -3.385  0.00  0.00    -0.257 N 
ATOM     18  C   UNL     1      -3.148   2.930  -2.320  0.00  0.00    +0.263 A 
ATOM     19  O   UNL     1      -2.863   3.601  -1.341  0.00  0.00    -0.267 OA
ATOM     20  C   UNL     1      -2.846   1.562  -2.358  0.00  0.00    +0.070 A 
ATOM     21  C   UNL     1      -3.181   0.840  -3.490  0.00  0.00    +0.224 A 
ATOM     22  N   UNL     1      -3.789   1.452  -4.512  0.00  0.00    -0.161 NA
ATOM     23  C   UNL     1      -4.069   2.735  -4.469  0.00  0.00    +0.302 A 
BRANCH  17  25
ATOM     24  C   UNL     1      -3.618   5.537  -2.050  0.00  0.00    +0.034 C 
ATOM     25  C   UNL     1      -4.083   4.920  -3.371  0.00  0.00    +0.045 C 
ATOM     26  C   UNL     1      -3.376   5.615  -4.536  0.00  0.00    +0.034 C 
ATOM     27  C   UNL     1      -5.596   5.099  -3.513  0.00  0.00    +0.034 C 
ENDBRANCH  17  25
BRANCH  23  28
ATOM     28  O   UNL     1      -4.678   3.314  -5.524  0.00  0.00    -0.479 OA
ATOM     29  H   UNL     1      -4.884   2.745  -6.278  0.00  0.00    +0.295 HD
ENDBRANCH  23  28
BRANCH  21  30
ATOM     30  O   UNL     1      -2.899  -0.482  -3.561  0.00  0.00    -0.492 OA
ATOM     31  H   UNL     1      -3.171  -0.898  -4.390  0.00  0.00    +0.294 HD
ENDBRANCH  21  30
ENDBRANCH   1  20
BRANCH   6  32
ATOM     32  O   UNL     1      -5.362   1.505   5.380  0.00  0.00    -0.495 OA
ATOM     33  C   UNL     1      -6.692   1.345   5.878  0.00  0.00    +0.277 C 
ENDBRANCH   6  32
TORSDOF 5
