REMARK  Name = ZINC08995548
REMARK  8 active torsions:
REMARK  status: ('A' for Active; 'I' for Inactive)
REMARK    1  A    between atoms: C_1  and  C_2
REMARK    2  A    between atoms: C_16  and  C_18
REMARK    3  A    between atoms: C_18  and  C_20
REMARK    4  A    between atoms: C_18  and  O_21
REMARK    5  A    between atoms: N_24  and  C_27
REMARK    6  A    between atoms: C_27  and  C_28
REMARK    7  A    between atoms: C_28  and  O_29
REMARK    8  A    between atoms: O_29  and  C_30
REMARK                            x       y       z     vdW  Elec       q    Type
REMARK                         _______ _______ _______ _____ _____    ______ ____
ROOT
ATOM      1  C   UNL     1      -2.157   3.454   1.455  0.00  0.00    +0.046 C 
ATOM      2  C   UNL     1      -0.776   2.908   1.199  0.00  0.00    -0.028 A 
ATOM      3  C   UNL     1      -0.571   1.544   1.167  0.00  0.00    +0.025 A 
ATOM      4  C   UNL     1       0.695   1.033   0.938  0.00  0.00    +0.042 A 
ATOM      5  C   UNL     1       1.758   1.896   0.729  0.00  0.00    +0.024 A 
ATOM      6  C   UNL     1       1.556   3.257   0.755  0.00  0.00    -0.026 A 
ATOM      7  C   UNL     1       0.288   3.782   0.991  0.00  0.00    +0.039 A 
ATOM      8  N   UNL     1       0.332   5.178   0.971  0.00  0.00    -0.286 N 
ATOM      9  C   UNL     1       1.573   5.644   0.732  0.00  0.00    +0.211 C 
ATOM     10  O   UNL     1       1.909   6.807   0.660  0.00  0.00    -0.277 OA
ATOM     11  C   UNL     1       2.462   4.441   0.574  0.00  0.00    +0.050 C 
ATOM     12  C   UNL     1       3.645   4.442   1.486  0.00  0.00    +0.088 C 
ATOM     13  C   UNL     1       4.498   3.330   0.752  0.00  0.00    +0.075 C 
ATOM     14  C   UNL     1       4.440   3.819  -0.655  0.00  0.00    -0.028 C 
ATOM     15  C   UNL     1       5.602   3.236   1.710  0.00  0.00    +0.224 C 
ATOM     16  O   UNL     1       6.776   3.054   1.469  0.00  0.00    -0.275 OA
ATOM     17  N   UNL     1       5.027   3.392   2.938  0.00  0.00    -0.240 N 
ATOM     18  C   UNL     1       3.761   3.912   2.858  0.00  0.00    +0.225 C 
ATOM     19  O   UNL     1       2.917   3.931   3.728  0.00  0.00    -0.275 OA
ATOM     20 CL   UNL     1       0.948  -0.684   0.905  0.00  0.00    -0.084 Cl
ATOM     21  H   UNL     1      -0.442   5.746   1.112  0.00  0.00    +0.155 HD
ATOM     22  N   UNL     1       3.080   4.419  -0.776  0.00  0.00    +0.396 N 
ATOM     23  H   UNL     1       3.153   5.376  -1.141  0.00  0.00    -0.083 HD
ATOM     24  H   UNL     1       2.505   3.853  -1.412  0.00  0.00    -0.083 HD
ENDROOT
BRANCH  14  25
ATOM     25  C   UNL     1       5.518   4.877  -0.897  0.00  0.00    +0.098 C 
ATOM     26  C   UNL     1       5.391   5.418  -2.323  0.00  0.00    +0.036 C 
BRANCH  25  27
ATOM     27  O   UNL     1       5.353   5.947   0.035  0.00  0.00    -0.394 OA
ATOM     28  H   UNL     1       4.545   6.461  -0.095  0.00  0.00    +0.210 HD
ENDBRANCH  25  27
ENDBRANCH  14  25
BRANCH  17  29
ATOM     29  C   UNL     1       5.690   3.055   4.200  0.00  0.00    +0.144 C 
BRANCH  29  30
ATOM     30  C   UNL     1       5.378   1.604   4.569  0.00  0.00    +0.179 C 
BRANCH  30  31
ATOM     31  O   UNL     1       5.953   0.731   3.595  0.00  0.00    -0.381 OA
ATOM     32  C   UNL     1       5.719  -0.656   3.848  0.00  0.00    +0.194 C 
ENDBRANCH  30  31
ENDBRANCH  29  30
ENDBRANCH  17  29
TORSDOF 5
