REMARK  Name = ZINC06697227
REMARK  4 active torsions:
REMARK  status: ('A' for Active; 'I' for Inactive)
REMARK    1  A    between atoms: C_4  and  C_24
REMARK    2  A    between atoms: C_6  and  N_7
REMARK    3  A    between atoms: C_8  and  C_10
REMARK    4  A    between atoms: C_10  and  C_11
REMARK                            x       y       z     vdW  Elec       q    Type
REMARK                         _______ _______ _______ _____ _____    ______ ____
ROOT
ATOM      1  N   UNL     1      -2.622  -1.892  -3.885  0.00  0.00    -0.286 N 
ATOM      2  C   UNL     1      -1.718  -0.893  -3.844  0.00  0.00    +0.216 C 
ATOM      3  O   UNL     1      -0.538  -1.137  -3.987  0.00  0.00    -0.276 OA
ATOM      4  H   UNL     1      -3.557  -1.708  -3.704  0.00  0.00    +0.155 HD
ENDROOT
BRANCH   1  10
ATOM      5  C   UNL     1      -0.974  -3.653  -3.759  0.00  0.00    +0.025 A 
ATOM      6  C   UNL     1      -0.572  -4.940  -4.060  0.00  0.00    +0.022 A 
ATOM      7  C   UNL     1      -1.401  -5.772  -4.792  0.00  0.00    +0.053 A 
ATOM      8  C   UNL     1      -2.635  -5.317  -5.224  0.00  0.00    +0.075 A 
ATOM      9  C   UNL     1      -3.044  -4.034  -4.920  0.00  0.00    +0.037 A 
ATOM     10  C   UNL     1      -2.212  -3.195  -4.190  0.00  0.00    +0.034 A 
ATOM     11 CL   UNL     1      -0.893  -7.388  -5.169  0.00  0.00    -0.083 Cl
BRANCH   8  12
ATOM     12  C   UNL     1      -3.535  -6.225  -6.021  0.00  0.00    +0.419 C 
ATOM     13  F   UNL     1      -4.717  -5.548  -6.340  0.00  0.00    -0.166 F 
ATOM     14  F   UNL     1      -2.885  -6.610  -7.198  0.00  0.00    -0.166 F 
ATOM     15  F   UNL     1      -3.840  -7.362  -5.264  0.00  0.00    -0.166 F 
ENDBRANCH   8  12
ENDBRANCH   1  10
BRANCH   2  16
ATOM     16  C   UNL     1      -2.172   0.526  -3.619  0.00  0.00    +0.089 C 
BRANCH  16  17
ATOM     17  C   UNL     1      -0.958   1.456  -3.615  0.00  0.00    +0.025 C 
ATOM     18  C   UNL     1      -1.426   2.881  -3.542  0.00  0.00    +0.200 C 
ATOM     19  O   UNL     1      -1.894   3.386  -4.540  0.00  0.00    -0.278 OA
ATOM     20  N   UNL     1      -1.353   3.621  -2.427  0.00  0.00    -0.315 N 
ATOM     21  C   UNL     1      -0.738   3.115  -1.209  0.00  0.00    +0.059 C 
ATOM     22  C   UNL     1      -1.479   3.606   0.033  0.00  0.00    +0.020 C 
ATOM     23  C   UNL     1      -0.751   3.091   1.279  0.00  0.00    +0.002 C 
ATOM     24  C   UNL     1      -0.704   1.563   1.266  0.00  0.00    -0.001 C 
ATOM     25  C   UNL     1       0.010   1.072   0.003  0.00  0.00    -0.014 C 
ATOM     26  C   UNL     1      -0.742   1.585  -1.223  0.00  0.00    -0.050 C 
ATOM     27  H   UNL     1      -1.716   4.520  -2.435  0.00  0.00    +0.149 HD
ATOM     28  N   UNL     1      -0.100   1.130  -2.464  0.00  0.00    +0.390 N 
ATOM     29  H   UNL     1       0.807   1.600  -2.571  0.00  0.00    -0.084 HD
ATOM     30  H   UNL     1       0.044   0.114  -2.422  0.00  0.00    -0.084 HD
ENDBRANCH  16  17
ENDBRANCH   2  16
TORSDOF 4
