REMARK  Name = ZINC35098845
REMARK  13 active torsions:
REMARK  status: ('A' for Active; 'I' for Inactive)
REMARK    1  A    between atoms: C_1  and  C_2
REMARK    2  A    between atoms: C_2  and  C_3
REMARK    3  A    between atoms: C_3  and  C_5
REMARK    4  A    between atoms: C_3  and  C_6
REMARK    5  A    between atoms: C_6  and  C_8
REMARK    6  A    between atoms: C_6  and  N_27
REMARK    7  A    between atoms: C_14  and  C_17
REMARK    8  A    between atoms: N_20  and  C_21
REMARK    9  A    between atoms: N_27  and  S_28
REMARK   10  A    between atoms: S_28  and  C_31
REMARK   11  A    between atoms: C_32  and  C_39
REMARK   12  A    between atoms: C_34  and  C_38
REMARK   13  A    between atoms: C_36  and  C_37
REMARK                            x       y       z     vdW  Elec       q    Type
REMARK                         _______ _______ _______ _____ _____    ______ ____
ROOT
ATOM      1  C   UNL     1      -0.757  -0.410  -1.332  0.00  0.00    +0.165 C 
ENDROOT
BRANCH   1   2
ATOM      2  C   UNL     1       0.030   0.408  -2.323  0.00  0.00    +0.235 C 
ATOM      3  O   UNL     1      -0.520   1.278  -2.964  0.00  0.00    -0.274 OA
ATOM      4  N   UNL     1       1.346   0.174  -2.496  0.00  0.00    -0.297 N 
ATOM      5  C   UNL     1       2.008  -0.933  -1.791  0.00  0.00    +0.127 C 
ATOM      6  C   UNL     1       3.198  -0.372  -1.004  0.00  0.00    +0.128 C 
ATOM      7  N   UNL     1       3.997   0.475  -1.901  0.00  0.00    -0.280 N 
ATOM      8  C   UNL     1       3.336   1.582  -2.605  0.00  0.00    +0.092 C 
ATOM      9  C   UNL     1       2.144   1.017  -3.397  0.00  0.00    +0.130 C 
ATOM     10  C   UNL     1       2.842   2.615  -1.590  0.00  0.00    +0.030 C 
ATOM     11  C   UNL     1       5.313   0.241  -2.074  0.00  0.00    +0.303 C 
ATOM     12  O   UNL     1       5.984   1.006  -2.738  0.00  0.00    -0.253 OA
ATOM     13  N   UNL     1       5.884  -0.842  -1.510  0.00  0.00    -0.296 N 
ATOM     14  H   UNL     1       5.336  -1.493  -1.045  0.00  0.00    +0.151 HD
BRANCH  13  15
ATOM     15  C   UNL     1       7.334  -1.036  -1.600  0.00  0.00    +0.074 C 
ATOM     16  C   UNL     1       7.675  -1.726  -2.922  0.00  0.00    +0.022 C 
ATOM     17  C   UNL     1       9.189  -1.928  -3.015  0.00  0.00    +0.002 C 
ATOM     18  C   UNL     1       9.660  -2.799  -1.849  0.00  0.00    +0.000 C 
ATOM     19  C   UNL     1       9.319  -2.108  -0.527  0.00  0.00    +0.002 C 
ATOM     20  C   UNL     1       7.805  -1.906  -0.433  0.00  0.00    +0.022 C 
ENDBRANCH  13  15
ENDBRANCH   1   2
BRANCH   1  21
ATOM     21  C   UNL     1      -0.480   0.099   0.084  0.00  0.00    +0.013 C 
ATOM     22  C   UNL     1      -1.019   1.524   0.229  0.00  0.00    +0.009 C 
BRANCH  21  24
ATOM     23  C   UNL     1      -0.520  -2.197   1.068  0.00  0.00    +0.004 C 
ATOM     24  C   UNL     1      -1.172  -0.813   1.099  0.00  0.00    +0.002 C 
ENDBRANCH  21  24
ENDBRANCH   1  21
BRANCH   1  25
ATOM     25  N   UNL     1      -2.187  -0.287  -1.624  0.00  0.00    -0.178 NA
ATOM     26  H   UNL     1      -2.686   0.475  -1.292  0.00  0.00    +0.149 HD
BRANCH  25  27
ATOM     27  S   UNL     1      -2.952  -1.450  -2.522  0.00  0.00    +0.060 S 
ATOM     28  O   UNL     1      -4.332  -1.112  -2.533  0.00  0.00    -0.153 OA
ATOM     29  O   UNL     1      -2.196  -1.604  -3.715  0.00  0.00    -0.153 OA
BRANCH  27  30
ATOM     30  C   UNL     1      -2.812  -2.967  -1.637  0.00  0.00    +0.111 A 
ATOM     31  C   UNL     1      -3.534  -3.158  -0.473  0.00  0.00    -0.024 A 
ATOM     32  C   UNL     1      -3.424  -4.348   0.221  0.00  0.00    +0.008 A 
ATOM     33  C   UNL     1      -2.592  -5.348  -0.248  0.00  0.00    -0.050 A 
ATOM     34  C   UNL     1      -1.871  -5.157  -1.412  0.00  0.00    +0.008 A 
ATOM     35  C   UNL     1      -1.984  -3.968  -2.108  0.00  0.00    -0.024 A 
ATOM     36  C   UNL     1      -1.201  -3.763  -3.380  0.00  0.00    +0.046 C 
ATOM     37  C   UNL     1      -2.472  -6.645   0.509  0.00  0.00    +0.044 C 
ATOM     38  C   UNL     1      -4.441  -2.068   0.038  0.00  0.00    +0.046 C 
ENDBRANCH  27  30
ENDBRANCH  25  27
ENDBRANCH   1  25
TORSDOF 7
