REMARK  Name = ZINC34829687
REMARK  12 active torsions:
REMARK  status: ('A' for Active; 'I' for Inactive)
REMARK    1  A    between atoms: C_1  and  C_2
REMARK    2  A    between atoms: C_2  and  C_3
REMARK    3  A    between atoms: C_3  and  C_4
REMARK    4  A    between atoms: C_4  and  C_5
REMARK    5  A    between atoms: C_5  and  C_6
REMARK    6  A    between atoms: C_6  and  C_7
REMARK    7  A    between atoms: C_14  and  C_16
REMARK    8  A    between atoms: C_17  and  C_19
REMARK    9  A    between atoms: C_19  and  N_20
REMARK   10  A    between atoms: C_28  and  C_30
REMARK   11  A    between atoms: C_33  and  O_36
REMARK   12  A    between atoms: O_36  and  C_37
REMARK                            x       y       z     vdW  Elec       q    Type
REMARK                         _______ _______ _______ _____ _____    ______ ____
ROOT
ATOM      1  C   UNL     1       3.194 -10.576  -3.040  0.00  0.00    +0.020 C 
ENDROOT
BRANCH   1  11
ATOM      2  C   UNL     1       2.181  -4.537  -3.772  0.00  0.00    +0.216 C 
ATOM      3  O   UNL     1       2.624  -3.738  -4.571  0.00  0.00    -0.276 OA
ATOM      4  N   UNL     1       2.320  -5.859  -3.994  0.00  0.00    -0.296 N 
ATOM      5  C   UNL     1       1.784  -6.838  -3.038  0.00  0.00    +0.127 C 
ATOM      6  C   UNL     1       2.920  -7.773  -2.605  0.00  0.00    +0.126 C 
ATOM      7  N   UNL     1       3.610  -8.261  -3.807  0.00  0.00    -0.300 N 
ATOM      8  C   UNL     1       4.146  -7.282  -4.763  0.00  0.00    +0.130 C 
ATOM      9  C   UNL     1       3.006  -6.347  -5.199  0.00  0.00    +0.090 C 
ATOM     10  C   UNL     1       2.016  -7.114  -6.078  0.00  0.00    +0.029 C 
ATOM     11  C   UNL     1       3.749  -9.584  -4.029  0.00  0.00    +0.199 C 
ATOM     12  O   UNL     1       4.321  -9.975  -5.024  0.00  0.00    -0.278 OA
BRANCH   2  13
ATOM     13  C   UNL     1       1.476  -4.051  -2.532  0.00  0.00    +0.096 C 
BRANCH  13  14
ATOM     14  C   UNL     1       1.455  -2.521  -2.524  0.00  0.00    +0.009 C 
BRANCH  14  15
ATOM     15  C   UNL     1       0.739  -2.027  -1.265  0.00  0.00    +0.000 C 
BRANCH  15  16
ATOM     16  C   UNL     1       0.718  -0.497  -1.257  0.00  0.00    -0.000 C 
BRANCH  16  18
ATOM     17  C   UNL     1      -0.019   1.526   0.010  0.00  0.00    +0.004 C 
ATOM     18  C   UNL     1       0.002  -0.004   0.002  0.00  0.00    -0.003 C 
ENDBRANCH  16  18
ENDBRANCH  15  16
ENDBRANCH  14  15
ENDBRANCH  13  14
ENDBRANCH   2  13
ENDBRANCH   1  11
BRANCH   1  19
ATOM     19  N   UNL     1       3.473 -11.941  -3.506  0.00  0.00    +0.393 N 
ATOM     20  C   UNL     1       4.926 -12.152  -3.541  0.00  0.00    -0.072 C 
ATOM     21  C   UNL     1       5.224 -13.437  -4.332  0.00  0.00    +0.024 C 
ATOM     22  C   UNL     1       4.304 -14.500  -3.825  0.00  0.00    -0.010 A 
ATOM     23  C   UNL     1       3.208 -14.313  -3.037  0.00  0.00    -0.047 A 
ATOM     24  C   UNL     1       2.498 -15.456  -2.679  0.00  0.00    +0.010 A 
ATOM     25  C   UNL     1       2.905 -16.671  -3.116  0.00  0.00    +0.045 A 
ATOM     26  S   UNL     1       4.351 -16.251  -4.079  0.00  0.00    -0.101 S 
ATOM     27  C   UNL     1       2.828 -12.901  -2.603  0.00  0.00    -0.005 C 
ATOM     28  H   UNL     1       3.099 -12.056  -4.436  0.00  0.00    -0.080 HD
BRANCH  27  29
ATOM     29  C   UNL     1       1.332 -12.736  -2.675  0.00  0.00    -0.056 A 
ATOM     30  C   UNL     1       0.720 -12.509  -3.895  0.00  0.00    +0.006 A 
ATOM     31  C   UNL     1      -0.651 -12.357  -3.964  0.00  0.00    +0.046 A 
ATOM     32  C   UNL     1      -1.415 -12.432  -2.808  0.00  0.00    +0.120 A 
ATOM     33  C   UNL     1      -0.799 -12.660  -1.586  0.00  0.00    +0.046 A 
ATOM     34  C   UNL     1       0.572 -12.817  -1.523  0.00  0.00    +0.006 A 
BRANCH  32  35
ATOM     35  O   UNL     1      -2.764 -12.283  -2.873  0.00  0.00    -0.495 OA
ATOM     36  C   UNL     1      -3.487 -12.372  -1.643  0.00  0.00    +0.277 C 
ENDBRANCH  32  35
ENDBRANCH  27  29
ENDBRANCH   1  19
TORSDOF 9
