REMARK  Name = ZINC63351393
REMARK  4 active torsions:
REMARK  status: ('A' for Active; 'I' for Inactive)
REMARK    1  A    between atoms: C_1  and  C_2
REMARK    2  A    between atoms: N_18  and  C_21
REMARK    3  A    between atoms: C_26  and  C_27
REMARK    4  A    between atoms: N_29  and  N_30
REMARK                            x       y       z     vdW  Elec       q    Type
REMARK                         _______ _______ _______ _____ _____    ______ ____
ROOT
ATOM      1  C   UNL     1      -0.019   1.526   0.010  0.00  0.00    +0.044 C 
ATOM      2  C   UNL     1       0.002  -0.004   0.002  0.00  0.00    +0.137 C 
ATOM      3  C   UNL     1       0.726  -0.558  -1.231  0.00  0.00    +0.139 C 
ATOM      4  C   UNL     1       2.217  -0.373  -0.975  0.00  0.00    -0.034 C 
ATOM      5  C   UNL     1       2.681   0.357  -1.985  0.00  0.00    -0.001 A 
ATOM      6  C   UNL     1       4.042   0.807  -2.320  0.00  0.00    +0.010 A 
ATOM      7  C   UNL     1       4.163   1.563  -3.443  0.00  0.00    +0.001 A 
ATOM      8  C   UNL     1       3.080   1.913  -4.255  0.00  0.00    +0.002 A 
ATOM      9  C   UNL     1       1.796   1.539  -4.025  0.00  0.00    +0.026 A 
ATOM     10  C   UNL     1       1.542   0.737  -2.874  0.00  0.00    +0.043 A 
ATOM     11  N   UNL     1       0.418   0.228  -2.429  0.00  0.00    -0.375 N 
ATOM     12  C   UNL     1       2.917  -0.898   0.254  0.00  0.00    +0.052 C 
ATOM     13  C   UNL     1       2.121  -0.403   1.478  0.00  0.00    +0.115 C 
ATOM     14  N   UNL     1       0.693  -0.557   1.189  0.00  0.00    -0.268 N 
ATOM     15  C   UNL     1      -0.229  -1.219   1.899  0.00  0.00    +0.317 C 
ATOM     16  O   UNL     1      -0.016  -1.721   2.985  0.00  0.00    -0.252 OA
ATOM     17  N   UNL     1      -1.414  -1.265   1.276  0.00  0.00    -0.192 N 
ATOM     18  C   UNL     1      -1.390  -0.589   0.109  0.00  0.00    +0.253 C 
ATOM     19  O   UNL     1      -2.295  -0.473  -0.689  0.00  0.00    -0.272 OA
ATOM     20  H   UNL     1      -0.463   0.348  -2.817  0.00  0.00    +0.160 HD
ENDROOT
BRANCH  17  21
ATOM     21  C   UNL     1      -2.537  -1.931   1.772  0.00  0.00    +0.058 A 
ATOM     22  C   UNL     1      -3.440  -1.263   2.587  0.00  0.00    +0.025 A 
ATOM     23  C   UNL     1      -4.549  -1.923   3.077  0.00  0.00    +0.002 A 
ATOM     24  C   UNL     1      -4.769  -3.254   2.761  0.00  0.00    +0.001 A 
ATOM     25  C   UNL     1      -3.882  -3.933   1.953  0.00  0.00    +0.015 A 
ATOM     26  C   UNL     1      -2.759  -3.276   1.446  0.00  0.00    +0.060 A 
BRANCH  26  27
ATOM     27  C   UNL     1      -1.809  -3.996   0.576  0.00  0.00    +0.259 C 
ATOM     28  O   UNL     1      -0.829  -3.422   0.140  0.00  0.00    -0.269 OA
ATOM     29  N   UNL     1      -2.026  -5.289   0.265  0.00  0.00    -0.250 N 
ATOM     30  H   UNL     1      -2.808  -5.747   0.612  0.00  0.00    +0.169 HD
BRANCH  29  31
ATOM     31  N   UNL     1      -1.147  -5.955  -0.541  0.00  0.00    -0.254 NA
ATOM     32  H   UNL     1      -1.440  -6.910  -0.685  0.00  0.00    +0.140 HD
ATOM     33  H   UNL     1      -1.029  -5.476  -1.421  0.00  0.00    +0.140 HD
ENDBRANCH  29  31
ENDBRANCH  26  27
ENDBRANCH  17  21
TORSDOF 3
