REMARK  Name = ZINC47872191
REMARK  11 active torsions:
REMARK  status: ('A' for Active; 'I' for Inactive)
REMARK    1  A    between atoms: C_1  and  C_2
REMARK    2  A    between atoms: C_7  and  N_12
REMARK    3  A    between atoms: C_9  and  C_11
REMARK    4  A    between atoms: N_12  and  C_13
REMARK    5  A    between atoms: C_13  and  N_15
REMARK    6  A    between atoms: N_15  and  N_16
REMARK    7  A    between atoms: C_17  and  C_19
REMARK    8  A    between atoms: C_19  and  C_21
REMARK    9  A    between atoms: C_19  and  N_24
REMARK   10  A    between atoms: C_21  and  C_22
REMARK   11  A    between atoms: C_21  and  C_23
REMARK                            x       y       z     vdW  Elec       q    Type
REMARK                         _______ _______ _______ _____ _____    ______ ____
ROOT
ATOM      1  N   UNL     1       2.886  -3.304   4.619  0.00  0.00    -0.234 N 
ATOM      2  C   UNL     1       3.472  -3.773   5.738  0.00  0.00    +0.250 C 
ATOM      3  O   UNL     1       3.891  -4.911   5.772  0.00  0.00    -0.272 OA
ATOM      4  H   UNL     1       2.485  -2.421   4.615  0.00  0.00    +0.173 HD
ENDROOT
BRANCH   1   5
ATOM      5  N   UNL     1       2.855  -4.092   3.461  0.00  0.00    -0.246 N 
ATOM      6  H   UNL     1       3.256  -4.976   3.465  0.00  0.00    +0.172 HD
BRANCH   5   7
ATOM      7  C   UNL     1       2.269  -3.623   2.342  0.00  0.00    +0.147 C 
ATOM      8  S   UNL     1       2.232  -4.586   0.927  0.00  0.00    -0.017 S 
BRANCH   7   9
ATOM      9  N   UNL     1       1.712  -2.396   2.336  0.00  0.00    -0.322 N 
ATOM     10  H   UNL     1       1.734  -1.850   3.138  0.00  0.00    +0.148 HD
BRANCH   9  16
ATOM     11  C   UNL     1       0.439   1.707  -0.112  0.00  0.00    +0.008 C 
ATOM     12  C   UNL     1       0.425   0.177  -0.132  0.00  0.00    -0.009 C 
ATOM     13  C   UNL     1      -1.021  -0.319  -0.196  0.00  0.00    +0.003 C 
ATOM     14  C   UNL     1      -1.036  -1.849  -0.216  0.00  0.00    +0.002 C 
ATOM     15  C   UNL     1      -0.370  -2.381   1.055  0.00  0.00    +0.022 C 
ATOM     16  C   UNL     1       1.075  -1.886   1.119  0.00  0.00    +0.075 C 
ATOM     17  C   UNL     1       1.090  -0.356   1.139  0.00  0.00    +0.009 C 
ATOM     18  C   UNL     1       0.323   0.146   2.365  0.00  0.00    +0.009 C 
ENDBRANCH   9  16
ENDBRANCH   7   9
ENDBRANCH   5   7
ENDBRANCH   1   5
BRANCH   2  19
ATOM     19  C   UNL     1       3.606  -2.884   6.948  0.00  0.00    +0.164 C 
BRANCH  19  20
ATOM     20  N   UNL     1       4.788  -3.282   7.717  0.00  0.00    -0.288 N 
ATOM     21  C   UNL     1       5.406  -2.388   8.514  0.00  0.00    +0.298 C 
ATOM     22  O   UNL     1       4.983  -1.250   8.594  0.00  0.00    -0.253 OA
ATOM     23  N   UNL     1       6.493  -2.753   9.221  0.00  0.00    -0.313 N 
ATOM     24  H   UNL     1       5.125  -4.189   7.653  0.00  0.00    +0.151 HD
ATOM     25  H   UNL     1       6.830  -3.660   9.158  0.00  0.00    +0.146 HD
ATOM     26  H   UNL     1       6.937  -2.110   9.795  0.00  0.00    +0.146 HD
ENDBRANCH  19  20
BRANCH  19  27
ATOM     27  C   UNL     1       2.358  -3.021   7.822  0.00  0.00    +0.012 C 
ATOM     28  C   UNL     1       2.450  -2.047   8.998  0.00  0.00    +0.009 C 
ATOM     29  C   UNL     1       1.115  -2.700   6.990  0.00  0.00    +0.009 C 
ENDBRANCH  19  27
ENDBRANCH   2  19
TORSDOF 7
