REMARK  Name = ZINC63641762
REMARK  4 active torsions:
REMARK  status: ('A' for Active; 'I' for Inactive)
REMARK    1  A    between atoms: C_8  and  C_16
REMARK    2  A    between atoms: C_18  and  O_30
REMARK    3  A    between atoms: C_21  and  S_29
REMARK    4  A    between atoms: N_23  and  C_26
REMARK                            x       y       z     vdW  Elec       q    Type
REMARK                         _______ _______ _______ _____ _____    ______ ____
ROOT
ATOM      1  C   UNL     1      -0.790   0.034  -0.972  0.00  0.00    +0.001 A 
ATOM      2  C   UNL     1       0.247   0.975  -1.035  0.00  0.00    +0.002 A 
ATOM      3  C   UNL     1       1.547   0.635  -0.901  0.00  0.00    +0.026 A 
ATOM      4  C   UNL     1       1.920  -0.719  -0.686  0.00  0.00    +0.043 A 
ATOM      5  N   UNL     1       3.093  -1.284  -0.505  0.00  0.00    -0.376 N 
ATOM      6  C   UNL     1       2.902  -2.728  -0.424  0.00  0.00    +0.124 C 
ATOM      7  C   UNL     1       3.471  -3.326   0.866  0.00  0.00    +0.096 C 
ATOM      8  N   UNL     1       2.979  -4.707   0.992  0.00  0.00    -0.310 NA
ATOM      9  C   UNL     1       1.532  -4.789   1.211  0.00  0.00    +0.085 C 
ATOM     10  C   UNL     1       0.781  -4.267  -0.028  0.00  0.00    +0.048 C 
ATOM     11  C   UNL     1       1.396  -2.933  -0.388  0.00  0.00    -0.036 C 
ATOM     12  C   UNL     1       0.841  -1.735  -0.607  0.00  0.00    -0.001 A 
ATOM     13  C   UNL     1      -0.547  -1.280  -0.768  0.00  0.00    +0.010 A 
ATOM     14  H   UNL     1       3.257  -5.263   0.197  0.00  0.00    +0.122 HD
ATOM     15  H   UNL     1       3.941  -0.819  -0.436  0.00  0.00    +0.160 HD
ENDROOT
BRANCH   7  16
ATOM     16  C   UNL     1       4.999  -3.325   0.805  0.00  0.00    +0.138 C 
ATOM     17  C   UNL     1       5.459  -4.005  -0.488  0.00  0.00    +0.198 C 
ATOM     18  N   UNL     1       6.909  -4.246  -0.397  0.00  0.00    -0.264 NA
ATOM     19  C   UNL     1       7.196  -5.275   0.609  0.00  0.00    +0.203 C 
ATOM     20  N   UNL     1       6.559  -4.944   1.879  0.00  0.00    -0.274 N 
ATOM     21  C   UNL     1       5.549  -4.074   1.988  0.00  0.00    +0.226 C 
ATOM     22  O   UNL     1       5.059  -3.882   3.081  0.00  0.00    -0.275 OA
ATOM     23  H   UNL     1       7.290  -4.502  -1.296  0.00  0.00    +0.127 HD
BRANCH  20  24
ATOM     24  C   UNL     1       7.051  -5.596   3.095  0.00  0.00    +0.078 C 
ATOM     25  C   UNL     1       8.250  -6.536   2.957  0.00  0.00    +0.024 C 
ATOM     26  C   UNL     1       6.855  -7.109   3.214  0.00  0.00    +0.024 C 
ENDBRANCH  20  24
BRANCH  19  27
ATOM     27  S   UNL     1       6.567  -6.874   0.025  0.00  0.00    -0.140 S 
ATOM     28  H   UNL     1       7.233  -7.085  -1.124  0.00  0.00    +0.105 HD
ENDBRANCH  19  27
BRANCH  17  29
ATOM     29  O   UNL     1       4.771  -5.247  -0.648  0.00  0.00    -0.377 OA
ATOM     30  H   UNL     1       5.015  -5.732  -1.448  0.00  0.00    +0.211 HD
ENDBRANCH  17  29
ENDBRANCH   7  16
TORSDOF 4
