REMARK  Name = ZINC16481606
REMARK  6 active torsions:
REMARK  status: ('A' for Active; 'I' for Inactive)
REMARK    1  A    between atoms: C_4  and  O_29
REMARK    2  A    between atoms: C_5  and  N_7
REMARK    3  A    between atoms: N_10  and  C_13
REMARK    4  A    between atoms: C_13  and  C_14
REMARK    5  A    between atoms: N_16  and  C_17
REMARK    6  A    between atoms: C_18  and  C_26
REMARK                            x       y       z     vdW  Elec       q    Type
REMARK                         _______ _______ _______ _____ _____    ______ ____
ROOT
ATOM      1  C   UNL     1       2.926  -6.713  -1.178  0.00  0.00    +0.232 C 
ATOM      2  O   UNL     1       1.976  -6.498  -1.901  0.00  0.00    -0.274 OA
ATOM      3  N   UNL     1       3.695  -7.800  -1.383  0.00  0.00    -0.278 N 
ATOM      4  H   UNL     1       4.456  -7.972  -0.805  0.00  0.00    +0.155 HD
ENDROOT
BRANCH   3   5
ATOM      5  C   UNL     1       3.400  -8.673  -2.419  0.00  0.00    +0.084 A 
ATOM      6  C   UNL     1       4.071  -9.834  -2.772  0.00  0.00    +0.068 A 
ATOM      7  C   UNL     1       3.557 -10.578  -3.909  0.00  0.00    -0.023 A 
ATOM      8  C   UNL     1       2.467 -10.025  -4.484  0.00  0.00    -0.004 A 
ATOM      9  S   UNL     1       2.145  -8.571  -3.529  0.00  0.00    -0.077 S 
ATOM     10  C   UNL     1       1.710 -10.548  -5.665  0.00  0.00    +0.043 C 
ATOM     11  C   UNL     1       2.578 -11.605  -6.364  0.00  0.00    +0.005 C 
ATOM     12  C   UNL     1       3.120 -12.576  -5.311  0.00  0.00    +0.005 C 
ATOM     13  C   UNL     1       4.160 -11.871  -4.438  0.00  0.00    +0.037 C 
BRANCH   6  14
ATOM     14  C   UNL     1       5.250 -10.291  -2.030  0.00  0.00    +0.244 C 
ATOM     15  O   UNL     1       5.118 -11.036  -1.077  0.00  0.00    -0.270 OA
ATOM     16  N   UNL     1       6.480  -9.885  -2.403  0.00  0.00    -0.325 N 
ATOM     17  H   UNL     1       6.585  -9.291  -3.163  0.00  0.00    +0.145 HD
ATOM     18  H   UNL     1       7.260 -10.188  -1.912  0.00  0.00    +0.145 HD
ENDBRANCH   6  14
ENDBRANCH   3   5
BRANCH   1  19
ATOM     19  C   UNL     1       3.247  -5.763  -0.053  0.00  0.00    +0.181 C 
BRANCH  19  23
ATOM     20  N   UNL     1       1.235  -2.080  -0.021  0.00  0.00    -0.325 N 
ATOM     21  C   UNL     1       1.252  -2.842   1.236  0.00  0.00    +0.120 C 
ATOM     22  C   UNL     1       2.400  -3.856   1.175  0.00  0.00    +0.104 C 
ATOM     23  N   UNL     1       2.268  -4.668  -0.041  0.00  0.00    -0.291 NA
ATOM     24  C   UNL     1       2.388  -3.842  -1.250  0.00  0.00    +0.104 C 
ATOM     25  C   UNL     1       1.234  -2.828  -1.288  0.00  0.00    +0.120 C 
BRANCH  20  30
ATOM     26  C   UNL     1      -0.017   1.378   0.010  0.00  0.00    +0.002 A 
ATOM     27  C   UNL     1       1.169   2.089   0.002  0.00  0.00    +0.004 A 
ATOM     28  C   UNL     1       2.380   1.421  -0.013  0.00  0.00    +0.047 A 
ATOM     29  C   UNL     1       2.407   0.036  -0.021  0.00  0.00    +0.138 A 
ATOM     30  C   UNL     1       1.213  -0.681  -0.013  0.00  0.00    +0.072 A 
ATOM     31  C   UNL     1       0.002  -0.004   0.002  0.00  0.00    +0.027 A 
BRANCH  29  32
ATOM     32  O   UNL     1       3.598  -0.622  -0.036  0.00  0.00    -0.505 OA
ATOM     33  H   UNL     1       3.950  -0.817   0.843  0.00  0.00    +0.292 HD
ENDBRANCH  29  32
ENDBRANCH  20  30
ENDBRANCH  19  23
ENDBRANCH   1  19
TORSDOF 6
