REMARK  Name = ZINC04851035
REMARK  7 active torsions:
REMARK  status: ('A' for Active; 'I' for Inactive)
REMARK    1  A    between atoms: C_1  and  C_2
REMARK    2  A    between atoms: N_8  and  C_9
REMARK    3  A    between atoms: C_9  and  C_10
REMARK    4  A    between atoms: C_10  and  O_11
REMARK    5  A    between atoms: C_12  and  C_20
REMARK    6  A    between atoms: C_14  and  C_18
REMARK    7  A    between atoms: C_15  and  N_17
REMARK                            x       y       z     vdW  Elec       q    Type
REMARK                         _______ _______ _______ _____ _____    ______ ____
ROOT
ATOM      1  C   UNL     1       2.457   1.026  -0.017  0.00  0.00    +0.064 C 
ATOM      2  C   UNL     1       1.146   1.769   0.001  0.00  0.00    +0.023 A 
ATOM      3  C   UNL     1      -0.013   1.076   0.008  0.00  0.00    +0.068 A 
ATOM      4  C   UNL     1      -1.242   1.767   0.018  0.00  0.00    +0.141 A 
ATOM      5  C   UNL     1      -1.233   3.146   0.032  0.00  0.00    +0.072 A 
ATOM      6  C   UNL     1      -0.007   3.822   0.024  0.00  0.00    +0.259 A 
ATOM      7  O   UNL     1       0.017   5.043   0.031  0.00  0.00    -0.267 OA
ATOM      8  N   UNL     1       1.147   3.128   0.008  0.00  0.00    -0.310 N 
ATOM      9  C   UNL     1      -2.521   3.922   0.050  0.00  0.00    +0.104 C 
ATOM     10  C   UNL     1      -3.667   3.033  -0.344  0.00  0.00    +0.098 C 
ATOM     11  C   UNL     1      -3.546   1.684  -0.331  0.00  0.00    +0.199 C 
ATOM     12  O   UNL     1      -2.402   1.077   0.029  0.00  0.00    -0.441 OA
ENDROOT
BRANCH   9  13
ATOM     13  C   UNL     1      -2.760   4.462   1.437  0.00  0.00    -0.021 A 
ATOM     14  C   UNL     1      -2.877   3.593   2.505  0.00  0.00    +0.005 A 
ATOM     15  C   UNL     1      -3.096   4.087   3.777  0.00  0.00    +0.000 A 
ATOM     16  C   UNL     1      -3.197   5.451   3.982  0.00  0.00    +0.001 A 
ATOM     17  C   UNL     1      -3.079   6.320   2.914  0.00  0.00    +0.015 A 
ATOM     18  C   UNL     1      -2.856   5.826   1.641  0.00  0.00    +0.022 A 
ATOM     19 BR   UNL     1      -2.688   7.015   0.181  0.00  0.00    -0.050 Br
ENDBRANCH   9  13
BRANCH  11  20
ATOM     20  N   UNL     1      -4.622   0.915  -0.698  0.00  0.00    -0.328 N 
ATOM     21  H   UNL     1      -5.454   1.339  -0.961  0.00  0.00    +0.145 HD
ATOM     22  H   UNL     1      -4.551  -0.052  -0.695  0.00  0.00    +0.145 HD
ENDBRANCH  11  20
BRANCH  10  23
ATOM     23  C   UNL     1      -4.911   3.623  -0.738  0.00  0.00    +0.101 C 
ATOM     24  N   UNL     1      -5.898   4.091  -1.051  0.00  0.00    -0.191 NA
ENDBRANCH  10  23
BRANCH   8  25
ATOM     25  C   UNL     1       2.422   3.849  -0.000  0.00  0.00    +0.153 C 
BRANCH  25  26
ATOM     26  C   UNL     1       2.852   4.107  -1.446  0.00  0.00    +0.177 C 
BRANCH  26  27
ATOM     27  O   UNL     1       1.916   4.988  -2.071  0.00  0.00    -0.393 OA
ATOM     28  H   UNL     1       2.126   5.197  -2.991  0.00  0.00    +0.209 HD
ENDBRANCH  26  27
ENDBRANCH  25  26
ENDBRANCH   8  25
TORSDOF 6
