REMARK  Name = ZINC25217790
REMARK  9 active torsions:
REMARK  status: ('A' for Active; 'I' for Inactive)
REMARK    1  A    between atoms: C_1  and  C_2
REMARK    2  A    between atoms: C_2  and  C_4
REMARK    3  A    between atoms: C_2  and  O_32
REMARK    4  A    between atoms: C_4  and  N_5
REMARK    5  A    between atoms: N_14  and  C_15
REMARK    6  A    between atoms: C_15  and  C_16
REMARK    7  A    between atoms: N_18  and  C_19
REMARK    8  A    between atoms: C_19  and  C_21
REMARK    9  A    between atoms: C_19  and  C_22
REMARK                            x       y       z     vdW  Elec       q    Type
REMARK                         _______ _______ _______ _____ _____    ______ ____
ROOT
ATOM      1  N   UNL     1       1.560   3.145   0.004  0.00  0.00    -0.314 N 
ATOM      2  C   UNL     1       1.211   1.811   0.000  0.00  0.00    +0.175 A 
ATOM      3  N   UNL     1      -0.016   1.355   0.009  0.00  0.00    -0.327 N 
ATOM      4  C   UNL     1       0.002  -0.004   0.002  0.00  0.00    +0.065 A 
ATOM      5  C   UNL     1      -1.000  -0.978   0.007  0.00  0.00    +0.028 A 
ATOM      6  C   UNL     1      -0.658  -2.311  -0.003  0.00  0.00    +0.002 A 
ATOM      7  C   UNL     1       0.675  -2.696  -0.018  0.00  0.00    +0.002 A 
ATOM      8  C   UNL     1       1.676  -1.747  -0.023  0.00  0.00    +0.028 A 
ATOM      9  C   UNL     1       1.350  -0.399  -0.013  0.00  0.00    +0.068 A 
ATOM     10  N   UNL     1       2.094   0.770  -0.014  0.00  0.00    -0.305 N 
ATOM     11  H   UNL     1       2.621   3.436  -0.005  0.00  0.00    +0.149 HD
ATOM     12  H   UNL     1      -0.864   2.056   0.021  0.00  0.00    +0.169 HD
ENDROOT
BRANCH   1  13
ATOM     13  C   UNL     1       0.518   4.175   0.019  0.00  0.00    +0.135 C 
BRANCH  13  15
ATOM     14  C   UNL     1       0.082   6.635   0.036  0.00  0.00    +0.039 C 
ATOM     15  C   UNL     1       1.170   5.560   0.020  0.00  0.00    +0.128 C 
BRANCH  15  16
ATOM     16  O   UNL     1       1.994   5.698   1.179  0.00  0.00    -0.391 OA
ATOM     17  H   UNL     1       2.835   5.008   1.341  0.00  0.00    +0.210 HD
ENDBRANCH  15  16
ENDBRANCH  13  15
ENDBRANCH   1  13
BRANCH  10  18
ATOM     18  C   UNL     1       3.555   0.869  -0.027  0.00  0.00    +0.220 C 
BRANCH  18  19
ATOM     19  C   UNL     1       4.043   0.911  -1.452  0.00  0.00    +0.233 C 
ATOM     20  O   UNL     1       3.248   0.862  -2.367  0.00  0.00    -0.274 OA
ATOM     21  N   UNL     1       5.362   1.002  -1.711  0.00  0.00    -0.307 N 
ATOM     22  H   UNL     1       6.084   1.046  -0.881  0.00  0.00    +0.149 HD
BRANCH  21  23
ATOM     23  C   UNL     1       5.837   1.043  -3.097  0.00  0.00    +0.100 C 
ATOM     24  C   UNL     1       5.785   2.483  -3.611  0.00  0.00    +0.033 C 
BRANCH  23  25
ATOM     25  C   UNL     1       7.255   0.538  -3.157  0.00  0.00    -0.027 A 
ATOM     26  C   UNL     1       8.155   0.896  -2.155  0.00  0.00    +0.006 A 
ATOM     27  C   UNL     1       9.443   0.457  -2.179  0.00  0.00    +0.009 A 
ATOM     28  C   UNL     1       9.875  -0.370  -3.230  0.00  0.00    -0.018 A 
ATOM     29  C   UNL     1      11.197  -0.844  -3.289  0.00  0.00    +0.008 A 
ATOM     30  C   UNL     1      11.581  -1.643  -4.322  0.00  0.00    +0.001 A 
ATOM     31  C   UNL     1      10.681  -2.000  -5.325  0.00  0.00    +0.001 A 
ATOM     32  C   UNL     1       9.393  -1.560  -5.301  0.00  0.00    +0.008 A 
ATOM     33  C   UNL     1       8.961  -0.734  -4.250  0.00  0.00    -0.018 A 
ATOM     34  C   UNL     1       7.637  -0.265  -4.187  0.00  0.00    +0.014 A 
ENDBRANCH  23  25
ENDBRANCH  21  23
ENDBRANCH  18  19
ENDBRANCH  10  18
TORSDOF 7
