REMARK  Name = ZINC28649935
REMARK  13 active torsions:
REMARK  status: ('A' for Active; 'I' for Inactive)
REMARK    1  A    between atoms: C_1  and  C_2
REMARK    2  A    between atoms: C_2  and  C_3
REMARK    3  A    between atoms: C_2  and  N_4
REMARK    4  A    between atoms: N_4  and  C_5
REMARK    5  A    between atoms: N_4  and  C_36
REMARK    6  A    between atoms: C_5  and  C_6
REMARK    7  A    between atoms: C_6  and  N_7
REMARK    8  A    between atoms: N_7  and  C_8
REMARK    9  A    between atoms: C_12  and  C_17
REMARK   10  A    between atoms: C_21  and  C_23
REMARK   11  A    between atoms: N_27  and  C_28
REMARK   12  A    between atoms: C_36  and  C_37
REMARK   13  A    between atoms: C_36  and  C_38
REMARK                            x       y       z     vdW  Elec       q    Type
REMARK                         _______ _______ _______ _____ _____    ______ ____
ROOT
ATOM      1  N   UNL     1      -1.445   5.450  -3.213  0.00  0.00    -0.284 N 
ATOM      2  C   UNL     1      -2.512   4.871  -3.798  0.00  0.00    +0.307 C 
ATOM      3  O   UNL     1      -3.310   4.249  -3.125  0.00  0.00    -0.252 OA
ATOM      4  N   UNL     1      -2.694   4.982  -5.129  0.00  0.00    -0.269 N 
ATOM      5  H   UNL     1      -1.934   5.481  -5.748  0.00  0.00    +0.156 HD
ENDROOT
BRANCH   4   6
ATOM      6  C   UNL     1      -3.846   4.463  -5.721  0.00  0.00    +0.040 A 
ATOM      7  C   UNL     1      -4.426   3.288  -5.246  0.00  0.00    +0.063 A 
ATOM      8  C   UNL     1      -5.569   2.809  -5.856  0.00  0.00    +0.133 A 
ATOM      9  N   UNL     1      -6.105   3.445  -6.883  0.00  0.00    -0.224 NA
ATOM     10  C   UNL     1      -5.581   4.558  -7.364  0.00  0.00    +0.133 A 
ATOM     11  C   UNL     1      -4.442   5.103  -6.806  0.00  0.00    +0.063 A 
ATOM     12 CL   UNL     1      -6.334   5.344  -8.716  0.00  0.00    -0.062 Cl
ATOM     13 CL   UNL     1      -6.307   1.351  -5.271  0.00  0.00    -0.062 Cl
ENDBRANCH   4   6
BRANCH   1  14
ATOM     14  C   UNL     1      -1.247   5.330  -1.766  0.00  0.00    +0.078 C 
ATOM     15  C   UNL     1      -1.117   3.851  -1.386  0.00  0.00    +0.023 C 
ATOM     16  C   UNL     1      -0.565   3.760   0.037  0.00  0.00    +0.013 C 
ATOM     17  C   UNL     1      -1.434   4.559   0.996  0.00  0.00    -0.001 C 
ATOM     18  C   UNL     1      -2.944   4.366   0.993  0.00  0.00    +0.016 C 
ATOM     19  C   UNL     1      -2.326   5.672   0.469  0.00  0.00    +0.002 C 
ATOM     20  C   UNL     1      -2.453   5.918  -1.033  0.00  0.00    +0.027 C 
BRANCH  17  21
ATOM     21  C   UNL     1      -0.820   4.795   2.352  0.00  0.00    -0.040 A 
ATOM     22  C   UNL     1      -0.587   3.727   3.200  0.00  0.00    +0.004 A 
ATOM     23  C   UNL     1      -0.023   3.935   4.446  0.00  0.00    +0.002 A 
ATOM     24  C   UNL     1       0.311   5.210   4.851  0.00  0.00    +0.019 A 
ATOM     25  C   UNL     1       0.079   6.293   4.001  0.00  0.00    +0.052 A 
ATOM     26  C   UNL     1      -0.485   6.075   2.742  0.00  0.00    +0.023 A 
BRANCH  25  27
ATOM     27  C   UNL     1       0.423   7.620   4.415  0.00  0.00    +0.099 C 
ATOM     28  N   UNL     1       0.696   8.672   4.744  0.00  0.00    -0.191 NA
ENDBRANCH  25  27
ENDBRANCH  17  21
ENDBRANCH   1  14
BRANCH   1  29
ATOM     29  C   UNL     1      -0.482   6.201  -4.024  0.00  0.00    +0.091 C 
BRANCH  29  30
ATOM     30  C   UNL     1       0.619   5.257  -4.511  0.00  0.00    -0.059 C 
BRANCH  30  31
ATOM     31  N   UNL     1       1.629   6.025  -5.251  0.00  0.00    +0.384 N 
ATOM     32  H   UNL     1       1.124   6.877  -5.728  0.00  0.00    -0.081 HD
BRANCH  31  34
ATOM     33  C   UNL     1       1.991   7.446  -3.290  0.00  0.00    -0.014 C 
ATOM     34  C   UNL     1       2.654   6.558  -4.344  0.00  0.00    -0.074 C 
ATOM     35  C   UNL     1       3.376   5.399  -3.653  0.00  0.00    -0.014 C 
ENDBRANCH  31  34
BRANCH  31  36
ATOM     36  C   UNL     1       2.237   5.210  -6.312  0.00  0.00    -0.074 C 
ATOM     37  C   UNL     1       1.153   4.755  -7.290  0.00  0.00    -0.014 C 
ATOM     38  C   UNL     1       3.282   6.042  -7.059  0.00  0.00    -0.014 C 
ENDBRANCH  31  36
ENDBRANCH  30  31
ENDBRANCH  29  30
ENDBRANCH   1  29
TORSDOF 9
