REMARK  Name = ZINC31126895
REMARK  7 active torsions:
REMARK  status: ('A' for Active; 'I' for Inactive)
REMARK    1  A    between atoms: C_1  and  C_2
REMARK    2  A    between atoms: C_2  and  C_4
REMARK    3  A    between atoms: C_2  and  N_13
REMARK    4  A    between atoms: N_16  and  C_17
REMARK    5  A    between atoms: N_20  and  C_23
REMARK    6  A    between atoms: C_23  and  C_24
REMARK    7  A    between atoms: N_26  and  C_27
REMARK                            x       y       z     vdW  Elec       q    Type
REMARK                         _______ _______ _______ _____ _____    ______ ____
ROOT
ATOM      1  N   UNL     1       0.711  -0.489   1.189  0.00  0.00    -0.293 N 
ATOM      2  C   UNL     1       2.054  -0.600   1.174  0.00  0.00    +0.300 C 
ATOM      3  O   UNL     1       2.677  -0.297   0.175  0.00  0.00    -0.253 OA
ATOM      4  N   UNL     1       2.706  -1.046   2.266  0.00  0.00    -0.297 N 
ATOM      5  H   UNL     1       0.213  -0.731   1.986  0.00  0.00    +0.151 HD
ATOM      6  H   UNL     1       2.208  -1.288   3.062  0.00  0.00    +0.151 HD
ENDROOT
BRANCH   4   7
ATOM      7  C   UNL     1       4.166  -1.166   2.249  0.00  0.00    +0.071 C 
ATOM      8  C   UNL     1       4.561  -2.520   1.652  0.00  0.00    +0.004 C 
ATOM      9  C   UNL     1       6.083  -2.672   1.710  0.00  0.00    -0.076 C 
ATOM     10  N   UNL     1       6.532  -2.601   3.106  0.00  0.00    +0.385 N 
ATOM     11  C   UNL     1       6.220  -1.280   3.664  0.00  0.00    -0.076 C 
ATOM     12  C   UNL     1       4.703  -1.074   3.680  0.00  0.00    +0.004 C 
ATOM     13  H   UNL     1       6.062  -3.312   3.646  0.00  0.00    -0.081 HD
BRANCH  10  14
ATOM     14  C   UNL     1       7.982  -2.825   3.164  0.00  0.00    +0.019 C 
BRANCH  14  15
ATOM     15  C   UNL     1       8.426  -2.875   4.604  0.00  0.00    +0.196 C 
ATOM     16  O   UNL     1       7.613  -2.738   5.494  0.00  0.00    -0.278 OA
ATOM     17  N   UNL     1       9.725  -3.073   4.902  0.00  0.00    -0.320 N 
ATOM     18  C   UNL     1      10.156  -3.122   6.302  0.00  0.00    +0.128 C 
ATOM     19  H   UNL     1      10.375  -3.183   4.191  0.00  0.00    +0.148 HD
ENDBRANCH  14  15
ENDBRANCH  10  14
ENDBRANCH   4   7
BRANCH   1  21
ATOM     20  C   UNL     1      -0.019   1.526   0.010  0.00  0.00    +0.033 C 
ATOM     21  C   UNL     1       0.002  -0.004   0.002  0.00  0.00    +0.102 C 
BRANCH  21  22
ATOM     22  C   UNL     1      -1.412  -0.526   0.013  0.00  0.00    -0.024 A 
ATOM     23  C   UNL     1      -2.122  -0.570   1.198  0.00  0.00    +0.009 A 
ATOM     24  C   UNL     1      -3.419  -1.047   1.213  0.00  0.00    +0.050 A 
ATOM     25  C   UNL     1      -4.011  -1.483   0.039  0.00  0.00    +0.166 A 
ATOM     26  C   UNL     1      -3.296  -1.438  -1.156  0.00  0.00    +0.167 A 
ATOM     27  C   UNL     1      -1.998  -0.953  -1.164  0.00  0.00    +0.055 A 
ATOM     28  O   UNL     1      -4.090  -1.917  -2.158  0.00  0.00    -0.453 OA
ATOM     29  C   UNL     1      -5.150  -2.634  -1.499  0.00  0.00    +0.466 C 
ATOM     30  O   UNL     1      -5.253  -1.990  -0.215  0.00  0.00    -0.453 OA
ENDBRANCH  21  22
ENDBRANCH   1  21
TORSDOF 5
