REMARK  Name = ZINC36829546
REMARK  4 active torsions:
REMARK  status: ('A' for Active; 'I' for Inactive)
REMARK    1  A    between atoms: C_1  and  C_2
REMARK    2  A    between atoms: C_7  and  C_8
REMARK    3  A    between atoms: C_8  and  C_10
REMARK    4  A    between atoms: C_8  and  N_21
REMARK                            x       y       z     vdW  Elec       q    Type
REMARK                         _______ _______ _______ _____ _____    ______ ____
ROOT
ATOM      1  C   UNL     1       0.025   0.045   2.504  0.00  0.00    -0.013 C 
ENDROOT
BRANCH   1   2
ATOM      2  C   UNL     1       1.420   0.528   2.805  0.00  0.00    -0.057 A 
ATOM      3  C   UNL     1       2.353  -0.345   3.335  0.00  0.00    +0.004 A 
ATOM      4  C   UNL     1       3.633   0.094   3.612  0.00  0.00    +0.024 A 
ATOM      5  C   UNL     1       3.982   1.413   3.358  0.00  0.00    +0.037 A 
ATOM      6  C   UNL     1       3.043   2.287   2.826  0.00  0.00    -0.025 A 
ATOM      7  C   UNL     1       1.767   1.841   2.546  0.00  0.00    +0.007 A 
ATOM      8  C   UNL     1       3.423   3.719   2.550  0.00  0.00    +0.046 C 
ATOM      9  C   UNL     1       4.427   4.193   3.601  0.00  0.00    +0.101 C 
ATOM     10  C   UNL     1       5.530   3.180   3.750  0.00  0.00    +0.218 C 
ATOM     11  O   UNL     1       6.661   3.555   3.977  0.00  0.00    -0.275 OA
ATOM     12  N   UNL     1       5.276   1.864   3.635  0.00  0.00    -0.285 N 
ATOM     13  H   UNL     1       5.996   1.223   3.746  0.00  0.00    +0.155 HD
ENDBRANCH   1   2
BRANCH   1  20
ATOM     14  C   UNL     1      -0.018   1.503   0.010  0.00  0.00    +0.044 C 
ATOM     15  C   UNL     1       0.002  -0.004   0.002  0.00  0.00    -0.048 A 
ATOM     16  C   UNL     1       0.006  -0.689  -1.199  0.00  0.00    +0.018 A 
ATOM     17  C   UNL     1       0.025  -2.071  -1.206  0.00  0.00    +0.018 A 
ATOM     18  C   UNL     1       0.041  -2.769  -0.012  0.00  0.00    +0.015 A 
ATOM     19  C   UNL     1       0.037  -2.084   1.188  0.00  0.00    +0.003 A 
ATOM     20  C   UNL     1       0.023  -0.701   1.195  0.00  0.00    -0.055 A 
ATOM     21 BR   UNL     1       0.029  -3.008  -2.849  0.00  0.00    -0.050 Br
ENDBRANCH   1  20
BRANCH   1  22
ATOM     22  N   UNL     1      -0.427  -0.849   3.579  0.00  0.00    +0.385 N 
ATOM     23  H   UNL     1       0.197  -1.640   3.642  0.00  0.00    -0.089 HD
ATOM     24  H   UNL     1      -0.425  -0.349   4.455  0.00  0.00    -0.089 HD
ATOM     25  H   UNL     1      -1.361  -1.172   3.377  0.00  0.00    -0.089 HD
ENDBRANCH   1  22
TORSDOF 3
