REMARK  Name = ZINC04027809
REMARK  4 active torsions:
REMARK  status: ('A' for Active; 'I' for Inactive)
REMARK    1  A    between atoms: C_1  and  O_2
REMARK    2  A    between atoms: O_2  and  C_3
REMARK    3  A    between atoms: C_3  and  C_5
REMARK    4  A    between atoms: C_18  and  C_20
REMARK                            x       y       z     vdW  Elec       q    Type
REMARK                         _______ _______ _______ _____ _____    ______ ____
ROOT
ATOM      1  C   UNL     1       3.072   3.668  -0.407  0.00  0.00    +0.045 C 
ATOM      2  C   UNL     1       1.699   4.216   0.004  0.00  0.00    +0.033 C 
ATOM      3  C   UNL     1       0.721   3.067   0.010  0.00  0.00    -0.021 A 
ATOM      4  C   UNL     1      -0.724   3.094   0.024  0.00  0.00    +0.003 A 
ATOM      5  C   UNL     1      -1.657   4.136   0.037  0.00  0.00    +0.010 A 
ATOM      6  C   UNL     1      -2.983   3.783   0.035  0.00  0.00    +0.001 A 
ATOM      7  C   UNL     1      -3.393   2.459   0.031  0.00  0.00    +0.002 A 
ATOM      8  C   UNL     1      -2.493   1.408   0.021  0.00  0.00    +0.026 A 
ATOM      9  C   UNL     1      -1.139   1.736   0.016  0.00  0.00    +0.047 A 
ATOM     10  N   UNL     1      -0.011   0.966   0.007  0.00  0.00    -0.359 N 
ATOM     11  H   UNL     1       0.002  -0.004   0.002  0.00  0.00    +0.166 HD
ATOM     12  C   UNL     1       1.097   1.768   0.001  0.00  0.00    +0.010 A 
ATOM     13  C   UNL     1       2.542   1.329  -0.011  0.00  0.00    +0.008 C 
ATOM     14  N   UNL     1       3.389   2.471   0.399  0.00  0.00    +0.396 N 
ATOM     15  H   UNL     1       3.221   2.678   1.391  0.00  0.00    -0.083 HD
ATOM     16  H   UNL     1       4.377   2.225   0.264  0.00  0.00    -0.083 HD
ENDROOT
BRANCH  13  17
ATOM     17  C   UNL     1       2.736   0.194   0.961  0.00  0.00    -0.055 A 
ATOM     18  C   UNL     1       2.784  -1.109   0.502  0.00  0.00    +0.002 A 
ATOM     19  C   UNL     1       2.960  -2.150   1.393  0.00  0.00    +0.001 A 
ATOM     20  C   UNL     1       3.090  -1.889   2.744  0.00  0.00    +0.015 A 
ATOM     21  C   UNL     1       3.042  -0.586   3.204  0.00  0.00    +0.018 A 
ATOM     22  C   UNL     1       2.870   0.457   2.311  0.00  0.00    +0.017 A 
ATOM     23 BR   UNL     1       3.220  -0.228   5.053  0.00  0.00    -0.050 Br
ENDBRANCH  13  17
BRANCH   1  24
ATOM     24  C   UNL     1       4.125   4.718  -0.164  0.00  0.00    +0.293 C 
ATOM     25  O   UNL     1       4.816   4.663   0.826  0.00  0.00    -0.253 OA
BRANCH  24  27
ATOM     26  C   UNL     1       5.329   6.690  -0.749  0.00  0.00    +0.280 C 
ATOM     27  O   UNL     1       4.296   5.714  -1.048  0.00  0.00    -0.469 OA
ENDBRANCH  24  27
ENDBRANCH   1  24
TORSDOF 3
