REMARK  Name = ZINC22326147
REMARK  14 active torsions:
REMARK  status: ('A' for Active; 'I' for Inactive)
REMARK    1  A    between atoms: C_1  and  C_2
REMARK    2  A    between atoms: C_2  and  C_3
REMARK    3  A    between atoms: N_9  and  C_10
REMARK    4  A    between atoms: C_10  and  C_11
REMARK    5  A    between atoms: C_11  and  C_12
REMARK    6  A    between atoms: C_12  and  N_13
REMARK    7  A    between atoms: C_14  and  C_16
REMARK    8  A    between atoms: C_16  and  N_17
REMARK    9  A    between atoms: N_17  and  C_18
REMARK   10  A    between atoms: N_17  and  S_27
REMARK   11  A    between atoms: C_21  and  O_25
REMARK   12  A    between atoms: O_25  and  C_26
REMARK   13  A    between atoms: S_27  and  C_30
REMARK   14  A    between atoms: C_33  and  C_36
REMARK                            x       y       z     vdW  Elec       q    Type
REMARK                         _______ _______ _______ _____ _____    ______ ____
ROOT
ATOM      1  N   UNL     1      -1.387   1.666  -1.130  0.00  0.00    -0.194 N 
ENDROOT
BRANCH   1   2
ATOM      2  C   UNL     1      -1.571   2.966  -1.613  0.00  0.00    +0.053 A 
ATOM      3  C   UNL     1      -2.140   3.168  -2.864  0.00  0.00    +0.028 A 
ATOM      4  C   UNL     1      -2.321   4.452  -3.341  0.00  0.00    +0.049 A 
ATOM      5  C   UNL     1      -1.935   5.539  -2.571  0.00  0.00    +0.138 A 
ATOM      6  C   UNL     1      -1.367   5.339  -1.321  0.00  0.00    +0.084 A 
ATOM      7  C   UNL     1      -1.190   4.055  -0.840  0.00  0.00    +0.048 A 
ATOM      8 CL   UNL     1      -0.885   6.700  -0.358  0.00  0.00    -0.080 Cl
BRANCH   5   9
ATOM      9  O   UNL     1      -2.115   6.803  -3.042  0.00  0.00    -0.494 OA
ATOM     10  C   UNL     1      -2.706   6.936  -4.336  0.00  0.00    +0.277 C 
ENDBRANCH   5   9
ENDBRANCH   1   2
BRANCH   1  11
ATOM     11  S   UNL     1       0.062   1.230  -0.457  0.00  0.00    +0.075 S 
ATOM     12  O   UNL     1       0.298  -0.118  -0.839  0.00  0.00    -0.150 OA
ATOM     13  O   UNL     1       0.977   2.276  -0.751  0.00  0.00    -0.150 OA
BRANCH  11  14
ATOM     14  C   UNL     1      -0.155   1.227   1.292  0.00  0.00    +0.109 A 
ATOM     15  C   UNL     1       0.237   2.322   2.038  0.00  0.00    +0.029 A 
ATOM     16  C   UNL     1       0.062   2.322   3.410  0.00  0.00    +0.005 A 
ATOM     17  C   UNL     1      -0.495   1.222   4.035  0.00  0.00    -0.050 A 
ATOM     18  C   UNL     1      -0.882   0.125   3.289  0.00  0.00    +0.005 A 
ATOM     19  C   UNL     1      -0.712   0.127   1.917  0.00  0.00    +0.029 A 
ATOM     20  C   UNL     1      -0.680   1.220   5.531  0.00  0.00    +0.044 C 
ENDBRANCH  11  14
ENDBRANCH   1  11
BRANCH   1  21
ATOM     21  C   UNL     1      -2.477   0.691  -1.218  0.00  0.00    +0.227 C 
BRANCH  21  23
ATOM     22  N   UNL     1      -4.469   0.051   0.101  0.00  0.00    -0.314 N 
ATOM     23  C   UNL     1      -3.390   0.848  -0.030  0.00  0.00    +0.232 C 
ATOM     24  O   UNL     1      -3.154   1.692   0.808  0.00  0.00    -0.274 OA
ATOM     25  H   UNL     1      -4.683  -0.714  -0.660  0.00  0.00    +0.149 HD
BRANCH  22  26
ATOM     26  C   UNL     1      -5.357   0.205   1.256  0.00  0.00    +0.102 C 
BRANCH  26  27
ATOM     27  C   UNL     1      -6.495  -0.814   1.163  0.00  0.00    +0.000 C 
BRANCH  27  28
ATOM     28  C   UNL     1      -7.422  -0.654   2.369  0.00  0.00    -0.077 C 
BRANCH  28  34
ATOM     29  C   UNL     1      -9.233  -1.736   3.557  0.00  0.00    -0.069 C 
ATOM     30  C   UNL     1     -10.265  -2.863   3.472  0.00  0.00    -0.015 C 
ATOM     31  C   UNL     1     -11.247  -2.565   2.335  0.00  0.00    -0.003 C 
ATOM     32  C   UNL     1     -10.468  -2.414   1.026  0.00  0.00    -0.019 C 
ATOM     33  C   UNL     1      -9.430  -1.300   1.181  0.00  0.00    -0.078 C 
ATOM     34  N   UNL     1      -8.515  -1.632   2.280  0.00  0.00    +0.382 N 
ATOM     35  H   UNL     1      -8.073  -2.616   2.063  0.00  0.00    -0.081 HD
BRANCH  29  37
ATOM     36  C   UNL     1      -7.451  -3.305   4.334  0.00  0.00    +0.002 C 
ATOM     37  C   UNL     1      -8.238  -2.039   4.679  0.00  0.00    -0.019 C 
ENDBRANCH  29  37
ENDBRANCH  28  34
ENDBRANCH  27  28
ENDBRANCH  26  27
ENDBRANCH  22  26
ENDBRANCH  21  23
ENDBRANCH   1  21
TORSDOF 11
