REMARK  Name = ZINC14274828
REMARK  9 active torsions:
REMARK  status: ('A' for Active; 'I' for Inactive)
REMARK    1  A    between atoms: C_1  and  O_2
REMARK    2  A    between atoms: O_2  and  C_3
REMARK    3  A    between atoms: C_6  and  N_28
REMARK    4  A    between atoms: C_8  and  N_9
REMARK    5  A    between atoms: N_9  and  C_10
REMARK    6  A    between atoms: C_10  and  N_12
REMARK    7  A    between atoms: C_13  and  C_15
REMARK    8  A    between atoms: C_24  and  O_25
REMARK    9  A    between atoms: O_25  and  C_26
REMARK                            x       y       z     vdW  Elec       q    Type
REMARK                         _______ _______ _______ _____ _____    ______ ____
ROOT
ATOM      1  N   UNL     1      -0.049   8.072  -0.189  0.00  0.00    -0.263 N 
ATOM      2  C   UNL     1      -1.169   7.363  -0.427  0.00  0.00    +0.253 C 
ATOM      3  O   UNL     1      -2.216   7.938  -0.651  0.00  0.00    -0.270 OA
ATOM      4  H   UNL     1       0.787   7.613  -0.010  0.00  0.00    +0.157 HD
ENDROOT
BRANCH   2   5
ATOM      5  C   UNL     1      -1.125   5.889  -0.416  0.00  0.00    +0.080 A 
ATOM      6  C   UNL     1       0.071   5.237  -0.160  0.00  0.00    +0.025 A 
ATOM      7  C   UNL     1       0.107   3.836  -0.151  0.00  0.00    -0.016 A 
ATOM      8  C   UNL     1       1.304   3.142   0.105  0.00  0.00    +0.008 A 
ATOM      9  C   UNL     1       1.307   1.782   0.107  0.00  0.00    +0.001 A 
ATOM     10  C   UNL     1       0.140   1.061  -0.142  0.00  0.00    +0.001 A 
ATOM     11  C   UNL     1      -1.036   1.697  -0.399  0.00  0.00    +0.010 A 
ATOM     12  C   UNL     1      -1.081   3.102  -0.404  0.00  0.00    -0.000 A 
ATOM     13  C   UNL     1      -2.281   3.786  -0.661  0.00  0.00    +0.068 A 
ATOM     14  C   UNL     1      -2.301   5.151  -0.666  0.00  0.00    +0.147 A 
ATOM     15 BR   UNL     1      -3.869   2.816  -1.000  0.00  0.00    -0.046 Br
BRANCH  14  16
ATOM     16  O   UNL     1      -3.465   5.804  -0.916  0.00  0.00    -0.493 OA
ATOM     17  C   UNL     1      -3.755   6.116  -2.280  0.00  0.00    +0.277 C 
ENDBRANCH  14  16
ENDBRANCH   2   5
BRANCH   1  18
ATOM     18  C   UNL     1      -0.089   9.419  -0.199  0.00  0.00    +0.141 C 
ATOM     19  S   UNL     1      -1.563  10.230  -0.515  0.00  0.00    -0.018 S 
BRANCH  18  20
ATOM     20  N   UNL     1       1.032  10.129   0.039  0.00  0.00    -0.294 N 
ATOM     21  H   UNL     1       1.853   9.672   0.280  0.00  0.00    +0.154 HD
BRANCH  20  27
ATOM     22  C   UNL     1       2.009  12.191  -0.770  0.00  0.00    +0.141 A 
ATOM     23  C   UNL     1       1.983  13.573  -0.865  0.00  0.00    +0.050 A 
ATOM     24  C   UNL     1       0.970  14.289  -0.256  0.00  0.00    +0.036 A 
ATOM     25  C   UNL     1      -0.021  13.630   0.448  0.00  0.00    +0.128 A 
ATOM     26  C   UNL     1      -0.006  12.251   0.543  0.00  0.00    +0.059 A 
ATOM     27  C   UNL     1       1.012  11.526  -0.060  0.00  0.00    +0.077 A 
BRANCH  25  28
ATOM     28  N   UNL     1      -1.104  14.403   1.097  0.00  0.00    +0.056 N 
ATOM     29  O   UNL     1      -1.122  15.617   1.010  0.00  0.00    -0.126 OA
ATOM     30  O   UNL     1      -1.977  13.824   1.718  0.00  0.00    -0.126 OA
ENDBRANCH  25  28
BRANCH  22  32
ATOM     31  C   UNL     1       3.994  12.233  -2.078  0.00  0.00    +0.277 C 
ATOM     32  O   UNL     1       3.006  11.485  -1.368  0.00  0.00    -0.493 OA
ENDBRANCH  22  32
ENDBRANCH  20  27
ENDBRANCH  18  20
ENDBRANCH   1  18
TORSDOF 7
