REMARK  Name = ZINC39534510
REMARK  11 active torsions:
REMARK  status: ('A' for Active; 'I' for Inactive)
REMARK    1  A    between atoms: C_1  and  C_2
REMARK    2  A    between atoms: C_2  and  C_3
REMARK    3  A    between atoms: C_2  and  S_4
REMARK    4  A    between atoms: S_4  and  C_7
REMARK    5  A    between atoms: C_10  and  C_13
REMARK    6  A    between atoms: C_13  and  C_15
REMARK    7  A    between atoms: C_13  and  N_24
REMARK    8  A    between atoms: C_15  and  N_16
REMARK    9  A    between atoms: N_16  and  C_17
REMARK   10  A    between atoms: C_22  and  O_23
REMARK   11  A    between atoms: C_28  and  O_31
REMARK                            x       y       z     vdW  Elec       q    Type
REMARK                         _______ _______ _______ _____ _____    ______ ____
ROOT
ATOM      1  C   UNL     1      -4.212   1.593  -4.999  0.00  0.00    +0.104 C 
ENDROOT
BRANCH   1   2
ATOM      2  N   UNL     1      -3.288   1.423  -6.128  0.00  0.00    -0.295 NA
ATOM      3  C   UNL     1      -3.047  -0.001  -6.402  0.00  0.00    +0.066 C 
ATOM      4  C   UNL     1      -2.129  -0.136  -7.618  0.00  0.00    -0.063 C 
ATOM      5  N   UNL     1      -0.858   0.551  -7.351  0.00  0.00    +0.398 N 
ATOM      6  C   UNL     1      -1.112   1.976  -7.104  0.00  0.00    +0.073 C 
ATOM      7  C   UNL     1      -2.022   2.128  -5.883  0.00  0.00    +0.096 C 
ATOM      8  H   UNL     1      -0.419   0.142  -6.540  0.00  0.00    -0.082 HD
ATOM      9  H   UNL     1      -0.248   0.451  -8.149  0.00  0.00    -0.082 HD
BRANCH   6  10
ATOM     10  O   UNL     1       0.127   2.645  -6.861  0.00  0.00    -0.409 OA
ATOM     11  H   UNL     1       0.754   2.590  -7.595  0.00  0.00    +0.207 HD
ENDBRANCH   6  10
ENDBRANCH   1   2
BRANCH   1  15
ATOM     12  C   UNL     1      -2.590  -0.306  -1.534  0.00  0.00    +0.088 A 
ATOM     13  C   UNL     1      -3.067  -1.071  -2.582  0.00  0.00    +0.027 A 
ATOM     14  C   UNL     1      -3.591  -0.456  -3.704  0.00  0.00    +0.007 A 
ATOM     15  C   UNL     1      -3.641   0.923  -3.776  0.00  0.00    -0.029 A 
ATOM     16  C   UNL     1      -3.165   1.688  -2.728  0.00  0.00    +0.007 A 
ATOM     17  C   UNL     1      -2.644   1.073  -1.604  0.00  0.00    +0.027 A 
BRANCH  12  18
ATOM     18  S   UNL     1      -1.921  -1.090  -0.104  0.00  0.00    -0.001 S 
ATOM     19  O   UNL     1      -1.021  -0.137   0.443  0.00  0.00    -0.169 OA
ATOM     20  O   UNL     1      -1.451  -2.348  -0.568  0.00  0.00    -0.169 OA
BRANCH  18  22
ATOM     21  C   UNL     1      -4.386  -2.199   0.318  0.00  0.00    +0.032 C 
ATOM     22  C   UNL     1      -3.337  -1.322   1.006  0.00  0.00    +0.130 C 
ATOM     23  C   UNL     1      -2.869  -2.002   2.294  0.00  0.00    +0.032 C 
ENDBRANCH  18  22
ENDBRANCH  12  18
ENDBRANCH   1  15
BRANCH   1  24
ATOM     24  C   UNL     1      -5.561   0.960  -5.345  0.00  0.00    +0.125 C 
BRANCH  24  25
ATOM     25  N   UNL     1      -6.060   1.528  -6.599  0.00  0.00    -0.339 N 
ATOM     26  H   UNL     1      -5.541   2.200  -7.068  0.00  0.00    +0.146 HD
BRANCH  25  27
ATOM     27  C   UNL     1      -7.286   1.100  -7.122  0.00  0.00    +0.069 A 
ATOM     28  C   UNL     1      -8.033   0.143  -6.450  0.00  0.00    +0.026 A 
ATOM     29  C   UNL     1      -9.244  -0.277  -6.968  0.00  0.00    +0.002 A 
ATOM     30  C   UNL     1      -9.713   0.254  -8.155  0.00  0.00    +0.004 A 
ATOM     31  C   UNL     1      -8.975   1.209  -8.830  0.00  0.00    +0.047 A 
ATOM     32  C   UNL     1      -7.763   1.639  -8.315  0.00  0.00    +0.138 A 
BRANCH  32  33
ATOM     33  O   UNL     1      -7.038   2.581  -8.975  0.00  0.00    -0.505 OA
ATOM     34  H   UNL     1      -6.414   2.218  -9.619  0.00  0.00    +0.292 HD
ENDBRANCH  32  33
ENDBRANCH  25  27
ENDBRANCH  24  25
ENDBRANCH   1  24
TORSDOF 9
