REMARK  Name = ZINC19890432
REMARK  9 active torsions:
REMARK  status: ('A' for Active; 'I' for Inactive)
REMARK    1  A    between atoms: C_1  and  C_2
REMARK    2  A    between atoms: C_2  and  C_3
REMARK    3  A    between atoms: C_2  and  C_4
REMARK    4  A    between atoms: C_2  and  O_5
REMARK    5  A    between atoms: O_5  and  C_6
REMARK    6  A    between atoms: C_6  and  C_8
REMARK    7  A    between atoms: C_12  and  N_13
REMARK    8  A    between atoms: C_14  and  C_15
REMARK    9  A    between atoms: N_25  and  C_28
REMARK                            x       y       z     vdW  Elec       q    Type
REMARK                         _______ _______ _______ _____ _____    ______ ____
ROOT
ATOM      1  C   UNL     1       2.362  -0.754  -2.637  0.00  0.00    +0.093 A 
ATOM      2  C   UNL     1       2.374   0.044  -3.792  0.00  0.00    -0.025 A 
ATOM      3  C   UNL     1       3.253  -0.297  -4.769  0.00  0.00    -0.021 A 
ATOM      4  S   UNL     1       4.095  -1.720  -4.135  0.00  0.00    -0.077 S 
ATOM      5  C   UNL     1       3.253  -1.834  -2.564  0.00  0.00    +0.092 A 
ATOM      6  C   UNL     1       3.441   0.396  -6.081  0.00  0.00    -0.036 C 
ATOM      7  N   UNL     1       2.281   1.275  -6.314  0.00  0.00    +0.381 N 
ATOM      8  C   UNL     1       2.050   2.105  -5.125  0.00  0.00    -0.074 C 
ATOM      9  C   UNL     1       1.465   1.255  -3.993  0.00  0.00    +0.018 C 
ATOM     10  C   UNL     1       2.547   2.140  -7.471  0.00  0.00    -0.096 C 
ATOM     11  H   UNL     1       1.463   0.712  -6.496  0.00  0.00    -0.082 HD
ENDROOT
BRANCH   5  12
ATOM     12  N   UNL     1       3.428  -2.728  -1.567  0.00  0.00    -0.354 N 
ATOM     13  C   UNL     1       4.321  -3.676  -1.688  0.00  0.00    +0.095 C 
ATOM     14  H   UNL     1       2.891  -2.667  -0.761  0.00  0.00    +0.166 HD
BRANCH  13  15
ATOM     15  C   UNL     1       4.574  -4.593  -0.570  0.00  0.00    +0.040 A 
ATOM     16  C   UNL     1       5.443  -5.679  -0.732  0.00  0.00    +0.028 A 
ATOM     17  C   UNL     1       5.676  -6.535   0.322  0.00  0.00    +0.020 A 
ATOM     18  C   UNL     1       5.053  -6.327   1.544  0.00  0.00    +0.039 A 
ATOM     19  C   UNL     1       4.192  -5.260   1.718  0.00  0.00    +0.089 A 
ATOM     20  C   UNL     1       3.950  -4.384   0.670  0.00  0.00    +0.206 A 
ATOM     21  O   UNL     1       3.109  -3.332   0.842  0.00  0.00    -0.286 OA
ATOM     22 CL   UNL     1       3.418  -5.013   3.252  0.00  0.00    -0.080 Cl
ATOM     23 BR   UNL     1       6.849  -8.001   0.102  0.00  0.00    -0.050 Br
ENDBRANCH  13  15
ENDBRANCH   5  12
BRANCH   1  24
ATOM     24  C   UNL     1       1.445  -0.462  -1.532  0.00  0.00    +0.343 C 
ATOM     25  O   UNL     1       1.790   0.287  -0.637  0.00  0.00    -0.245 OA
BRANCH  24  26
ATOM     26  O   UNL     1       0.219  -1.023  -1.507  0.00  0.00    -0.455 OA
BRANCH  26  28
ATOM     27  C   UNL     1      -0.861   0.817  -0.373  0.00  0.00    +0.055 C 
ATOM     28  C   UNL     1      -0.623  -0.694  -0.400  0.00  0.00    +0.106 C 
ATOM     29  C   UNL     1       0.054  -1.127   0.902  0.00  0.00    +0.055 C 
ATOM     30  C   UNL     1      -1.962  -1.419  -0.545  0.00  0.00    +0.055 C 
ENDBRANCH  26  28
ENDBRANCH  24  26
ENDBRANCH   1  24
TORSDOF 5
